data_mof_unit_64662.cif
_audit_creation_date              2012-10-26T17:45:30-0400
_audit_creation_method            fapswitch 2.2
_symmetry_space_group_name_H-M    P1
_symmetry_Int_Tables_number       1
_space_group_crystal_system       triclinic
_cell_length_a                    32.265092
_cell_length_b                    32.264283
_cell_length_c                    38.873474
_cell_angle_alpha                 90.000245
_cell_angle_beta                  89.981225
_cell_angle_gamma                 89.999777
_cell_volume                      40467.6753009

loop_
_atom_site_label
_atom_site_type_symbol
_atom_type_description
_atom_site_fract_x
_atom_site_fract_y
_atom_site_fract_z
_atom_type_partial_charge
C1    C     C_R   0.920476 0.500000 0.000035 0.555403
C2    C     C_R   0.537412 0.227871 0.000988 -0.092361
C3    C     C_R   0.537062 0.991728 0.841238 0.213300
C4    C     C_R   0.991750 0.537039 0.158759 0.213285
C5    C     C_R   0.462937 0.991729 0.158761 0.213179
C6    C     C_R   0.008301 0.462966 0.158753 0.213260
C7    C     C_R   0.537008 0.008280 0.158751 0.213164
C8    C     C_R   0.491695 0.962966 0.341247 0.213250
C9    C     C_R   0.962992 0.508283 0.341249 0.213181
C10   C     C_R   0.508252 0.037038 0.341241 0.213268
C11   C     C_R   0.037062 0.491727 0.341238 0.213188
C12   C     C_R   0.491750 0.037039 0.658760 0.213156
C13   C     C_R   0.227872 0.462585 0.999076 -0.092377
C14   C     C_R   0.962938 0.491726 0.658761 0.213280
C15   C     C_R   0.508301 0.962966 0.658753 0.213191
C16   C     C_R   0.037008 0.508283 0.658751 0.213276
C17   C     C_R   0.999970 0.500002 0.822825 0.008775
C18   C     C_R   0.500030 0.000005 0.822825 0.008837
C19   C     C_R   0.000030 0.500003 0.177175 0.008838
C20   C     C_R   0.499970 0.000004 0.177174 0.008772
C21   C     C_R   0.499970 0.000002 0.322826 0.008823
C22   C     C_R   0.000030 0.500004 0.322826 0.008785
C23   C     C_R   0.500030 0.000003 0.677175 0.008767
C24   C     C_R   0.462583 0.772130 0.000914 -0.092362
C25   C     C_R   0.999970 0.500004 0.677174 0.008821
C26   C     C_R   0.999991 0.500000 0.895463 -0.076738
C27   C     C_R   0.500017 0.000004 0.895463 -0.076383
C28   C     C_R   0.000010 0.500001 0.104537 -0.076370
C29   C     C_R   0.499983 0.000003 0.104537 -0.076726
C30   C     C_R   0.499990 0.000000 0.395463 -0.076464
C31   C     C_R   0.000017 0.500004 0.395463 -0.076707
C32   C     C_R   0.500010 0.000001 0.604537 -0.076680
C33   C     C_R   0.999983 0.500003 0.604537 -0.076402
C34   C     C_R   0.999965 0.500000 0.715135 0.426292
C35   C     C_R   0.772130 0.462566 0.999531 -0.092356
C36   C     C_R   0.500033 0.000002 0.715136 0.426280
C37   C     C_R   0.000035 0.500001 0.284865 0.426276
C38   C     C_R   0.499966 0.000001 0.284864 0.426289
C39   C     C_R   0.499965 0.000000 0.215135 0.426290
C40   C     C_R   0.000033 0.500002 0.215136 0.426261
C41   C     C_R   0.500035 0.000001 0.784864 0.426284
C42   C     C_R   0.999967 0.500001 0.784864 0.426306
C43   C     C_R   0.728570 0.461794 0.998662 0.043199
C44   C     C_R   0.461798 0.271431 0.001351 0.043194
C45   C     C_R   0.271431 0.538200 0.998622 0.043194
C46   C     C_R   0.537428 0.772130 0.000557 -0.092372
C47   C     C_R   0.538196 0.728569 0.001425 0.043205
C48   C     C_R   0.728568 0.538161 0.998086 0.043185
C49   C     C_R   0.461828 0.728569 0.001788 0.043175
C50   C     C_R   0.271433 0.461831 0.998205 0.043173
C51   C     C_R   0.538164 0.271432 0.001864 0.043173
C52   C     C_R   0.228581 0.961804 0.500912 0.042910
C53   C     C_R   0.961821 0.771432 0.498324 0.043213
C54   C     C_R   0.771430 0.038187 0.501588 0.043175
C55   C     C_R   0.038171 0.228567 0.498219 0.042867
C56   C     C_R   0.228579 0.038184 0.499020 0.042519
C57   C     C_R   0.227870 0.537431 0.999485 -0.092359
C58   C     C_R   0.961804 0.228570 0.498546 0.043308
C59   C     C_R   0.771431 0.961817 0.501667 0.043193
C60   C     C_R   0.038190 0.771431 0.498465 0.043097
C61   C     C_R   0.706409 0.499975 0.998190 -0.015836
C62   C     C_R   0.499979 0.293591 0.001790 -0.015845
C63   C     C_R   0.293592 0.500018 0.998232 -0.015846
C64   C     C_R   0.500013 0.706409 0.001789 -0.015842
C65   C     C_R   0.206411 0.999994 0.499965 -0.017191
C66   C     C_R   0.000006 0.793591 0.498211 -0.015868
C67   C     C_R   0.793590 0.000002 0.501811 -0.015839
C68   C     C_R   0.462569 0.227870 0.000485 -0.092376
C69   C     C_R   0.999986 0.206409 0.498200 -0.015919
C70   C     C_2   0.707744 0.420456 0.998261 0.597002
C71   C     C_2   0.420461 0.292259 0.001786 0.596907
C72   C     C_2   0.292258 0.579538 0.998140 0.597006
C73   C     C_2   0.579530 0.707740 0.001939 0.596929
C74   C     C_2   0.707739 0.579483 0.997063 0.596985
C75   C     C_2   0.420503 0.707739 0.002694 0.597058
C76   C     C_2   0.292262 0.420506 0.997270 0.596958
C77   C     C_2   0.579486 0.292261 0.002851 0.597068
C78   C     C_2   0.207818 0.920425 0.502206 0.597818
C79   C     C_R   0.272152 0.037406 0.499291 -0.092116
C80   C     C_2   0.920493 0.792261 0.497539 0.597047
C81   C     C_2   0.792258 0.079520 0.502259 0.596926
C82   C     C_2   0.079494 0.207735 0.497329 0.595748
C83   C     C_2   0.207812 0.079558 0.497711 0.596391
C84   C     C_2   0.920469 0.207742 0.498009 0.596902
C85   C     C_2   0.792259 0.920486 0.502421 0.597049
C86   C     C_2   0.079522 0.792259 0.497832 0.596878
C87   C     C_R   0.037425 0.727870 0.499335 -0.092362
C88   C     C_R   0.727871 0.962577 0.500792 -0.092358
C89   C     C_R   0.500000 0.079524 0.999965 0.555398
C90   C     C_R   0.962572 0.272131 0.499416 -0.092392
C91   C     C_R   0.272155 0.962588 0.500658 -0.092421
C92   C     C_R   0.037417 0.272128 0.499096 -0.092122
C93   C     C_R   0.727870 0.037424 0.500714 -0.092382
C94   C     C_R   0.962580 0.727870 0.499196 -0.092355
C95   C     C_R   0.793759 0.499993 0.999633 -0.013015
C96   C     C_R   0.499995 0.206240 0.000354 -0.013023
C97   C     C_R   0.206241 0.500005 0.999660 -0.013015
C98   C     C_R   0.500003 0.793760 0.000354 -0.013021
C99   C     C_R   0.293778 0.999999 0.499979 -0.013337
C100  C     C_R   0.079524 0.500000 0.000035 0.555401
C101  C     C_R   0.000001 0.706240 0.499647 -0.013021
C102  C     C_R   0.706240 1.000000 0.500368 -0.013017
C103  C     C_R   0.999998 0.293760 0.499640 -0.013062
C104  C     C_1   0.661452 0.499986 0.999251 0.065862
C105  C     C_1   0.499989 0.338547 0.000730 0.065845
C106  C     C_1   0.338548 0.500011 0.999290 0.065862
C107  C     C_1   0.500007 0.661453 0.000729 0.065849
C108  C     C_1   0.161446 0.999996 0.499973 0.066995
C109  C     C_1   0.000003 0.838547 0.499271 0.065763
C110  C     C_1   0.838547 0.000001 0.500749 0.065868
C111  C     C_R   0.500000 0.920477 0.999965 0.555403
C112  C     C_1   0.999993 0.161452 0.499265 0.065196
C113  C     C_1   0.838492 0.499998 0.999907 -0.018847
C114  C     C_1   0.499998 0.161507 0.000085 -0.018860
C115  C     C_1   0.161507 0.500001 0.999923 -0.018854
C116  C     C_1   0.500001 0.838493 0.000084 -0.018857
C117  C     C_1   0.338507 0.000000 0.499988 -0.019029
C118  C     C_1   1.000000 0.661507 0.499916 -0.018863
C119  C     C_1   0.661507 1.000000 0.500093 -0.018848
C120  C     C_1   0.000000 0.338493 0.499912 -0.018884
C121  C     C_1   0.875917 0.500000 0.000007 0.015331
C122  C     C_R   0.420479 0.000000 0.500000 0.555426
C123  C     C_1   0.499999 0.124082 0.999989 0.015331
C124  C     C_1   0.124082 0.500000 0.000015 0.015327
C125  C     C_1   0.500000 0.875918 0.999988 0.015334
C126  C     C_1   0.375928 0.000000 0.499994 0.015409
C127  C     C_1   1.000000 0.624082 0.500012 0.015332
C128  C     C_1   0.624083 1.000000 0.499993 0.015332
C129  C     C_1   0.000000 0.375918 0.500009 0.015337
C130  C     C_1   0.624024 0.499993 0.999825 0.090337
C131  C     C_1   0.499995 0.375976 0.000160 0.090348
C132  C     C_1   0.375976 0.500005 0.999855 0.090356
C133  C     C_R   1.000000 0.579523 0.500035 0.555398
C134  C     C_1   0.500003 0.624024 0.000160 0.090344
C135  C     C_1   0.124014 0.999999 0.499983 0.091982
C136  C     C_1   0.000001 0.875976 0.499840 0.090351
C137  C     C_1   0.875975 0.000000 0.500175 0.090343
C138  C     C_1   0.999998 0.124024 0.499839 0.089907
C139  C     C_R   0.499999 0.420501 0.000012 0.563835
C140  C     C_R   0.420501 0.500000 0.999993 0.563835
C141  C     C_R   0.500000 0.579499 0.000012 0.563828
C142  C     C_R   0.579499 0.499999 0.999983 0.563819
C143  C     C_R   0.000000 0.920501 0.499988 0.563955
C144  C     C_R   0.579524 0.000000 0.499965 0.555403
C145  C     C_R   0.920501 0.000000 0.500017 0.563859
C146  C     C_R   1.000000 0.079499 0.499988 0.563810
C147  C     C_R   0.079495 0.000000 0.499995 0.563943
C148  C     C_R   0.999999 0.500000 0.933464 0.554768
C149  C     C_R   0.500006 0.000001 0.933464 0.555265
C150  C     C_R   0.000001 0.500000 0.066536 0.555279
C151  C     C_R   0.499994 0.000001 0.066536 0.554770
C152  C     C_R   0.499998 1.000000 0.433464 0.555165
C153  C     C_R   0.000006 0.500001 0.433464 0.554793
C154  C     C_R   0.500002 0.000000 0.566536 0.554858
C155  C     C_R   0.000000 0.420476 0.500035 0.555402
C156  C     C_R   0.999994 0.500001 0.566536 0.555237
C157  C     C_R   0.992400 0.463344 0.877260 -0.107192
C158  C     C_R   0.463365 0.007592 0.877263 -0.106613
C159  C     C_R   0.007569 0.536657 0.877255 -0.107190
C160  C     C_R   0.536676 0.992418 0.877253 -0.106625
C161  C     C_R   0.992430 0.536658 0.122745 -0.106607
C162  C     C_R   0.463324 0.992419 0.122747 -0.107185
C163  C     C_R   0.007601 0.463345 0.122739 -0.106606
C164  C     C_R   0.536635 0.007590 0.122737 -0.107173
C165  C     C_R   0.492395 0.963345 0.377260 -0.106683
C166  C     C_R   0.772128 0.537411 0.998966 -0.092375
C167  C     C_R   0.963365 0.507593 0.377263 -0.107150
C168  C     C_R   0.507573 0.036657 0.377255 -0.106786
C169  C     C_R   0.036676 0.492417 0.377253 -0.107145
C170  C     C_R   0.492430 0.036658 0.622745 -0.107010
C171  C     C_R   0.963324 0.492416 0.622747 -0.106655
C172  C     C_R   0.507602 0.963345 0.622739 -0.107175
C173  C     C_R   0.036634 0.507593 0.622737 -0.106651
C174  C     C_R   0.991700 0.462965 0.841247 0.213208
C175  C     C_R   0.462992 0.008282 0.841249 0.213303
C176  C     C_R   0.008249 0.537038 0.841240 0.213191
Cu1   Cu    Cu3+1 1.000000 0.540950 0.000000 1.048040
Cu2   Cu    Cu3+1 0.500000 0.500000 0.034280 1.082953
Cu3   Cu    Cu3+1 0.000000 0.000000 0.465720 1.088203
Cu4   Cu    Cu3+1 1.000000 0.000000 0.534280 1.077276
Cu5   Cu    Cu3+1 0.540950 0.000000 0.000000 1.048039
Cu6   Cu    Cu3+1 1.000000 0.459050 0.000000 1.048031
Cu7   Cu    Cu3+1 0.459050 0.000000 0.000000 1.048018
Cu8   Cu    Cu3+1 0.500000 0.040950 0.500000 1.048039
Cu9   Cu    Cu3+1 0.040950 0.500000 0.500000 1.048035
Cu10  Cu    Cu3+1 0.500000 0.959050 0.500000 1.048082
Cu11  Cu    Cu3+1 0.959050 0.500000 0.500000 1.048040
Cu12  Cu    Cu3+1 0.500000 0.500000 0.965720 1.082896
H1    H     H_    0.986363 0.434956 0.891237 0.191938
H2    H     H_    0.934977 0.513636 0.391241 0.191960
H3    H     H_    0.513620 0.065043 0.391227 0.192094
H4    H     H_    0.065059 0.486373 0.391223 0.191948
H5    H     H_    0.486385 0.065045 0.608773 0.192066
H6    H     H_    0.934941 0.486372 0.608777 0.192128
H7    H     H_    0.513640 0.934957 0.608763 0.191943
H8    H     H_    0.065023 0.513636 0.608759 0.192146
H9    H     H_    0.789543 0.433829 0.999733 0.179199
H10   H     H_    0.433832 0.210457 0.000308 0.179179
H11   H     H_    0.210457 0.566169 0.999624 0.179199
H12   H     H_    0.434976 0.013634 0.891241 0.192148
H13   H     H_    0.566166 0.789542 0.000436 0.179180
H14   H     H_    0.789539 0.566148 0.998735 0.179175
H15   H     H_    0.433846 0.789542 0.001067 0.179204
H16   H     H_    0.210461 0.433847 0.998900 0.179175
H17   H     H_    0.566149 0.210459 0.001198 0.179210
H18   H     H_    0.289598 0.933885 0.501419 0.179816
H19   H     H_    0.933842 0.710459 0.499127 0.179202
H20   H     H_    0.710458 0.066163 0.500699 0.179177
H21   H     H_    0.066156 0.289538 0.498958 0.179334
H22   H     H_    0.289591 0.066113 0.498533 0.179955
H23   H     H_    0.013613 0.565044 0.891227 0.191944
H24   H     H_    0.933835 0.289544 0.499523 0.179188
H25   H     H_    0.710459 0.933838 0.500837 0.179207
H26   H     H_    0.066163 0.710457 0.499373 0.179190
H27   H     H_    0.943356 0.398122 0.775631 0.393649
H28   H     H_    0.398156 0.056626 0.775633 0.393616
H29   H     H_    0.056571 0.601891 0.775594 0.393669
H30   H     H_    0.601916 0.943392 0.775595 0.393609
H31   H     H_    0.943420 0.601894 0.224401 0.393634
H32   H     H_    0.398081 0.943392 0.224402 0.393697
H33   H     H_    0.056648 0.398123 0.224368 0.393675
H34   H     H_    0.565059 0.986375 0.891223 0.192130
H35   H     H_    0.601847 0.056623 0.224366 0.393710
H36   H     H_    0.443340 0.898127 0.275633 0.393637
H37   H     H_    0.898156 0.556639 0.275638 0.393700
H38   H     H_    0.556587 0.101887 0.275598 0.393630
H39   H     H_    0.101916 0.443379 0.275601 0.393711
H40   H     H_    0.443421 0.101892 0.724403 0.393702
H41   H     H_    0.898085 0.443380 0.724400 0.393608
H42   H     H_    0.556649 0.898124 0.724368 0.393690
H43   H     H_    0.101844 0.556635 0.724364 0.393609
H44   H     H_    0.712373 0.358997 0.007365 0.361685
H45   H     H_    0.986386 0.565045 0.108773 0.192146
H46   H     H_    0.358995 0.287625 0.992739 0.361677
H47   H     H_    0.287617 0.641024 0.007114 0.361689
H48   H     H_    0.641029 0.712373 0.993008 0.361634
H49   H     H_    0.712367 0.641132 0.005235 0.361654
H50   H     H_    0.358893 0.712372 0.994346 0.361708
H51   H     H_    0.287623 0.358881 0.005565 0.361699
H52   H     H_    0.641127 0.287628 0.994627 0.361712
H53   H     H_    0.212999 0.858551 0.495521 0.361705
H54   H     H_    0.858913 0.787631 0.506072 0.361657
H55   H     H_    0.787627 0.141065 0.493564 0.361737
H56   H     H_    0.434940 0.986378 0.108776 0.191938
H57   H     H_    0.141093 0.212347 0.505744 0.360979
H58   H     H_    0.212948 0.141424 0.504463 0.361090
H59   H     H_    0.858962 0.212379 0.506897 0.361719
H60   H     H_    0.787631 0.858916 0.493846 0.361658
H61   H     H_    0.141050 0.787626 0.506586 0.361607
H62   H     H_    0.013638 0.434957 0.108763 0.192145
H63   H     H_    0.565024 0.013630 0.108759 0.191960
H64   H     H_    0.486355 0.934958 0.391237 0.192140
N1    N     N_R   0.974300 0.525550 0.767131 -0.114807
N2    N     N_R   0.974483 0.474336 0.267130 -0.114768
N3    N     N_R   0.525629 0.974448 0.267116 -0.114696
N4    N     N_R   0.025586 0.525666 0.267116 -0.114799
N5    N     N_R   0.474368 0.974450 0.732884 -0.114809
N6    N     N_R   0.974414 0.525664 0.732884 -0.114725
N7    N     N_R   0.525699 0.025552 0.732870 -0.114838
N8    N     N_R   0.025517 0.474336 0.732869 -0.114787
N9    N     N_R   0.474484 0.974336 0.767130 -0.114741
N10   N     N_R   0.025633 0.474450 0.767116 -0.114846
N11   N     N_R   0.525585 0.025666 0.767116 -0.114729
N12   N     N_R   0.974368 0.474451 0.232884 -0.114716
N13   N     N_R   0.474416 0.025667 0.232884 -0.114827
N14   N     N_R   0.025700 0.525551 0.232870 -0.114703
N15   N     N_R   0.525514 0.974333 0.232870 -0.114804
N16   N     N_R   0.474302 0.025553 0.267130 -0.114798
O1    O     O_R   0.940210 0.534570 0.999910 -0.494918
O2    O     O_R   0.034570 0.559790 0.499910 -0.494930
O3    O     O_R   0.385247 0.270452 0.991125 -0.673663
O4    O     O_2   0.327945 0.583219 0.988006 -0.486187
O5    O     O_R   0.270444 0.614775 0.008757 -0.673808
O6    O     O_2   0.583196 0.672058 0.012081 -0.486269
O7    O     O_R   0.614782 0.729546 0.991344 -0.673652
O8    O     O_2   0.672061 0.582970 0.986878 -0.486162
O9    O     O_R   0.729540 0.614918 0.007222 -0.673654
O10   O     O_2   0.416970 0.672056 0.012868 -0.486073
O11   O     O_R   0.385115 0.729545 0.992435 -0.673816
O12   O     O_2   0.327951 0.416988 0.987101 -0.486119
O13   O     O_R   0.559790 0.965430 0.499910 -0.494904
O14   O     O_R   0.270449 0.385102 0.007495 -0.673653
O15   O     O_2   0.582981 0.327945 0.013029 -0.486065
O16   O     O_R   0.614911 0.270454 0.992665 -0.673808
O17   O     O_2   0.171690 0.917086 0.511279 -0.487787
O18   O     O_R   0.230176 0.884763 0.493515 -0.673848
O19   O     O_2   0.916924 0.827942 0.487371 -0.486143
O20   O     O_R   0.885142 0.770457 0.507907 -0.673830
O21   O     O_2   0.827936 0.083134 0.512412 -0.486154
O22   O     O_R   0.770455 0.114827 0.491801 -0.673632
O23   O     O_2   0.083037 0.172069 0.487117 -0.481782
O24   O     O_R   0.965430 0.440210 0.499910 -0.494926
O25   O     O_R   0.114870 0.229521 0.507646 -0.674885
O26   O     O_2   0.171722 0.082897 0.488551 -0.483768
O27   O     O_R   0.230124 0.115215 0.506486 -0.674921
O28   O     O_2   0.916812 0.172057 0.487872 -0.485855
O29   O     O_R   0.885207 0.229552 0.508575 -0.673783
O30   O     O_2   0.827936 0.916903 0.512584 -0.486212
O31   O     O_R   0.770458 0.885149 0.492031 -0.673792
O32   O     O_2   0.083153 0.827942 0.487680 -0.485430
O33   O     O_R   0.114810 0.770453 0.508325 -0.673828
O34   O     O_R   0.440210 0.965430 0.500090 -0.494926
O35   O     O_R   0.034570 0.440210 0.500090 -0.494902
O36   O     O_R   0.559790 0.034570 0.500090 -0.494926
O37   O     O_R   0.965430 0.559790 0.500090 -0.494906
O38   O     O_R   0.000050 0.534570 0.950000 -0.502529
O39   O     O_R   0.534570 0.999950 0.950000 -0.502217
O40   O     O_R   0.999950 0.465430 0.950000 -0.502533
O41   O     O_R   0.534570 0.059790 0.999910 -0.494902
O42   O     O_R   0.465430 0.000050 0.950000 -0.502222
O43   O     O_R   0.000050 0.465430 0.050000 -0.502209
O44   O     O_R   0.534570 0.000050 0.050000 -0.502520
O45   O     O_R   0.999950 0.534570 0.050000 -0.502213
O46   O     O_R   0.465430 0.999950 0.050000 -0.502521
O47   O     O_R   0.500050 0.034570 0.450000 -0.502369
O48   O     O_R   0.034570 0.499950 0.450000 -0.502504
O49   O     O_R   0.499950 0.965430 0.450000 -0.502193
O50   O     O_R   0.965430 0.500050 0.450000 -0.502510
O51   O     O_R   0.500050 0.965430 0.550000 -0.502531
O52   O     O_R   0.059790 0.465430 0.999910 -0.494924
O53   O     O_R   0.034570 0.500050 0.550000 -0.502240
O54   O     O_R   0.499950 0.034570 0.550000 -0.502406
O55   O     O_R   0.965430 0.499950 0.550000 -0.502225
O56   O     O_R   0.500080 0.440100 0.971010 -0.500369
O57   O     O_R   0.440100 0.499920 0.971010 -0.493199
O58   O     O_R   0.499920 0.559900 0.971010 -0.500350
O59   O     O_R   0.559900 0.500080 0.971010 -0.493230
O60   O     O_R   0.500080 0.559900 0.028990 -0.493212
O61   O     O_R   0.440100 0.500080 0.028990 -0.500361
O62   O     O_R   0.499920 0.440100 0.028990 -0.493196
O63   O     O_R   0.465430 0.940210 0.999910 -0.494904
O64   O     O_R   0.559900 0.499920 0.028990 -0.500326
O65   O     O_R   0.000080 0.940100 0.471010 -0.493253
O66   O     O_R   0.940100 0.999920 0.471010 -0.500542
O67   O     O_R   0.999920 0.059900 0.471010 -0.491240
O68   O     O_R   0.059900 0.000080 0.471010 -0.494777
O69   O     O_R   0.000080 0.059900 0.528990 -0.502398
O70   O     O_R   0.940100 0.000080 0.528990 -0.492995
O71   O     O_R   0.999920 0.940100 0.528990 -0.500267
O72   O     O_R   0.059900 0.999920 0.528990 -0.499098
O73   O     O_2   0.018091 0.396729 0.806294 -0.214962
O74   O     O_R   0.940210 0.465430 0.000090 -0.494913
O75   O     O_2   0.959265 0.386072 0.845126 -0.244958
O76   O     O_3   0.946002 0.424994 0.787753 -0.487280
O77   O     O_2   0.396763 0.981884 0.806318 -0.214796
O78   O     O_2   0.386099 0.040717 0.845130 -0.244247
O79   O     O_3   0.425028 0.053972 0.787745 -0.487096
O80   O     O_2   0.981836 0.603268 0.806305 -0.214858
O81   O     O_2   0.040668 0.613940 0.845097 -0.244952
O82   O     O_3   0.053927 0.575018 0.787716 -0.487281
O83   O     O_2   0.603299 0.018128 0.806282 -0.214765
O84   O     O_2   0.613957 0.959299 0.845094 -0.244181
O85   O     O_R   0.534570 0.940210 0.000090 -0.494926
O86   O     O_3   0.575043 0.946036 0.787724 -0.487124
O87   O     O_2   0.018162 0.603269 0.193696 -0.214660
O88   O     O_2   0.959330 0.613940 0.154904 -0.244155
O89   O     O_3   0.946072 0.575018 0.212285 -0.487096
O90   O     O_2   0.396702 0.018131 0.193718 -0.214825
O91   O     O_2   0.386042 0.959303 0.154906 -0.244844
O92   O     O_3   0.424954 0.946038 0.212276 -0.487274
O93   O     O_2   0.981911 0.396729 0.193705 -0.214635
O94   O     O_2   0.040737 0.386073 0.154873 -0.244087
O95   O     O_3   0.053999 0.424995 0.212246 -0.487087
O96   O     O_R   0.059790 0.534570 0.000090 -0.494911
O97   O     O_2   0.603236 0.981878 0.193682 -0.214775
O98   O     O_2   0.613903 0.040711 0.154871 -0.244886
O99   O     O_3   0.574974 0.053967 0.212255 -0.487261
O100  O     O_2   0.518078 0.896726 0.306294 -0.214671
O101  O     O_2   0.459251 0.886077 0.345126 -0.244191
O102  O     O_3   0.445993 0.925000 0.287753 -0.487165
O103  O     O_2   0.896762 0.481888 0.306317 -0.214747
O104  O     O_2   0.886100 0.540721 0.345130 -0.244901
O105  O     O_3   0.925031 0.553975 0.287746 -0.487253
O106  O     O_2   0.481847 0.103270 0.306305 -0.214959
O107  O     O_R   0.465430 0.059790 0.000090 -0.494934
O108  O     O_2   0.540680 0.113935 0.345097 -0.244221
O109  O     O_3   0.553934 0.075012 0.287716 -0.487033
O110  O     O_2   0.103299 0.518123 0.306281 -0.214802
O111  O     O_2   0.113955 0.459295 0.345094 -0.244787
O112  O     O_3   0.075041 0.446033 0.287724 -0.487204
O113  O     O_2   0.518160 0.103270 0.693695 -0.214898
O114  O     O_2   0.459328 0.113939 0.654904 -0.244433
O115  O     O_3   0.446071 0.075017 0.712285 -0.487189
O116  O     O_2   0.896700 0.518122 0.693718 -0.214720
O117  O     O_2   0.886046 0.459293 0.654906 -0.244221
O118  O     O_R   0.440210 0.034570 0.499910 -0.494915
O119  O     O_3   0.924960 0.446031 0.712275 -0.487186
O120  O     O_2   0.481913 0.896729 0.693705 -0.214833
O121  O     O_2   0.540739 0.886074 0.654873 -0.244903
O122  O     O_3   0.554000 0.924996 0.712247 -0.487297
O123  O     O_2   0.103238 0.481887 0.693682 -0.214801
O124  O     O_2   0.113899 0.540721 0.654871 -0.244241
O125  O     O_3   0.074969 0.553974 0.712255 -0.487124
O126  O     O_2   0.672068 0.416744 0.988126 -0.486194
O127  O     O_R   0.729544 0.385251 0.008957 -0.673809
O128  O     O_2   0.416759 0.327942 0.011919 -0.486208
S1    S     S_3+6 0.979074 0.415802 0.820289 0.061062
S2    S     S_3+6 0.915833 0.520907 0.320294 0.061186
S3    S     S_3+6 0.520868 0.084202 0.320273 0.061535
S4    S     S_3+6 0.084227 0.479105 0.320268 0.061243
S5    S     S_3+6 0.479138 0.084204 0.679727 0.061354
S6    S     S_3+6 0.915773 0.479103 0.679732 0.061589
S7    S     S_3+6 0.520929 0.915803 0.679711 0.061141
S8    S     S_3+6 0.084166 0.520906 0.679706 0.061572
S9    S     S_3+6 0.415832 0.020904 0.820294 0.061587
S10   S     S_3+6 0.020859 0.584204 0.820273 0.061104
S11   S     S_3+6 0.584228 0.979108 0.820268 0.061621
S12   S     S_3+6 0.979139 0.584204 0.179727 0.061682
S13   S     S_3+6 0.415771 0.979111 0.179732 0.061177
S14   S     S_3+6 0.020927 0.415803 0.179711 0.061729
S15   S     S_3+6 0.584168 0.020899 0.179706 0.061177
S16   S     S_3+6 0.479064 0.915804 0.320289 0.061609

loop_
_geom_bond_atom_site_label_1
_geom_bond_atom_site_label_2
_ccdc_geom_bond_type
C12   S5    S    
C16   C173  A    
C160  H34   S    
C74   O9    S    
C141  O60   A    
O109  S3    S    
O110  S4    D    
C33   C156  S    
C105  C131  T    
H33   O95   S    
C27   C158  A    
C106  C132  T    
C12   C23   A    
C45   C57   A    
C56   C79   A    
H59   O29   S    
C24   C98   A    
C76   O14   S    
N7    N11   A    
H37   O105  S    
C147  O68   A    
C39   N15   A    
Cu1   Cu6   S    
C159  H23   S    
C166  H14   S    
C36   N7    A    
N1    N6    A    
H30   O86   S    
H61   O33   S    
C111  C125  S    
H38   O109  S    
C158  H12   S    
H60   O31   S    
C152  O49   A    
C97   C115  S    
H40   O115  S    
C142  O59   A    
C78   O17   D    
C25   C34   S    
Cu2   Cu12  S    
C119  C128  T    
O93   S14   D    
C46   C98   A    
C122  O34   A    
C96   C114  S    
O108  S3    D    
O78   S9    D    
H41   O119  S    
Cu5   Cu7   S    
C10   C21   A    
C76   O12   D    
C72   O5    S    
C112  C138  T    
Cu11  O37   S    
C61   C104  S    
C47   C64   A    
Cu2   O60   S    
Cu3   O68   S    
O84   S11   D    
C100  C124  S    
H55   O22   S    
H49   O9    S    
C55   C92   A    
C153  O48   A    
C50   C76   S    
C107  C134  T    
C41   N11   A    
Cu7   O63   S    
C146  O69   A    
Cu10  O49   S    
C7    S15   S    
C143  O65   A    
C26   C148  S    
C128  C144  S    
Cu9   O2    S    
Cu8   O36   S    
C32   C154  S    
C31   C167  A    
C11   C169  A    
C176  S10   S    
O80   S10   D    
N5    N9    A    
O83   S11   D    
C95   C166  A    
C91   H18   S    
C43   C61   A    
C56   C83   S    
C7    C164  A    
C79   C99   A    
C16   C25   A    
Cu6   O74   S    
Cu9   O35   S    
Cu8   O118  S    
C89   O107  A    
C142  O64   A    
C170  H5    S    
C88   C102  A    
C39   N13   A    
Cu2   O64   S    
C11   S4    S    
O89   S12   S    
H28   O79   S    
C2    C96   A    
C134  C141  S    
C69   C112  S    
C45   C63   A    
C15   C172  A    
C77   O16   S    
C13   C97   A    
O97   S15   D    
O95   S14   S    
C82   O23   D    
C149  O39   A    
C161  H45   S    
C6    C163  A    
C10   C168  A    
C23   C36   S    
Cu5   O44   S    
C155  O35   A    
C144  O13   A    
C4    C161  A    
O112  S4    S    
C81   O22   S    
C54   C81   S    
C102  C119  S    
C79   H22   S    
C90   H24   S    
Cu8   O47   S    
O77   S9    D    
Cu3   O66   S    
C5    C20   A    
C6    C19   A    
C34   N6    A    
C6    S14   S    
Cu6   O52   S    
Cu12  O57   S    
Cu8   O54   S    
C101  C118  S    
C145  O66   A    
C136  C143  S    
C153  O50   A    
Cu4   O69   S    
Cu9   Cu11  S    
C1    O1    A    
H32   O92   S    
C111  O85   A    
C111  O63   A    
Cu11  O24   S    
C59   C67   A    
C87   C101  A    
O91   S13   D    
C46   H13   S    
C21   C38   S    
H27   O76   S    
C49   C75   S    
C35   C43   A    
C3    S11   S    
C157  C174  A    
C16   S8    S    
N2    N12   A    
C14   C25   A    
C49   C64   A    
C57   H11   S    
C15   S7    S    
C50   C63   A    
Cu10  O34   S    
C51   C62   A    
O102  S16   S    
C28   C161  A    
C10   S3    S    
Cu2   O62   S    
C149  O42   A    
C8    S16   S    
C80   O20   S    
C88   H25   S    
C120  C129  T    
C53   C80   S    
Cu1   O45   S    
C108  C135  T    
C145  O70   A    
O79   S9    S    
Cu11  O55   S    
C36   N5    A    
C147  O72   A    
C59   C85   S    
Cu10  O13   S    
C99   C117  S    
C67   C110  S    
C30   C152  S    
C73   O6    D    
C37   N4    A    
H36   O102  S    
C173  H8    S    
C34   N8    A    
C55   C69   A    
O75   S1    D    
H54   O20   S    
C71   O128  D    
H31   O89   S    
O104  S2    D    
C114  C123  T    
C37   N2    A    
Cu1   O96   S    
C135  C147  S    
C159  C176  A    
C118  C127  T    
C162  H56   S    
C154  O54   A    
C139  O56   A    
C35   H9    S    
C84   O29   S    
C117  C126  T    
C65   C108  S    
Cu12  O59   S    
C53   C94   A    
Cu6   O43   S    
C29   C162  A    
C163  H62   S    
C30   C165  A    
C14   C171  A    
C52   C91   A    
Cu1   O1    S    
Cu4   O71   S    
C154  O51   A    
C116  C125  T    
C133  O2    A    
C85   O31   S    
N3    N15   A    
C138  C146  S    
C86   O32   D    
C87   H26   S    
H43   O125  S    
C32   C172  A    
C130  C142  S    
C1    C121  S    
C131  C139  S    
C8    C165  A    
C52   C65   A    
C13   C50   A    
C158  C175  A    
C113  C121  T    
C5    S13   S    
H52   O16   S    
C91   C99   A    
C93   H20   S    
C81   O21   D    
C78   O18   S    
C175  S9    S    
C28   C163  A    
C40   N14   A    
C24   H15   S    
Cu5   O41   S    
C155  O24   A    
C165  H64   S    
O125  S8    S    
C103  C120  S    
C156  O53   A    
H46   O3    S    
C68   C96   A    
C152  O47   A    
C137  C145  S    
C70   O126  D    
C83   O26   D    
Cu3   O67   S    
H58   O27   S    
Cu12  O56   S    
O119  S6    S    
Cu1   O38   S    
Cu7   O46   S    
C17   C42   S    
C54   C93   A    
N4    N14   A    
H39   O112  S    
O92   S13   S    
C14   S6    S    
C38   N3    A    
C60   C66   A    
C104  C130  T    
C29   C164  A    
O81   S10   D    
C52   C78   S    
H51   O14   S    
C75   O10   D    
C47   C73   S    
C29   C151  S    
C129  C155  S    
C20   C39   S    
C148  O38   A    
C31   C169  A    
C42   N1    A    
C22   C37   S    
C122  O118  A    
C146  O67   A    
H50   O11   S    
C51   C77   S    
C48   C74   S    
C26   C159  A    
C77   O15   D    
C63   C106  S    
C58   C90   A    
O90   S13   D    
O124  S8    D    
O115  S5    S    
H47   O5    S    
C33   C171  A    
O76   S1    S    
C156  O55   A    
C17   C174  A    
C46   C47   A    
Cu9   O48   S    
C143  O71   A    
C115  C124  T    
Cu5   O85   S    
C110  C137  T    
C94   H19   S    
C127  C133  S    
C82   O25   S    
C93   C102  A    
Cu3   O65   S    
C58   C69   A    
C84   O28   D    
C35   C95   A    
C132  C140  S    
O87   S12   D    
C13   H16   S    
Cu12  O58   S    
H48   O7    S    
C5    C162  A    
C41   N9    A    
O105  S2    S    
C30   C168  A    
Cu4   O70   S    
Cu8   Cu10  S    
C66   C109  S    
C90   C103  A    
C100  O96   A    
C2    C51   A    
Cu3   Cu4   S    
C48   C166  A    
C7    C20   A    
O100  S16   D    
C172  H7    S    
O99   S15   S    
Cu9   O53   S    
C151  O46   A    
C28   C150  S    
C150  O43   A    
C42   N10   A    
C44   C71   S    
C148  O40   A    
C62   C105  S    
H35   O99   S    
O88   S12   D    
O122  S7    S    
C168  H3    S    
C3    C18   A    
C95   C113  S    
C9    C22   A    
C56   C65   A    
C26   C157  A    
C68   H10   S    
C1    O74   A    
C38   N16   A    
C59   C88   A    
O98   S15   D    
C92   C103  A    
C4    C19   A    
C83   O27   S    
Cu7   O42   S    
C94   C101  A    
H57   O25   S    
O94   S14   D    
O111  S4    D    
C9    S2    S    
O121  S7    D    
H53   O18   S    
C33   C173  A    
C17   C176  A    
C18   C175  A    
C144  O36   A    
C150  O45   A    
C15   C23   A    
O103  S2    D    
C57   C97   A    
C151  O44   A    
C27   C149  S    
Cu7   O107  S    
C109  C136  T    
C92   H21   S    
C171  H6    S    
C31   C153  S    
C60   C87   A    
O86   S11   S    
C141  O58   A    
C9    C167  A    
C164  H63   S    
N8    N10   A    
O106  S3    D    
C19   C40   S    
C18   C41   S    
O73   S1    D    
H29   O82   S    
Cu4   O72   S    
C12   C170  A    
C54   C67   A    
C89   C123  S    
C44   C62   A    
C27   C160  A    
C174  S1    S    
C75   O11   S    
C122  C126  S    
C58   C84   S    
C98   C116  S    
C85   O30   D    
H44   O127  S    
C140  O57   A    
C86   O33   S    
H42   O122  S    
C8    C21   A    
C2    H17   S    
C140  O61   A    
C55   C82   S    
C53   C66   A    
C133  O37   A    
O117  S6    D    
C100  O52   A    
C43   C70   S    
C3    C160  A    
C44   C68   A    
O101  S16   D    
C64   C107  S    
C60   C86   S    
Cu2   O61   S    
C24   C49   A    
C167  H2    S    
C32   C170  A    
C80   O19   D    
O120  S7    D    
O82   S10   S    
C89   O41   A    
C11   C22   A    
O123  S8    D    
C70   O127  S    
O113  S5    D    
C40   N12   A    
O116  S6    D    
C48   C61   A    
C73   O7    S    
Cu5   O39   S    
C74   O8    D    
Cu6   O40   S    
C4    S12   S    
N13   N16   A    
C157  H1    S    
O114  S5    D    
C71   O3    S    
Cu10  O51   S    
C72   O4    D    
Cu11  O50   S    
C169  H4    S    
C45   C72   S    
C139  O62   A    
