data_mof_unit_67918.cif
_audit_creation_date              2012-12-10T18:59:53-0500
_audit_creation_method            fapswitch 2.2
_symmetry_space_group_name_H-M    P1
_symmetry_Int_Tables_number       1
_space_group_crystal_system       triclinic
_cell_length_a                    10.819099
_cell_length_b                    10.620618
_cell_length_c                    9.977972
_cell_angle_alpha                 87.329552
_cell_angle_beta                  91.535097
_cell_angle_gamma                 90.731372
_cell_volume                      1144.79177634

loop_
_atom_site_label
_atom_site_type_symbol
_atom_type_description
_atom_site_fract_x
_atom_site_fract_y
_atom_site_fract_z
_atom_type_partial_charge
C1    C     C_R   0.500414 0.260639 0.502286 0.913068
C2    C     C_R   0.498690 0.739402 0.497944 0.893274
C3    C     C_R   0.872295 0.498795 0.505205 -0.051143
C4    C     C_R   0.127174 0.497200 0.494650 -0.059568
C5    C     C_R   0.942679 0.467787 0.622866 0.073624
C6    C     C_R   0.056336 0.525581 0.376447 0.079718
C7    C     C_R   0.602697 0.067794 0.450002 0.098807
C8    C     C_R   0.397966 0.932975 0.554229 0.094268
C9    C     C_R   0.598490 0.937958 0.445841 -0.117443
C10   C     C_R   0.401406 0.062183 0.556709 -0.026379
C11   C     C_R   0.496234 0.872108 0.495725 -0.058490
C12   C     C_R   0.503161 0.128038 0.505927 -0.058940
C13   C     C_R   0.543056 0.603000 0.063899 0.443113
C14   C     C_R   0.457994 0.396772 0.936173 0.424892
C15   C     C_R   0.539723 0.602050 0.921839 -0.202846
C16   C     C_R   0.459890 0.398067 0.078163 -0.243288
C17   C     C_R   0.260130 0.499829 0.497906 0.869337
C18   C     C_R   0.739671 0.498883 0.502108 0.889088
C19   C     C_R   0.185190 0.706805 0.073713 0.567500
C20   C     C_R   0.819416 0.272834 0.921364 0.473318
C21   C     C_R   0.129700 0.680247 0.197981 -0.021996
C22   C     C_R   0.868478 0.304016 0.794291 -0.015326
C23   C     C_R   0.107997 0.553572 0.242265 -0.130434
C24   C     C_R   0.889941 0.432929 0.755181 -0.098002
C25   C     C_R   0.127878 0.455562 0.154557 0.519350
C26   C     C_R   0.869090 0.527685 0.846998 0.416727
C27   C     C_R   0.174460 0.485156 0.027367 -0.313146
C28   C     C_R   0.826372 0.493017 0.974737 -0.317070
C29   C     C_R   0.206648 0.608668 0.989069 -0.376830
C30   C     C_R   0.800343 0.367573 0.010959 -0.284211
C31   C     C_R   0.929946 0.528357 0.384223 -0.132837
C32   C     C_R   0.069425 0.466821 0.615635 -0.195562
H1    H     H_    0.247675 0.627709 0.892357 0.186369
H2    H     H_    0.765151 0.344576 0.109762 0.222825
H3    H     H_    0.570008 0.683232 0.862055 0.252126
H4    H     H_    0.427674 0.317536 0.137894 0.254512
H5    H     H_    0.188655 0.411841 0.958187 0.234481
H6    H     H_    0.811028 0.563903 0.046556 0.220178
H7    H     H_    0.876781 0.551615 0.293064 0.189697
H8    H     H_    0.122638 0.443334 0.706691 0.193787
H9    H     H_    0.675242 0.888232 0.406369 0.197668
H10   H     H_    0.324197 0.111107 0.596311 0.201179
N1    N     N_R   0.499970 0.499970 0.857200 -0.173994
N2    N     N_R   0.500030 0.500030 0.142800 -0.169853
O1    O     O_R   0.499990 0.316750 0.614620 -0.535309
O2    O     O_R   0.500010 0.683250 0.385380 -0.525085
O3    O     O_R   0.499990 0.316780 0.385290 -0.608144
O4    O     O_R   0.500010 0.683220 0.614710 -0.631805
O5    O     O_R   0.316760 0.500000 0.614660 -0.606529
O6    O     O_R   0.683240 0.500000 0.385340 -0.596910
O7    O     O_R   0.316760 0.500020 0.385330 -0.609597
O8    O     O_R   0.683240 0.499980 0.614670 -0.607652
Zn1   Zn    Zn3+2 0.500000 0.499980 0.653120 1.035711
Zn2   Zn    Zn3+2 0.500000 0.500020 0.346880 1.049336
S1    S     S_3+6 0.226664 0.862107 0.020777 0.073355
O9    O     O_2   0.342103 0.860631 0.940580 -0.270564
O10   O     O_2   0.124444 0.917868 0.933033 -0.251713
O11   O     O_3   0.252740 0.951848 0.153614 -0.474137
H11   H     H_    0.175062 0.998183 0.164253 0.418486
S2    S     S_3+6 0.781852 0.114943 0.970420 0.141062
O12   O     O_2   0.722946 0.049037 0.854461 -0.179072
O13   O     O_2   0.897747 0.046589 0.013968 -0.150155
O14   O     O_3   0.684874 0.109923 0.099418 -0.539045
H12   H     H_    0.610371 0.155555 0.065530 0.371363
N3    N     N_3   0.090982 0.781944 0.275859 -0.387147
H13   H     H_    0.994796 0.777048 0.282785 0.238245
H14   H     H_    0.129470 0.770047 0.372301 0.196648
N4    N     N_3   0.897540 0.203459 0.708720 -0.386821
H15   H     H_    0.923735 0.236402 0.613507 0.183673
H16   H     H_    0.974016 0.156428 0.752173 0.260433
S3    S     S_3+6 0.099058 0.295114 0.200999 0.016088
O15   O     O_2   0.080452 0.221776 0.077035 -0.282548
O16   O     O_2   0.209200 0.244689 0.280302 -0.307766
O17   O     O_3   0.972465 0.276793 0.294253 -0.585335
H17   H     H_    0.978897 0.190869 0.336628 0.381093
S4    S     S_3+6 0.889367 0.690905 0.804612 0.069673
O18   O     O_2   0.773079 0.739594 0.736154 -0.239589
O19   O     O_2   0.912422 0.761426 0.930083 -0.210028
O20   O     O_3   0.006838 0.719855 0.700132 -0.546769
H18   H     H_    0.082546 0.715793 0.757767 0.362399
N5    N     N_3   0.706071 0.139058 0.397730 -0.389573
H19   H     H_    0.748509 0.184804 0.477401 0.176345
H20   H     H_    0.772036 0.078769 0.361958 0.239502
N6    N     N_3   0.294503 0.865863 0.610819 -0.391240
H21   H     H_    0.258983 0.804714 0.540382 0.159123
H22   H     H_    0.325896 0.810865 0.693876 0.244311
S5    S     S_3+6 0.608190 0.742518 0.128274 0.074342
O21   O     O_2   0.698267 0.713300 0.241797 -0.342820
O22   O     O_2   0.676480 0.815141 0.020108 -0.188728
O23   O     O_3   0.494208 0.834236 0.177966 -0.481110
H23   H     H_    0.524702 0.921987 0.163748 0.422815
S6    S     S_3+6 0.394265 0.257347 0.871664 0.018240
O24   O     O_2   0.304088 0.287276 0.758277 -0.362405
O25   O     O_2   0.495601 0.175245 0.826729 -0.256802
O26   O     O_3   0.318564 0.175012 0.991751 -0.492336
H24   H     H_    0.255000 0.126784 0.942096 0.442941

loop_
_geom_bond_atom_site_label_1
_geom_bond_atom_site_label_2
_ccdc_geom_bond_type
S1    O9    D    
C10   H10   S    
O26   H24   S    
S4    O20   S    
S5    O21   D    
C17   O7    A    
N5    H19   S    
C18   O8    A    
C20   C30   A    
C2    O2    A    
O6    Zn2   S    
S2    O14   S    
S4    O19   D    
C19   C21   A    
N6    H22   S    
C27   C29   A    
C29   H1    S    
C3    C18   S    
S2    O13   D    
N1    Zn1   S    
N4    H15   S    
N3    H14   S    
C26   S4    S    
C25   S3    S    
C20   S2    S    
C16   N2    A    
C5    C32   A    
C23   C25   A    
C6    C31   A    
O1    Zn1   S    
O2    Zn2   S    
C7    C12   A    
C1    C12   S    
C2    C11   S    
C15   H3    S    
N5    H20   S    
O4    Zn1   S    
O17   H17   S    
C30   H2    S    
S4    O18   D    
C4    C6    A    
C17   O5    A    
S3    O16   D    
C1    O3    A    
C2    O4    A    
O11   H11   S    
S6    O26   S    
O14   H12   S    
S2    O12   D    
C13   C15   A    
C28   H6    S    
C22   N4    S    
C13   S5    S    
S6    O25   D    
N6    H21   S    
C3    C31   A    
C9    C11   A    
C14   S6    S    
C4    C32   A    
C10   C12   A    
O3    Zn2   S    
C4    C17   S    
C8    C10   A    
C7    N5    S    
C20   C22   A    
C21   C23   A    
C14   C16   A    
S1    O11   S    
C19   C29   A    
O8    Zn1   S    
C18   O6    A    
C19   S1    S    
C7    C9    A    
C21   N3    S    
C8    N6    S    
C9    H9    S    
C24   C26   A    
C3    C5    A    
S3    O17   S    
C25   C27   A    
C26   C28   A    
O7    Zn2   S    
S1    O10   D    
C15   N1    A    
S3    O15   D    
C16   H4    S    
C1    O1    A    
O23   H23   S    
C5    C24   S    
C27   H5    S    
C8    C11   A    
O5    Zn1   S    
C6    C23   S    
C28   C30   A    
S6    O24   D    
C31   H7    S    
C22   C24   A    
C32   H8    S    
O20   H18   S    
N2    Zn2   S    
N4    H16   S    
N3    H13   S    
S5    O23   S    
S5    O22   D    
C13   N2    A    
C14   N1    A    
