data_mof_unit_23182.cif
_audit_creation_date              2012-12-10T19:43:27-0500
_audit_creation_method            fapswitch 2.2
_symmetry_space_group_name_H-M    P1
_symmetry_Int_Tables_number       1
_space_group_crystal_system       triclinic
_cell_length_a                    10.892899
_cell_length_b                    10.862555
_cell_length_c                    9.647855
_cell_angle_alpha                 92.080423
_cell_angle_beta                  90.674766
_cell_angle_gamma                 93.375406
_cell_volume                      1138.73733265

loop_
_atom_site_label
_atom_site_type_symbol
_atom_type_description
_atom_site_fract_x
_atom_site_fract_y
_atom_site_fract_z
_atom_type_partial_charge
C1    C     C_R   0.490761 0.262640 0.497595 0.792485
C2    C     C_R   0.225640 0.689353 0.029778 -0.171245
C3    C     C_R   0.932538 0.522409 0.382335 -0.229611
C4    C     C_R   0.869779 0.487516 0.501040 -0.065224
C5    C     C_R   0.935306 0.447743 0.616668 0.018474
C6    C     C_R   0.063682 0.455877 0.614979 -0.245883
C7    C     C_R   0.126878 0.497070 0.498403 -0.100817
C8    C     C_R   0.059395 0.524745 0.379053 0.007020
C9    C     C_R   0.867036 0.457098 0.862424 -0.158330
C10   C     C_R   0.804460 0.406068 0.974333 -0.100433
C11   C     C_R   0.742547 0.290053 0.959330 -0.101583
C12   C     C_R   0.262151 0.500528 0.499465 0.776230
C13   C     C_R   0.745100 0.223240 0.833046 -0.156662
C14   C     C_R   0.810196 0.272058 0.721082 0.036016
C15   C     C_R   0.871576 0.390380 0.735408 0.064078
C16   C     C_R   0.358484 0.124662 0.710375 -0.169778
C17   C     C_R   0.343187 0.075294 0.840253 -0.137967
C18   C     C_R   0.394230 0.964686 0.867357 -0.160165
C19   C     C_R   0.446057 0.896132 0.761519 -0.196796
C20   C     C_R   0.458670 0.942312 0.626706 0.102000
C21   C     C_R   0.429833 0.065721 0.609228 0.102408
C22   C     C_R   0.476499 0.128173 0.493766 -0.118876
C23   C     C_R   0.501803 0.738281 0.503102 0.779473
C24   C     C_R   0.525486 0.062049 0.382913 -0.135918
C25   C     C_R   0.532638 0.935578 0.388507 -0.181908
C26   C     C_R   0.500782 0.873713 0.509458 -0.125165
C27   C     C_R   0.661650 0.668453 0.151270 -0.180467
C28   C     C_R   0.739631 0.751192 0.083015 -0.227572
C29   C     C_R   0.738497 0.751421 0.940073 -0.217124
C30   C     C_R   0.659940 0.668332 0.864387 -0.174047
C31   C     C_R   0.577430 0.584061 0.929409 0.209617
C32   C     C_R   0.577684 0.584114 0.078688 0.216600
C33   C     C_R   0.430007 0.416789 0.069540 -0.058194
C34   C     C_R   0.736761 0.495149 0.500621 0.786479
C35   C     C_R   0.429247 0.417627 0.922190 -0.059886
C36   C     C_R   0.209798 0.756529 0.153852 0.056152
C37   C     C_R   0.154736 0.698889 0.264579 -0.184706
C38   C     C_R   0.118634 0.573223 0.255605 0.083528
C39   C     C_R   0.138761 0.500377 0.133021 0.061291
C40   C     C_R   0.189341 0.563391 0.019041 -0.198604
Cu1   Cu    Cu3+1 0.499990 0.499990 0.640660 0.929605
Cu2   Cu    Cu3+1 0.500010 0.500010 0.359340 0.939737
H1    H     H_    0.267298 0.733337 0.941639 0.140945
H2    H     H_    0.693131 0.251592 0.045931 0.137612
H3    H     H_    0.697030 0.133055 0.822947 0.139024
H4    H     H_    0.559962 0.108307 0.292355 0.162058
H5    H     H_    0.316585 0.210120 0.690113 0.128166
H6    H     H_    0.296028 0.124825 0.920938 0.155532
H7    H     H_    0.393988 0.930014 0.969977 0.162764
H8    H     H_    0.481502 0.812005 0.793543 0.179700
H9    H     H_    0.566994 0.886644 0.298627 0.162932
H10   H     H_    0.372035 0.348701 0.120720 0.145151
H11   H     H_    0.673253 0.672998 0.260785 0.195554
H12   H     H_    0.802675 0.814539 0.141767 0.151494
H13   H     H_    0.800409 0.815080 0.887122 0.150056
H14   H     H_    0.668262 0.672828 0.755086 0.199810
H15   H     H_    0.368550 0.352061 0.864814 0.124511
H16   H     H_    0.140695 0.752007 0.360058 0.126848
H17   H     H_    0.205745 0.515408 0.921856 0.137022
H18   H     H_    0.883272 0.552441 0.292540 0.150402
H19   H     H_    0.115182 0.426118 0.702103 0.136084
H20   H     H_    0.913458 0.547822 0.875231 0.144906
H21   H     H_    0.803870 0.456639 0.072816 0.141656
N1    N     N_R   0.501190 0.501210 0.147910 -0.199182
N2    N     N_R   0.501230 0.501290 0.852040 -0.198189
O1    O     O_R   0.499990 0.319640 0.618810 -0.574178
O2    O     O_R   0.500000 0.319660 0.381240 -0.582813
O3    O     O_R   0.319640 0.500000 0.618780 -0.591638
O4    O     O_R   0.319650 0.500020 0.381210 -0.570167
O5    O     O_R   0.500000 0.680340 0.618760 -0.617364
O6    O     O_R   0.500010 0.680360 0.381190 -0.586747
O7    O     O_R   0.680350 0.499980 0.618790 -0.585517
O8    O     O_R   0.680360 0.500000 0.381220 -0.607782
C41   C     C_1   0.813752 0.199435 0.593013 0.181352
N3    N     N_1   0.816860 0.141387 0.490274 -0.307963
C42   C     C_1   0.251056 0.884220 0.172224 0.169123
N4    N     N_1   0.284497 0.986733 0.189736 -0.316422
C43   C     C_R   0.108579 0.362041 0.121120 0.067430
C44   C     C_R   0.114761 0.284843 0.235545 -0.119525
C45   C     C_R   0.074465 0.160284 0.224646 -0.081531
C46   C     C_R   0.034878 0.107292 0.097112 -0.095477
C47   C     C_R   0.038408 0.178451 0.980121 -0.136157
C48   C     C_R   0.075590 0.303762 0.992150 -0.169440
H22   H     H_    0.153653 0.317172 0.333299 0.128558
H23   H     H_    0.076920 0.104023 0.314893 0.141915
H24   H     H_    0.004936 0.010481 0.088296 0.121220
H25   H     H_    0.011320 0.136930 0.879888 0.134329
H26   H     H_    0.075254 0.354900 0.900078 0.119706

loop_
_geom_bond_atom_site_label_1
_geom_bond_atom_site_label_2
_ccdc_geom_bond_type
C12   O4    A    
C16   C21   A    
Cu2   N1    S    
Cu1   Cu2   S    
C19   C20   A    
C17   H6    S    
C46   C47   A    
C7    C8    A    
C33   H10   S    
C12   O3    A    
C45   H23   S    
C14   C41   S    
C6    H19   S    
C36   C37   A    
C37   C38   A    
C5    C6    A    
C35   N2    A    
C47   H25   S    
C18   C19   A    
C23   C26   S    
C36   C42   S    
C1    O2    A    
C43   C48   A    
C10   H21   S    
C16   C17   A    
C9    C10   A    
C37   H16   S    
C3    H18   S    
C48   H26   S    
C1    C22   S    
C40   H17   S    
C21   C22   A    
C44   H22   S    
C23   O5    A    
C8    C38   S    
C16   H5    S    
C1    O1    A    
Cu1   O3    S    
C7    C12   S    
C4    C34   S    
C41   N3    T    
C9    H20   S    
C39   C43   S    
C23   O6    A    
C42   N4    T    
C32   N1    A    
C3    C8    A    
C39   C40   A    
C28   H12   S    
C43   C44   A    
C4    C5    A    
Cu1   N2    S    
C29   H13   S    
C25   C26   A    
C30   H14   S    
Cu2   O4    S    
C25   H9    S    
C29   C30   A    
C31   C32   A    
C2    H1    S    
C17   C18   A    
C11   H2    S    
C24   C25   A    
Cu1   O1    S    
Cu1   O7    S    
Cu2   O2    S    
C22   C24   A    
C3    C4    A    
C34   O7    A    
C2    C36   A    
C31   N2    A    
C30   C31   A    
C28   C29   A    
Cu2   O8    S    
C27   C32   A    
C46   H24   S    
C45   C46   A    
C27   H11   S    
C6    C7    A    
C35   H15   S    
C24   H4    S    
C9    C15   A    
C13   H3    S    
C11   C13   A    
C19   H8    S    
C38   C39   A    
C20   C26   A    
C33   N1    A    
Cu2   O6    S    
C33   C35   A    
C5    C15   S    
C10   C11   A    
C34   O8    A    
C44   C45   A    
C2    C40   A    
C20   C21   A    
C47   C48   A    
C27   C28   A    
C14   C15   A    
C13   C14   A    
C18   H7    S    
Cu1   O5    S    
