data_mof_unit_27548.cif
_audit_creation_date              2012-10-26T18:30:20-0400
_audit_creation_method            fapswitch 2.2
_symmetry_space_group_name_H-M    P1
_symmetry_Int_Tables_number       1
_space_group_crystal_system       triclinic
_cell_length_a                    10.628939
_cell_length_b                    13.031527
_cell_length_c                    11.663467
_cell_angle_alpha                 101.370708
_cell_angle_beta                  93.344219
_cell_angle_gamma                 90.408423
_cell_volume                      1580.8291871

loop_
_atom_site_label
_atom_site_type_symbol
_atom_type_description
_atom_site_fract_x
_atom_site_fract_y
_atom_site_fract_z
_atom_type_partial_charge
C1    C     C_R   0.495655 0.298262 0.476524 0.539424
C2    C     C_R   0.616150 0.580751 0.856487 0.038235
C3    C     C_R   0.557787 0.536482 0.157235 0.042965
C4    C     C_R   0.442212 0.463518 0.842765 0.042968
C5    C     C_R   0.547577 0.531571 0.034383 0.005629
C6    C     C_R   0.452422 0.468426 0.965616 0.005632
C7    C     C_R   0.259112 0.499963 0.500709 0.554255
C8    C     C_R   0.740888 0.500037 0.499291 0.554253
C9    C     C_3   0.046860 0.506452 0.610862 -0.114668
C10   C     C_3   0.953140 0.493548 0.389137 -0.114669
C11   C     C_3   0.959479 0.417374 0.541606 -0.122881
C12   C     C_R   0.504347 0.701738 0.523476 0.539424
C13   C     C_3   0.040521 0.582626 0.458394 -0.122879
C14   C     C_3   0.877602 0.499935 0.498233 0.044889
C15   C     C_3   0.122397 0.500065 0.501767 0.044889
C16   C     C_3   0.962682 0.589010 0.567433 -0.126530
C17   C     C_3   0.037317 0.410991 0.432567 -0.126529
C18   C     C_R   0.509314 0.816842 0.540242 -0.004836
C19   C     C_R   0.490683 0.183157 0.459755 -0.004839
C20   C     C_R   0.454431 0.006683 0.346069 -0.113983
C21   C     C_R   0.545561 0.993316 0.653927 -0.113985
C22   C     C_R   0.456703 0.115202 0.349851 -0.011933
C23   C     C_R   0.520038 0.140785 0.559326 -0.148006
C24   C     C_R   0.543312 0.884798 0.650141 -0.011932
C25   C     C_3   0.578075 0.841984 0.760622 -0.237828
C26   C     C_3   0.619447 0.922821 0.871656 -0.324503
C27   C     C_3   0.652677 0.869697 0.974700 -0.464259
C28   C     C_3   0.421988 0.158018 0.239362 -0.237823
C29   C     C_3   0.380664 0.077183 0.128311 -0.324510
C30   C     C_3   0.347509 0.130311 0.025257 -0.464255
C31   C     C_R   0.479934 0.859215 0.440675 -0.148005
C32   C     C_R   0.516408 0.033570 0.553467 0.024279
C33   C     C_R   0.483571 0.966429 0.446532 0.024278
C34   C     C_R   0.370221 0.411968 0.021346 -0.182735
C35   C     C_R   0.629779 0.588026 0.978653 -0.182742
C36   C     C_R   0.383852 0.419244 0.143513 0.038241
Cu1   Cu    Cu3+1 0.509400 0.507730 0.615930 0.916469
Cu2   Cu    Cu3+1 0.490600 0.492270 0.384070 0.916467
H1    H     H_    0.923038 0.349721 0.575411 0.109924
H2    H     H_    0.732390 0.815782 0.954496 0.143935
H3    H     H_    0.681099 0.929928 0.053576 0.143818
H4    H     H_    0.703823 0.967548 0.855378 0.161223
H5    H     H_    0.541603 0.977755 0.896265 0.160167
H6    H     H_    0.494706 0.798831 0.781764 0.175243
H7    H     H_    0.657074 0.787074 0.741228 0.152950
H8    H     H_    0.267807 0.184245 0.045421 0.143936
H9    H     H_    0.430323 0.174964 0.005651 0.153553
H10   H     H_    0.319115 0.070085 0.946371 0.143817
H11   H     H_    0.458513 0.022246 0.103739 0.160171
H12   H     H_    0.076962 0.650279 0.424589 0.109924
H13   H     H_    0.296269 0.032460 0.144548 0.161222
H14   H     H_    0.342983 0.212925 0.258725 0.152954
H15   H     H_    0.505372 0.201172 0.218252 0.175249
H16   H     H_    0.429736 0.951822 0.265448 0.097911
H17   H     H_    0.570257 0.048177 0.734549 0.097909
H18   H     H_    0.369695 0.414580 0.789091 0.115251
H19   H     H_    0.630304 0.585420 0.210909 0.115252
H20   H     H_    0.680757 0.623931 0.814661 0.116578
H21   H     H_    0.319248 0.376058 0.185337 0.116566
H22   H     H_    0.295672 0.362801 0.971010 0.081680
H23   H     H_    0.087931 0.511679 0.701609 0.114886
H24   H     H_    0.704328 0.637187 0.028988 0.081690
H25   H     H_    0.912069 0.488321 0.298391 0.114886
H26   H     H_    0.453497 0.808421 0.357180 0.124979
H27   H     H_    0.546459 0.191578 0.642824 0.124979
H28   H     H_    0.928791 0.661826 0.622387 0.101387
H29   H     H_    0.071209 0.338174 0.377613 0.101389
H30   H     H_    0.569893 0.825030 0.994346 0.153552
N1    N     N_R   0.523540 0.519360 0.790140 -0.228536
N2    N     N_R   0.476460 0.480640 0.209860 -0.228534
O1    O     O_R   0.506670 0.354460 0.582000 -0.505833
O2    O     O_R   0.493330 0.645540 0.418000 -0.505834
O3    O     O_R   0.490800 0.341410 0.386200 -0.517033
O4    O     O_R   0.509200 0.658590 0.613800 -0.517027
O5    O     O_R   0.324790 0.506500 0.597880 -0.508752
O6    O     O_R   0.675210 0.493500 0.402120 -0.508754
O7    O     O_R   0.308910 0.493440 0.402080 -0.507321
O8    O     O_R   0.691090 0.506560 0.597920 -0.507325

loop_
_geom_bond_atom_site_label_1
_geom_bond_atom_site_label_2
_ccdc_geom_bond_type
C2    C35   A    
C8    O8    A    
Cu1   O4    S    
Cu2   N2    S    
Cu1   N1    S    
C10   H25   S    
C36   H21   S    
C29   H11   S    
C26   C27   S    
C1    O1    A    
C18   C24   A    
C30   H10   S    
C28   C29   S    
C9    C16   S    
C12   O4    A    
C5    C6    A    
C11   C14   S    
C10   C17   S    
C8    O6    A    
C27   H30   S    
C31   C33   A    
C2    N1    A    
C7    O7    A    
C7    C15   S    
C12   O2    A    
C22   C28   S    
Cu2   O6    S    
C34   H22   S    
C25   H6    S    
C4    N1    A    
C36   N2    A    
C26   H5    S    
C21   C32   A    
Cu2   O2    S    
C1    C19   S    
C17   H29   S    
C30   H9    S    
C19   C22   A    
C24   C25   S    
C4    C6    A    
C10   C14   S    
C21   H17   S    
C7    O5    A    
C25   C26   S    
C6    C34   A    
C19   C23   A    
Cu1   Cu2   S    
C9    H23   S    
C27   H3    S    
C27   H2    S    
C3    N2    A    
C11   H1    S    
C9    C11   S    
C20   C33   A    
C3    H19   S    
C20   H16   S    
C20   C22   A    
C13   C15   S    
C14   C16   S    
C21   C24   A    
C16   H28   S    
C25   H7    S    
C26   H4    S    
C29   H13   S    
C15   C17   S    
C11   C17   S    
C8    C14   S    
C31   H26   S    
C30   H8    S    
C3    C5    A    
C10   C13   S    
C28   H15   S    
C2    H20   S    
Cu2   O7    S    
Cu1   O8    S    
C1    O3    A    
C32   C33   A    
C23   H27   S    
Cu1   O1    S    
C9    C15   S    
C23   C32   A    
C28   H14   S    
C5    C35   A    
C35   H24   S    
C34   C36   A    
Cu1   O5    S    
C29   C30   S    
C13   H12   S    
C13   C16   S    
C12   C18   S    
C18   C31   A    
C4    H18   S    
Cu2   O3    S    
