data_mof_unit_9184.cif
_audit_creation_date              2012-12-11T15:54:05-0500
_audit_creation_method            fapswitch 2.2
_symmetry_space_group_name_H-M    P1
_symmetry_Int_Tables_number       1
_space_group_crystal_system       triclinic
_cell_length_a                    10.594289
_cell_length_b                    10.69206
_cell_length_c                    16.997685
_cell_angle_alpha                 80.722236
_cell_angle_beta                  99.308257
_cell_angle_gamma                 118.302551
_cell_volume                      1664.97975411

loop_
_atom_site_label
_atom_site_type_symbol
_atom_type_description
_atom_site_fract_x
_atom_site_fract_y
_atom_site_fract_z
_atom_type_partial_charge
C1    C     C_R   0.384509 0.284642 0.632143 0.523832
C2    C     C_1   0.333820 0.186825 0.781675 -0.020360
C3    C     C_1   0.335723 0.663762 0.277745 -0.022714
C4    C     C_R   0.369166 0.654922 0.585918 0.538870
C5    C     C_1   0.323652 0.673224 0.206915 -0.056744
C6    C     C_R   0.807825 0.655113 0.151837 -0.017866
C7    C     C_R   0.791484 0.532045 0.202451 -0.076238
C8    C     C_R   0.782853 0.526012 0.282120 0.007838
C9    C     C_R   0.777267 0.751356 0.262433 -0.126471
C10   C     C_R   0.782779 0.756795 0.180273 0.376783
C11   C     C_3   0.876199 0.448519 0.218562 0.343869
C12   C     C_R   0.392246 0.830122 0.674240 -0.127416
C13   C     C_3   0.863863 0.441704 0.306609 0.731233
C14   C     C_R   0.791580 0.641183 0.314825 -0.070447
C15   C     C_R   0.262562 0.057783 0.179186 -0.043280
C16   C     C_R   0.720682 0.587801 0.633265 0.532904
C17   C     C_R   0.162082 0.083773 0.207996 0.057999
C18   C     C_R   0.184469 0.122198 0.284065 -0.038982
C19   C     C_R   0.399732 0.091417 0.310376 -0.116864
C20   C     C_R   0.375100 0.049123 0.233005 -0.130487
C21   C     C_3   0.106562 0.189216 0.174492 0.300925
C22   C     C_3   0.126996 0.228211 0.258372 -0.178018
C23   C     C_R   0.375605 0.851886 0.750147 -0.156629
C24   C     C_R   0.309570 0.138782 0.333725 -0.005695
C25   C     C_R   0.885319 0.699140 0.857153 0.541224
C26   C     C_R   0.281538 0.750750 0.882877 0.573175
C27   C     C_R   0.286795 0.118868 0.858437 0.579021
C28   C     C_R   0.349552 0.222880 0.400829 0.553991
C29   C     C_R   0.882480 0.689068 0.081760 0.561277
C30   C     C_R   0.313353 0.700751 0.123743 0.552214
C31   C     C_R   0.246134 0.038414 0.095018 0.547786
C32   C     C_R   0.365010 0.654105 0.360849 0.586022
C33   C     C_R   0.766524 0.619393 0.397593 0.589831
C34   C     C_3   0.128201 0.458962 0.792060 0.269046
C35   C     C_R   0.279760 0.737461 0.798541 0.026786
C36   C     C_R   0.180837 0.613386 0.762637 0.026058
C37   C     C_R   0.197266 0.591642 0.687716 -0.030598
C38   C     C_3   0.145855 0.435372 0.709682 -0.195622
C39   C     C_R   0.313710 0.693266 0.646608 0.025489
C40   C     C_1   0.773127 0.630529 0.712212 -0.035182
C41   C     C_1   0.819355 0.669460 0.777978 -0.027147
C42   C     C_1   0.365062 0.233645 0.714484 -0.056400
Cr1   Cr    Cr6+3 0.608440 0.389080 0.519680 1.072981
Cr2   Cr    Cr6+3 0.288640 0.400090 0.490760 1.083718
Cr3   Cr    Cr6+3 0.602940 0.710800 0.489510 1.049743
Cr4   Cr    Cr6+3 0.052530 0.947560 0.964210 1.130103
Cr5   Cr    Cr6+3 0.059970 0.626800 0.992920 1.089546
Cr6   Cr    Cr6+3 0.373320 0.938440 0.995370 1.111528
F1    F     F_    0.799317 0.316451 0.188895 -0.550144
F2    F     F_    0.780190 0.305737 0.341232 -0.569401
F3    F     F_    0.994693 0.514945 0.350580 -0.645454
F4    F     F_    0.963118 0.124420 0.145229 -0.510021
F5    F     F_    0.224033 0.435861 0.850835 -0.595781
F6    F     F_    0.773671 0.864982 0.130128 -0.525465
H1    H     H_    0.041731 0.370176 0.675452 0.117160
H2    H     H_    0.014911 0.405285 0.807212 0.133048
H3    H     H_    0.231217 0.403179 0.710045 0.170392
H4    H     H_    0.764569 0.833681 0.284753 0.191357
H5    H     H_    0.989198 0.508564 0.202925 0.116375
H6    H     H_    0.477336 0.915731 0.641637 0.153670
H7    H     H_    0.494368 0.098013 0.348757 0.200368
H8    H     H_    0.450025 0.021054 0.213538 0.195075
H9    H     H_    0.176909 0.277991 0.132974 0.138293
H10   H     H_    0.209602 0.340529 0.265167 0.103073
H11   H     H_    0.024265 0.195475 0.283855 0.224717
H12   H     H_    0.445924 0.953922 0.773342 0.139987
O1    O     O_R   0.754020 0.497590 0.609930 -0.505658
O2    O     O_R   0.406180 0.826930 0.920660 -0.477862
O3    O     O_R   0.358620 0.062870 0.901950 -0.523320
O4    O     O_R   0.481420 0.271390 0.600630 -0.504484
O5    O     O_R   0.163910 0.085460 0.050210 -0.454600
O6    O     O_R   0.935200 0.815170 0.045770 -0.443075
O7    O     O_R   0.916120 0.596690 0.069430 -0.506087
O8    O     O_R   0.192310 0.631200 0.086170 -0.503569
O9    O     O_R   0.406770 0.819480 0.096420 -0.462542
O10   O     O_R   0.359170 0.055960 0.064880 -0.473833
O11   O     O_3   0.161940 0.837600 0.984160 -0.350885
O12   O     O_R   0.295080 0.533620 0.397890 -0.451379
O13   O     O_R   0.263810 0.254550 0.589590 -0.496781
O14   O     O_R   0.300820 0.531200 0.560890 -0.504315
O15   O     O_R   0.491480 0.744020 0.564270 -0.522801
O16   O     O_R   0.726290 0.693800 0.583010 -0.481032
O17   O     O_R   0.747830 0.500190 0.434090 -0.435645
O18   O     O_R   0.475680 0.273800 0.437630 -0.482363
O19   O     O_R   0.257620 0.257160 0.413750 -0.505921
O20   O     O_R   0.485280 0.746620 0.388440 -0.512262
O21   O     O_R   0.720550 0.696220 0.420010 -0.509329
O22   O     O_3   0.500010 0.499990 0.499980 -0.310457
O23   O     O_R   0.163320 0.092900 0.874450 -0.464876
O24   O     O_R   0.934650 0.822080 0.882840 -0.494377
O25   O     O_R   0.915520 0.604140 0.893670 -0.517956
O26   O     O_R   0.191760 0.638110 0.923230 -0.442471

loop_
_geom_bond_atom_site_label_1
_geom_bond_atom_site_label_2
_ccdc_geom_bond_type
C34   H2    S    
C8    C13   S    
C28   O18   A    
Cr1   O17   S    
Cr5   O26   S    
Cr6   O10   S    
C19   C20   A    
Cr6   O3    S    
C14   C33   S    
C7    C8    A    
Cr4   O23   S    
C7    C11   S    
C12   C23   A    
C25   O24   A    
C18   C24   A    
Cr1   O22   S    
C23   H12   S    
C36   C37   A    
Cr3   O21   S    
C19   H7    S    
C4    O14   A    
C30   O8    A    
C29   O7    A    
C26   O26   A    
C9    H4    S    
C13   F3    S    
C4    O15   A    
Cr3   O16   S    
C27   O23   A    
C2    C27   S    
C9    C10   A    
Cr4   O6    S    
C27   O3    A    
C29   O6    A    
C31   O5    A    
C34   C38   S    
C21   C22   S    
Cr1   O18   S    
Cr6   O9    S    
C11   H5    S    
C15   C20   A    
C25   O25   A    
C38   H1    S    
Cr2   O14   S    
Cr3   O22   S    
Cr5   O7    S    
C25   C41   S    
C22   H10   S    
C17   C21   S    
C35   C36   A    
Cr6   O11   S    
C9    C14   A    
C22   H11   S    
C37   C38   S    
C11   F1    S    
C38   H3    S    
C1    C42   S    
C4    C39   S    
C32   O20   A    
C16   O16   A    
C17   C18   A    
C16   O1    A    
Cr6   O2    S    
C33   O17   A    
Cr4   O5    S    
C16   C40   S    
C40   C41   T    
Cr1   O4    S    
C23   C35   A    
C1    O13   A    
Cr5   O11   S    
Cr2   O19   S    
C5    C30   S    
C15   C17   A    
C8    C14   A    
C18   C22   S    
Cr5   O25   S    
Cr2   O13   S    
Cr3   O15   S    
C24   C28   S    
Cr5   O8    S    
C3    C5    T    
C6    C10   A    
Cr4   O11   S    
C15   C31   S    
C6    C7    A    
Cr4   O24   S    
C1    O4    A    
C26   O2    A    
C12   C39   A    
Cr2   O12   S    
C19   C24   A    
C33   O21   A    
C37   C39   A    
C30   O9    A    
C11   C13   S    
C31   O10   A    
C2    C42   T    
Cr3   O20   S    
C34   C36   S    
C20   H8    S    
C3    C32   S    
C10   F6    S    
C21   H9    S    
C32   O12   A    
C13   F2    S    
C12   H6    S    
C26   C35   S    
C6    C29   S    
C34   F5    S    
Cr1   O1    S    
C28   O19   A    
Cr2   O22   S    
C21   F4    S    
