data_mof_unit_8213.cif
_audit_creation_date              2013-03-05T15:48:30-0500
_audit_creation_method            fapswitch 2.2
_symmetry_space_group_name_H-M    P1
_symmetry_Int_Tables_number       1
_space_group_crystal_system       triclinic
_cell_length_a                    20.455571
_cell_length_b                    7.337294
_cell_length_c                    14.117842
_cell_angle_alpha                 89.982275
_cell_angle_beta                  103.647949
_cell_angle_gamma                 90.110861
_cell_volume                      2059.09213055

loop_
_atom_site_label
_atom_site_type_symbol
_atom_site_description
_atom_site_fract_x
_atom_site_fract_y
_atom_site_fract_z
_atom_type_partial_charge
O1    O     O_R   0.449830 0.506740 0.599960 -0.558514
O2    O     O_R   0.550170 0.006740 0.400040 -0.546269
O3    O     O_R   0.588980 0.179860 0.596720 -0.531976
O4    O     O_R   0.411020 0.679860 0.403280 -0.572659
C1    C     C_R   0.616274 0.345234 0.616691 1.191407
C2    C     C_R   0.383317 0.844718 0.384517 1.225703
O5    O     O_R   0.452740 0.177340 0.612040 -0.616398
O6    O     O_R   0.547260 0.677340 0.387960 -0.605737
O7    O     O_R   0.412960 0.002070 0.415460 -0.544192
O8    O     O_R   0.587040 0.502070 0.584540 -0.598849
C3    C     C_R   0.435916 0.346065 0.634722 1.131642
C4    C     C_R   0.563863 0.846472 0.365065 1.129323
O9    O     O_3   0.487110 0.337570 0.435490 -0.274831
O10   O     O_3   0.512890 0.837570 0.564510 -0.306652
V1    V     V_3+5 0.502390 0.064650 0.511970 1.367493
V2    V     V_3+5 0.497610 0.564650 0.488030 1.349785
C5    C     C_R   0.599830 0.957698 0.124487 0.395361
C6    C     C_R   0.400811 0.451630 0.876446 0.398041
H1    H     H_    0.668908 0.933488 0.994705 0.228974
H2    H     H_    0.331336 0.431041 0.005648 0.231929
C7    C     C_R   0.600677 0.863504 0.288309 -0.458311
C8    C     C_R   0.399459 0.361405 0.711987 -0.454305
C9    C     C_R   0.918965 0.823595 0.297820 0.196309
C10   C     C_R   0.080654 0.324316 0.702612 0.195871
C11   C     C_R   0.885467 0.842071 0.372694 0.286386
C12   C     C_R   0.114108 0.340882 0.627668 0.282458
C13   C     C_R   0.817113 0.874705 0.349547 -0.187504
C14   C     C_R   0.182639 0.372420 0.650606 -0.183062
C15   C     C_R   0.778740 0.867664 0.253026 0.080205
C16   C     C_R   0.221183 0.366744 0.747146 0.078766
C17   C     C_R   0.812825 0.871042 0.174046 -0.074347
C18   C     C_R   0.187145 0.370870 0.826198 -0.075242
C19   C     C_R   0.706677 0.869828 0.235010 0.009058
C20   C     C_R   0.293338 0.368877 0.765129 0.009197
C21   C     C_R   0.669289 0.917315 0.141987 -0.200281
C22   C     C_R   0.330963 0.414457 0.858410 -0.203999
C23   C     C_R   0.700937 0.920313 0.066352 -0.031968
C24   C     C_R   0.299256 0.417983 0.933966 -0.029995
C25   C     C_R   0.770058 0.889261 0.077133 0.359622
C26   C     C_R   0.229952 0.388991 0.923160 0.358828
C27   C     C_R   0.670159 0.819781 0.305303 0.435447
C28   C     C_R   0.329841 0.318702 0.694921 0.438245
C29   C     C_R   0.567450 0.947040 0.201073 0.464650
C30   C     C_R   0.433385 0.440514 0.800073 0.461989
C31   C     C_R   0.885995 0.855335 0.199745 -0.319279
C32   C     C_R   0.113933 0.355949 0.800536 -0.321702
H3    H     H_    0.794222 0.904139 0.409075 0.255077
H4    H     H_    0.205458 0.400186 0.590900 0.262820
C33   C     C_3   0.224346 0.689651 0.181285 0.282782
C34   C     C_3   0.775459 0.187556 0.818477 0.306276
H5    H     H_    0.217395 0.675643 0.101647 0.154894
H6    H     H_    0.781014 0.173364 0.897831 0.141741
C35   C     C_3   0.301764 0.703142 0.233388 0.605705
C36   C     C_3   0.698381 0.198572 0.763442 0.583593
C37   C     C_3   0.179653 0.858870 0.309970 0.553649
C38   C     C_3   0.819267 0.360112 0.690432 0.535789
C39   C     C_3   0.230169 0.026482 0.176887 -0.072248
C40   C     C_3   0.769906 0.522861 0.825692 0.003971
C41   C     C_3   0.184889 0.862558 0.197629 -0.581740
C42   C     C_3   0.814903 0.361324 0.803045 -0.612327
H7    H     H_    0.199767 0.150309 0.174298 0.243425
H8    H     H_    0.800267 0.646912 0.828373 0.233318
C43   C     C_3   0.310726 0.853926 0.318358 -0.664076
C44   C     C_3   0.688757 0.354534 0.683307 -0.583070
C45   C     C_3   0.254935 0.829665 0.381960 0.432415
C46   C     C_3   0.743602 0.329371 0.619826 0.463096
C47   C     C_3   0.296754 0.045909 0.264140 0.584653
C48   C     C_3   0.702752 0.543938 0.739860 0.515007
O11   O     O_R   0.912980 0.203550 0.915410 -0.612319
O12   O     O_R   0.087020 0.703550 0.084590 -0.613337
O13   O     O_R   0.047270 0.535570 0.887960 -0.593660
O14   O     O_R   0.952730 0.035570 0.112040 -0.593272
C49   C     C_R   0.067963 0.368750 0.868437 1.087137
C50   C     C_R   0.932143 0.868517 0.131839 1.085457
O15   O     O_R   0.911030 0.532970 0.903270 -0.538941
O16   O     O_R   0.088970 0.032970 0.096730 -0.536728
O17   O     O_R   0.949820 0.708150 0.099970 -0.532490
O18   O     O_R   0.050180 0.208150 0.900030 -0.534327
C51   C     C_R   0.886111 0.364569 0.877064 1.141059
C52   C     C_R   0.113936 0.864973 0.122874 1.133075
O19   O     O_3   0.012900 0.375230 0.064480 -0.265301
O20   O     O_3   0.987100 0.875230 0.935520 -0.266544
V3    V     V_3+5 0.997610 0.648190 0.988040 1.384706
V4    V     V_3+5 0.002390 0.148190 0.011960 1.385479
O21   O     O_3   0.502497 0.009871 0.191849 -0.656976
H9    H     H_    0.486882 0.075102 0.129219 0.381582
O22   O     O_3   0.499254 0.497454 0.810417 -0.674387
H10   H     H_    0.515606 0.559533 0.873859 0.385060
N1    N     N_R   0.344447 0.747388 0.165447 0.287379
O23   O     O_R   0.409219 0.755365 0.199769 -0.308470
O24   O     O_R   0.323271 0.720211 0.072381 -0.356118
N2    N     N_R   0.652906 0.230165 0.829914 0.237121
O25   O     O_R   0.588163 0.226741 0.794563 -0.354839
O26   O     O_R   0.674228 0.218927 0.923838 -0.362994
O27   O     O_3   0.324048 0.530818 0.267727 -0.666701
H11   H     H_    0.311549 0.514732 0.328981 0.396842
O28   O     O_3   0.680510 0.031378 0.716947 -0.617870
H12   H     H_    0.659308 0.953143 0.758550 0.365077
O29   O     O_3   0.136673 0.714340 0.318684 -0.613532
H13   H     H_    0.128608 0.720438 0.385053 0.404354
O30   O     O_3   0.862425 0.217359 0.680313 -0.607210
H14   H     H_    0.869384 0.223987 0.613280 0.399442
N3    N     N_R   0.265498 0.655539 0.438049 0.214476
O31   O     O_R   0.219235 0.532985 0.433131 -0.263518
O32   O     O_R   0.318683 0.639554 0.509327 -0.416259
N4    N     N_R   0.732137 0.150999 0.567323 0.273543
O33   O     O_R   0.778981 0.030960 0.571425 -0.238674
O34   O     O_R   0.679441 0.133513 0.495419 -0.394265
N5    N     N_R   0.243258 0.008661 0.077262 0.284659
O35   O     O_R   0.298842 0.064166 0.056848 -0.290559
O36   O     O_R   0.194996 0.960558 0.003572 -0.391610
N6    N     N_R   0.758040 0.502254 0.926149 0.291450
O37   O     O_R   0.703473 0.558767 0.949059 -0.249280
O38   O     O_R   0.806951 0.452792 0.998535 -0.400301
O39   O     O_3   0.353747 0.092781 0.229370 -0.655515
H15   H     H_    0.351396 0.224057 0.212762 0.403290
O40   O     O_3   0.647651 0.586507 0.780279 -0.662425
H16   H     H_    0.614092 0.662500 0.735537 0.358411
N7    N     N_R   0.287540 0.191333 0.332923 0.260398
O41   O     O_R   0.336374 0.245148 0.404102 -0.335406
O42   O     O_R   0.230018 0.268855 0.325656 -0.261948
N8    N     N_R   0.711399 0.693599 0.672411 0.269513
O43   O     O_R   0.662214 0.754228 0.603825 -0.317668
O44   O     O_R   0.769210 0.768731 0.678533 -0.224310
N9    N     N_R   0.146622 0.025295 0.336793 0.276114
O45   O     O_R   0.105650 0.121707 0.271670 -0.303095
O46   O     O_R   0.144747 0.052933 0.427122 -0.273283
N10   N     N_R   0.851576 0.527748 0.663347 0.274423
O47   O     O_R   0.893512 0.622879 0.728096 -0.301464
O48   O     O_R   0.852522 0.556268 0.572723 -0.274625
O49   O     O_3   0.266864 0.966187 0.454074 -0.689773
H17   H     H_    0.248299 0.927009 0.509907 0.379363
O50   O     O_3   0.730800 0.463772 0.546585 -0.709331
H18   H     H_    0.748775 0.421913 0.490760 0.374773
O51   O     O_3   0.563623 0.014614 0.034335 -0.697774
H19   H     H_    0.562448 0.910102 0.989435 0.343320
O52   O     O_3   0.437342 0.505038 0.967132 -0.698966
H20   H     H_    0.437576 0.399490 0.011110 0.343437
O53   O     O_3   0.702257 0.719140 0.385449 -0.696454
H21   H     H_    0.671209 0.692163 0.427328 0.378020
O54   O     O_3   0.297719 0.218539 0.614650 -0.695093
H22   H     H_    0.330925 0.169388 0.581095 0.373617
N11   N     N_R   0.988499 0.779653 0.322296 0.234874
O55   O     O_R   0.007449 0.620297 0.298684 -0.285279
O56   O     O_R   0.029072 0.878672 0.386517 -0.293451
N12   N     N_R   0.010864 0.282034 0.678417 0.235896
O57   O     O_R   0.991267 0.122807 0.701493 -0.283039
O58   O     O_R   0.970391 0.383253 0.615472 -0.291172
N13   N     N_R   0.920540 0.824742 0.473328 0.300035
O59   O     O_R   0.964544 0.695954 0.500910 -0.226239
O60   O     O_R   0.904136 0.926631 0.539295 -0.237220
N14   N     N_R   0.078721 0.322883 0.527196 0.299782
O61   O     O_R   0.033955 0.195281 0.500251 -0.228396
O62   O     O_R   0.094966 0.424245 0.460830 -0.232820
N15   N     N_R   0.789752 0.871394 0.985855 0.204281
O63   O     O_R   0.743168 0.875737 0.905518 -0.444869
O64   O     O_R   0.846539 0.805081 0.978808 -0.441502
N16   N     N_R   0.210104 0.374198 0.014562 0.205807
O65   O     O_R   0.256650 0.380725 0.094879 -0.421669
O66   O     O_R   0.153121 0.309488 0.022299 -0.439367
O67   O     O_3   0.196897 0.535783 0.216844 -0.583839
H23   H     H_    0.158616 0.488115 0.166988 0.403842
O68   O     O_3   0.804463 0.035092 0.784501 -0.552406
H24   H     H_    0.841075 0.985894 0.836324 0.396419

loop_
_geom_bond_atom_site_label_1
_geom_bond_atom_site_label_2
_geom_bond_distance
_ccdc_geom_bond_type
C40   H8    1.096510 S    
C24   C26   1.405376 A    
O22   H10   0.989875 S    
C43   C45   1.619603 S    
C42   C51   1.579819 S    
O30   H14   0.990834 S    
C9    C31   1.409230 A    
C37   C41   1.614865 S    
O19   V4    1.815279 S    
C35   O27   1.392507 S    
O27   H11   0.965035 S    
O1    C3    1.332654 A    
O2    C4    1.331159 A    
N10   O47   1.298732 A    
O16   V4    2.070870 S    
C2    O7    1.328187 A    
N6    O38   1.302197 A    
O67   H23   0.984840 S    
O51   H19   0.991701 S    
O21   H9    0.989931 S    
O5    C3    1.344425 A    
C34   C36   1.586966 S    
N4    O34   1.300786 A    
C40   N6    1.501783 S    
C44   C48   1.594366 S    
C26   N16   1.445244 S    
C21   C23   1.373302 A    
C10   C12   1.394199 A    
C38   O30   1.400019 S    
N13   O60   1.299111 A    
C33   C35   1.583805 S    
C39   C41   1.585474 S    
C13   C15   1.403840 A    
N4    O33   1.293963 A    
O17   V3    2.092212 S    
C40   C42   1.580367 S    
O39   H15   0.989844 S    
C15   C19   1.435642 A    
C6    C22   1.416859 A    
C11   N13   1.438263 S    
C47   O39   1.409547 S    
H1    C23   1.071998 S    
C37   C45   1.647064 S    
C7    C29   1.400206 A    
O54   H22   0.984239 S    
C8    C30   1.398794 A    
C37   N9    1.488365 S    
C33   H5    1.104290 S    
C50   O17   1.340317 A    
C20   C28   1.423414 A    
C5    O51   1.378000 S    
C34   H6    1.103968 S    
C49   O18   1.339555 A    
N16   O65   1.298045 A    
C36   O28   1.398194 S    
N1    O24   1.298064 A    
C30   O22   1.384315 S    
N12   O58   1.296718 A    
O5    V1    2.095747 S    
N9    O45   1.298607 A    
O6    V2    2.093852 S    
N16   O66   1.286054 A    
C9    N11   1.419932 S    
C18   C32   1.459245 A    
C46   N4    1.494886 S    
N6    O37   1.301803 A    
C45   O49   1.407800 S    
O28   H12   0.990766 S    
O13   V3    2.095788 S    
N7    O42   1.290006 A    
O53   H21   0.984241 S    
C43   C47   1.596714 S    
C16   C20   1.437457 A    
O12   C52   1.362174 A    
C29   O21   1.384015 S    
O12   V3    2.046697 S    
O14   C50   1.345801 A    
C12   N14   1.438278 S    
N5    O35   1.301714 A    
C48   N8    1.490632 S    
O13   C49   1.345592 A    
C4    C7    1.463428 S    
C38   C42   1.613275 S    
C1    C44   1.558542 S    
C25   N15   1.444095 S    
C31   C50   1.498742 S    
C44   C46   1.603540 S    
C2    C43   1.558099 S    
O4    V2    2.070880 S    
C6    O52   1.377969 S    
C5    C29   1.396986 A    
C36   N2    1.487504 S    
O2    V1    2.088951 S    
C6    C30   1.397315 A    
C48   O40   1.413706 S    
C46   O50   1.408116 S    
H2    C24   1.072541 S    
C39   N5    1.498311 S    
O29   H13   0.990029 S    
O6    C4    1.345270 A    
C28   O54   1.379626 S    
N2    O26   1.297099 A    
N3    O32   1.301441 A    
O1    V2    2.087983 S    
N15   O64   1.285572 A    
O14   V4    2.093894 S    
C39   C47   1.612594 S    
C7    C27   1.421734 A    
C40   C48   1.610736 S    
N14   O62   1.298824 A    
O20   V4    2.261242 S    
C35   N1    1.477039 S    
O50   H18   0.993996 S    
O11   C51   1.361132 A    
O4    C2    1.336441 A    
O15   C51   1.353618 A    
C45   N3    1.491883 S    
N8    O44   1.288045 A    
O49   H17   0.994423 S    
N1    O23   1.300176 A    
N3    O31   1.294107 A    
C18   C26   1.446470 A    
O3    V1    2.068382 S    
N12   O57   1.300518 A    
C13   H3    1.076281 S    
N11   O56   1.296785 A    
C14   H4    1.074763 S    
C34   O68   1.403819 S    
C33   O67   1.404309 S    
O16   C52   1.352647 A    
O3    C1    1.336733 A    
N10   O48   1.300976 A    
C41   C52   1.580481 S    
O19   V3    2.261722 S    
N7    O41   1.299460 A    
C39   H7    1.097726 S    
C11   C13   1.380149 A    
O52   H20   0.991753 S    
C3    C8    1.463898 S    
C12   C14   1.381346 A    
C33   C41   1.551203 S    
C34   C42   1.550106 S    
N5    O36   1.302194 A    
O7    V1    2.057829 S    
C19   C27   1.423456 A    
C1    O8    1.327445 A    
C23   C25   1.404946 A    
O11   V4    2.047935 S    
O8    V2    2.059223 S    
N13   O59   1.300948 A    
C22   C24   1.373219 A    
C16   C18   1.448459 A    
C35   C43   1.610247 S    
O15   V3    2.068371 S    
C8    C28   1.421476 A    
C36   C44   1.588445 S    
C38   C46   1.646445 S    
C14   C16   1.404975 A    
N2    O25   1.300612 A    
C19   C21   1.399203 A    
C17   C25   1.445905 A    
C20   C22   1.399806 A    
C38   N10   1.487187 S    
C27   O53   1.381092 S    
O68   H24   0.984264 S    
O18   V4    2.091210 S    
C9    C11   1.395541 A    
N14   O61   1.300894 A    
C15   C17   1.448034 A    
O20   V3    1.815621 S    
C17   C31   1.459285 A    
O9    V2    1.815651 S    
C37   O29   1.400003 S    
N15   O63   1.298264 A    
N9    O46   1.300822 A    
O10   V1    1.815992 S    
C10   N12   1.420978 S    
C5    C21   1.415445 A    
N8    O43   1.299799 A    
O40   H16   0.988821 S    
C47   N7    1.484855 S    
C32   C49   1.495912 S    
N11   O55   1.300571 A    
C10   C32   1.408544 A    
