data_mof_unit_16193.cif
_audit_creation_date              2012-12-11T14:41:11-0500
_audit_creation_method            fapswitch 2.2
_symmetry_space_group_name_H-M    P1
_symmetry_Int_Tables_number       1
_space_group_crystal_system       monoclinic
_cell_length_a                    7.009897
_cell_length_b                    17.20167
_cell_length_c                    19.585734
_cell_angle_alpha                 90.0
_cell_angle_beta                  90.0
_cell_angle_gamma                 93.875156
_cell_volume                      2356.28612666

loop_
_atom_site_label
_atom_site_type_symbol
_atom_type_description
_atom_site_fract_x
_atom_site_fract_y
_atom_site_fract_z
_atom_type_partial_charge
O1    O     O_R   0.377350 0.828520 0.186660 -0.543947
O2    O     O_R   0.622650 0.171480 0.813340 -0.543947
O3    O     O_R   0.122650 0.171480 0.686660 -0.543947
O4    O     O_R   0.877350 0.828520 0.313340 -0.543947
O5    O     O_R   0.877350 0.671480 0.313340 -0.514050
O6    O     O_R   0.122650 0.328520 0.686660 -0.514050
O7    O     O_R   0.622650 0.328520 0.813340 -0.514050
O8    O     O_R   0.377350 0.671480 0.186660 -0.514050
O9    O     O_R   0.707090 0.671930 0.178410 -0.539647
O10   O     O_R   0.292910 0.328070 0.821590 -0.539647
O11   O     O_R   0.792910 0.328070 0.678410 -0.539647
O12   O     O_R   0.207090 0.671930 0.321590 -0.539647
O13   O     O_R   0.207090 0.828070 0.321590 -0.515917
O14   O     O_R   0.792910 0.171930 0.678410 -0.515917
O15   O     O_R   0.292910 0.171930 0.821590 -0.515917
O16   O     O_R   0.707090 0.828070 0.178410 -0.515917
C1    C     C_R   0.532222 0.645451 0.161515 0.757133
C2    C     C_R   0.467778 0.354549 0.838485 0.757133
C3    C     C_R   0.967778 0.354549 0.661515 0.757133
C4    C     C_R   0.032222 0.645451 0.338485 0.757133
C5    C     C_R   0.043026 0.854206 0.339214 0.739242
C6    C     C_R   0.956974 0.145793 0.660786 0.739242
C7    C     C_R   0.456974 0.145793 0.839214 0.739242
C8    C     C_R   0.543025 0.854206 0.160786 0.739242
O17   O     O_3   0.543850 0.750000 0.294270 -0.368436
O18   O     O_3   0.456150 0.250000 0.705730 -0.368436
O19   O     O_3   0.956150 0.250000 0.794270 -0.368436
O20   O     O_3   0.043850 0.750000 0.205730 -0.368436
V1    V     V_3+5 0.818700 0.750000 0.241790 1.547949
V2    V     V_3+5 0.181300 0.250000 0.758210 1.547949
V3    V     V_3+5 0.681300 0.250000 0.741790 1.547949
V4    V     V_3+5 0.318700 0.750000 0.258210 1.547949
C9    C     C_R   0.000071 0.416695 0.608206 -0.229991
C10   C     C_R   0.999929 0.583305 0.391793 -0.229991
C11   C     C_R   0.499929 0.583305 0.108206 -0.229991
C12   C     C_R   0.500071 0.416695 0.891793 -0.229991
C13   C     C_R   0.450471 0.083561 0.893370 -0.221097
C14   C     C_R   0.549529 0.916439 0.106630 -0.221097
C15   C     C_R   0.049529 0.916439 0.393370 -0.221097
C16   C     C_R   0.950471 0.083561 0.606630 -0.221097
C17   C     C_R   0.791511 0.478095 0.442848 0.244343
C18   C     C_R   0.208489 0.521905 0.557152 0.244343
C19   C     C_R   0.708489 0.521905 0.942848 0.244343
C20   C     C_R   0.291511 0.478095 0.057152 0.244343
C21   C     C_R   0.718404 0.029078 0.050679 0.242441
C22   C     C_R   0.281596 0.970922 0.949321 0.242441
C23   C     C_R   0.781596 0.970922 0.550679 0.242441
C24   C     C_R   0.218404 0.029078 0.449321 0.242441
C25   C     C_R   0.839463 0.528820 0.387975 0.409473
C26   C     C_R   0.160537 0.471180 0.612025 0.409473
C27   C     C_R   0.660537 0.471180 0.887975 0.409473
C28   C     C_R   0.339463 0.528820 0.112024 0.409473
C29   C     C_R   0.698966 0.975826 0.105611 0.423822
C30   C     C_R   0.301034 0.024174 0.894389 0.423822
C31   C     C_R   0.801034 0.024174 0.605611 0.423822
C32   C     C_R   0.198966 0.975826 0.394389 0.423822
C33   C     C_R   0.123359 0.579440 0.447511 -0.186835
C34   C     C_R   0.876641 0.420560 0.552489 -0.186835
C35   C     C_R   0.376641 0.420560 0.947511 -0.186835
C36   C     C_R   0.623359 0.579440 0.052489 -0.186835
C37   C     C_R   0.409539 0.916357 0.055299 -0.193779
C38   C     C_R   0.590461 0.083642 0.944701 -0.193780
C39   C     C_R   0.090461 0.083642 0.555299 -0.193780
C40   C     C_R   0.909539 0.916357 0.444701 -0.193779
C41   C     C_R   0.084485 0.525244 0.500921 0.012806
C42   C     C_R   0.915515 0.474756 0.499079 0.012806
C43   C     C_R   0.415515 0.474756 0.000921 0.012807
C44   C     C_R   0.584485 0.525244 0.999079 0.012806
C45   C     C_R   0.421349 0.971761 0.001414 0.006744
C46   C     C_R   0.578651 0.028239 0.998586 0.006743
C47   C     C_R   0.078651 0.028239 0.501414 0.006743
C48   C     C_R   0.921349 0.971761 0.498586 0.006743
H1    H     H_    0.753357 0.379345 0.550633 0.204957
H2    H     H_    0.246643 0.620655 0.449367 0.204957
H3    H     H_    0.746643 0.620655 0.050633 0.204957
H4    H     H_    0.253357 0.379345 0.949367 0.204957
H5    H     H_    0.705798 0.128598 0.942831 0.200294
H6    H     H_    0.294202 0.871402 0.057169 0.200294
H7    H     H_    0.794202 0.871402 0.442831 0.200294
H8    H     H_    0.205798 0.128598 0.557169 0.200294
O21   O     O_3   0.270807 0.474690 0.670379 -0.548635
C49   C     C_3   0.237973 0.543208 0.707694 0.029485
H9    H     H_    0.110964 0.574071 0.691203 0.120805
H10   H     H_    0.362757 0.585819 0.702542 0.187453
C50   C     C_3   0.216474 0.522020 0.782316 -0.664555
H11   H     H_    0.346999 0.496715 0.799648 0.204308
H12   H     H_    0.193734 0.574539 0.813292 0.221192
H13   H     H_    0.098421 0.476857 0.789171 0.271865
O22   O     O_3   0.729193 0.525310 0.329621 -0.548635
C51   C     C_3   0.762027 0.456791 0.292306 0.029484
H14   H     H_    0.637243 0.414181 0.297458 0.187453
H15   H     H_    0.889035 0.425929 0.308797 0.120805
C52   C     C_3   0.783526 0.477980 0.217684 -0.664554
H16   H     H_    0.901579 0.523143 0.210829 0.271865
H17   H     H_    0.806265 0.425461 0.186707 0.221191
H18   H     H_    0.653001 0.503285 0.200352 0.204308
O23   O     O_3   0.229193 0.525310 0.170379 -0.548635
C53   C     C_3   0.262027 0.456791 0.207694 0.029484
H19   H     H_    0.389035 0.425929 0.191203 0.120805
H20   H     H_    0.137243 0.414181 0.202542 0.187453
C54   C     C_3   0.283526 0.477980 0.282316 -0.664554
H21   H     H_    0.153001 0.503285 0.299648 0.204308
H22   H     H_    0.306265 0.425461 0.313292 0.221191
H23   H     H_    0.401579 0.523143 0.289171 0.271865
O24   O     O_3   0.770807 0.474690 0.829621 -0.548635
C55   C     C_3   0.737973 0.543208 0.792306 0.029485
H24   H     H_    0.862757 0.585819 0.797458 0.187453
H25   H     H_    0.610964 0.574071 0.808797 0.120805
C56   C     C_3   0.716474 0.522020 0.717684 -0.664555
H26   H     H_    0.598421 0.476857 0.710829 0.271865
H27   H     H_    0.693734 0.574539 0.686708 0.221192
H28   H     H_    0.846999 0.496715 0.700352 0.204308
O25   O     O_3   0.173779 0.017569 0.840499 -0.544148
C57   C     C_3   0.222887 0.956601 0.796311 0.040617
H29   H     H_    0.104261 0.910564 0.795889 0.181776
H30   H     H_    0.353698 0.927028 0.811113 0.115843
C58   C     C_3   0.248692 0.988251 0.724236 -0.664623
H31   H     H_    0.361365 0.036511 0.722892 0.251234
H32   H     H_    0.284179 0.941173 0.688662 0.219911
H33   H     H_    0.115556 0.011847 0.706877 0.200085
O26   O     O_3   0.826221 0.982431 0.159501 -0.544148
C59   C     C_3   0.777113 0.043399 0.203689 0.040617
H34   H     H_    0.646302 0.072972 0.188887 0.115843
H35   H     H_    0.895739 0.089436 0.204111 0.181776
C60   C     C_3   0.751308 0.011749 0.275764 -0.664623
H36   H     H_    0.884444 0.988153 0.293123 0.200085
H37   H     H_    0.715821 0.058827 0.311338 0.219911
H38   H     H_    0.638634 0.963489 0.277108 0.251234
O27   O     O_3   0.326221 0.982431 0.340499 -0.544148
C61   C     C_3   0.277113 0.043399 0.296311 0.040617
H39   H     H_    0.395739 0.089436 0.295889 0.181776
H40   H     H_    0.146302 0.072972 0.311113 0.115843
C62   C     C_3   0.251308 0.011749 0.224236 -0.664623
H41   H     H_    0.138635 0.963489 0.222892 0.251234
H42   H     H_    0.215821 0.058827 0.188662 0.219911
H43   H     H_    0.384444 0.988153 0.206877 0.200085
O28   O     O_3   0.673779 0.017569 0.659501 -0.544148
C63   C     C_3   0.722887 0.956601 0.703689 0.040617
H44   H     H_    0.853698 0.927028 0.688887 0.115843
H45   H     H_    0.604261 0.910564 0.704111 0.181776
C64   C     C_3   0.748692 0.988251 0.775764 -0.664623
H46   H     H_    0.615556 0.011847 0.793123 0.200085
H47   H     H_    0.784179 0.941173 0.811338 0.219911
H48   H     H_    0.861365 0.036511 0.777108 0.251234
Br1   Br    Br    0.550640 0.416389 0.440305 -0.557625
Br2   Br    Br    0.449360 0.583611 0.559695 -0.557625
Br3   Br    Br    0.949360 0.583611 0.940305 -0.557625
Br4   Br    Br    0.050640 0.416389 0.059695 -0.557625
Br5   Br    Br    0.942001 0.101064 0.048405 -0.540493
Br6   Br    Br    0.057999 0.898936 0.951595 -0.540493
Br7   Br    Br    0.557998 0.898936 0.548404 -0.540493
Br8   Br    Br    0.442001 0.101064 0.451595 -0.540493

loop_
_geom_bond_atom_site_label_1
_geom_bond_atom_site_label_2
_ccdc_geom_bond_type
C9    C34   A    
C58   H31   S    
C38   H5    S    
O14   V3    S    
C12   C35   A    
C57   H29   S    
O5    C4    A    
C50   H11   S    
C15   C40   A    
O11   C3    A    
C54   H21   S    
C16   C39   A    
O15   V2    S    
O20   V1    S    
O27   C61   S    
C56   H27   S    
C55   H24   S    
C30   O25   S    
O23   C53   S    
C28   O23   S    
C38   C46   A    
C22   C45   A    
O13   V4    S    
C35   C43   A    
C34   C42   A    
C19   C44   A    
C60   H38   S    
C8    C14   S    
O4    V1    S    
O9    V1    S    
C14   C37   A    
C4    C10   S    
C20   C28   A    
O17   V4    S    
O15   C7    A    
O11   V3    S    
O18   V3    S    
O16   C8    A    
O12   V4    S    
O19   V2    S    
C62   H42   S    
C22   C30   A    
C17   C25   A    
O21   C49   S    
O5    V1    S    
C39   H8    S    
C50   H12   S    
O17   V1    S    
O7    V3    S    
O19   V3    S    
C43   C44   A    
O8    V4    S    
O20   V4    S    
C3    C9    S    
C56   H28   S    
O22   C51   S    
O16   V1    S    
C7    C13   S    
O1    V4    S    
O2    V3    S    
C64   H47   S    
C33   H2    S    
O3    V2    S    
C61   H40   S    
O6    C3    A    
C18   C41   A    
O10   V2    S    
C51   H15   S    
C15   C32   A    
C5    C15   S    
C37   H6    S    
C27   O24   S    
O7    C2    A    
C6    C16   S    
O12   C4    A    
O13   C5    A    
C52   H16   S    
O26   C59   S    
C39   C47   A    
C12   C27   A    
C63   H45   S    
C18   C26   A    
C62   H43   S    
C13   C30   A    
O9    C1    A    
C22   Br6   S    
C23   Br7   S    
C53   H19   S    
C52   H18   S    
C49   H10   S    
C24   Br8   S    
C62   H41   S    
C40   H7    S    
C64   H48   S    
C61   C62   S    
C24   C47   A    
C59   H35   S    
C49   C50   S    
O2    C7    A    
C51   C52   S    
C23   C31   A    
O25   C57   S    
O28   C63   S    
C50   H13   S    
C37   C45   A    
C24   C32   A    
C10   C25   A    
O6    V2    S    
C21   C46   A    
C32   O27   S    
C25   O22   S    
C20   C43   A    
C63   C64   S    
C16   C31   A    
C57   H30   S    
O18   V2    S    
C17   C42   A    
C54   H23   S    
C53   C54   S    
O24   C55   S    
C36   H3    S    
C53   H20   S    
O8    C1    A    
C31   O28   S    
C54   H22   S    
O14   C6    A    
C59   C60   S    
C58   H32   S    
C61   H39   S    
C9    C26   A    
C47   C48   A    
C41   C42   A    
C29   O26   S    
C64   H46   S    
O4    C5    A    
C19   C27   A    
C51   H14   S    
C60   H36   S    
C14   C29   A    
C55   H25   S    
O10   C2    A    
C10   C33   A    
C20   Br4   S    
C58   H33   S    
C21   Br5   S    
C40   C48   A    
C26   O21   S    
C45   C46   A    
C23   C48   A    
C57   C58   S    
C19   Br3   S    
C63   H44   S    
C21   C29   A    
C17   Br1   S    
C36   C44   A    
O1    C8    A    
C52   H17   S    
C49   H9    S    
C11   C28   A    
C60   H37   S    
C13   C38   A    
C11   C36   A    
O3    C6    A    
C1    C11   S    
C59   H34   S    
C56   H26   S    
C2    C12   S    
C35   H4    S    
C34   H1    S    
C33   C41   A    
C55   C56   S    
C18   Br2   S    
