data_mof_unit_57969.cif
_audit_creation_date              2012-12-10T16:49:25-0500
_audit_creation_method            fapswitch 2.2
_symmetry_space_group_name_H-M    P1
_symmetry_Int_Tables_number       1
_space_group_crystal_system       triclinic
_cell_length_a                    7.861708
_cell_length_b                    8.575566
_cell_length_c                    12.723096
_cell_angle_alpha                 89.155134
_cell_angle_beta                  86.305914
_cell_angle_gamma                 92.685413
_cell_volume                      854.915251891

loop_
_atom_site_label
_atom_site_type_symbol
_atom_type_description
_atom_site_fract_x
_atom_site_fract_y
_atom_site_fract_z
_atom_type_partial_charge
C1    C     C_R   0.453037 0.206340 0.510314 0.909852
C2    C     C_R   0.666536 0.373272 0.139961 -0.125503
C3    C     C_R   0.501418 0.393816 0.873026 -0.111418
C4    C     C_R   0.487339 0.597396 0.126964 -0.082373
C5    C     C_R   0.538315 0.431499 0.976267 0.090949
C6    C     C_R   0.448498 0.553995 0.025668 -0.026953
C7    C     C_2   0.421238 0.044292 0.540583 0.000148
C8    C     C_2   0.554177 0.950817 0.548799 -0.018873
C9    C     C_2   0.466742 0.761929 0.162728 0.410175
C10   C     C_2   0.506960 0.231838 0.832007 0.416359
C11   C     C_2   0.772789 0.276293 0.204878 0.548420
C12   C     C_R   0.539861 0.792294 0.515380 1.009573
C13   C     C_2   0.234738 0.732514 0.800392 0.502678
C14   C     C_2   0.167568 0.686789 0.033921 0.450085
C15   C     C_2   0.793276 0.261988 0.971163 0.572176
C16   C     C_3   0.004092 0.684421 0.424871 -0.460774
C17   C     C_3   0.998012 0.321979 0.580512 -0.514320
C18   C     C_3   0.236323 0.990717 0.565715 -0.851165
C19   C     C_3   0.721774 0.002592 0.591823 -0.873263
C20   C     C_R   0.462915 0.506014 0.699910 0.804966
C21   C     C_R   0.536618 0.494039 0.300347 0.949851
C22   C     C_R   0.567492 0.489338 0.187673 -0.139625
C23   C     C_R   0.428883 0.507406 0.812899 -0.216441
C24   C     C_R   0.320106 0.627411 0.972695 -0.047803
C25   C     C_R   0.663229 0.353725 0.030423 -0.029369
C26   C     C_R   0.328233 0.621019 0.862335 -0.013698
H1    H     H_    0.420815 0.848810 0.110079 0.114730
H2    H     H_    0.895744 0.284573 0.640012 0.171965
H3    H     H_    0.017238 0.229329 0.522181 0.202549
H4    H     H_    0.109010 0.345489 0.626273 0.221067
H5    H     H_    0.178435 0.070112 0.624235 0.239188
H6    H     H_    0.166062 0.992217 0.492890 0.237041
H7    H     H_    0.219159 0.875166 0.604974 0.260627
H8    H     H_    0.773272 0.907146 0.638516 0.252227
H9    H     H_    0.815562 0.035353 0.525641 0.245961
H10   H     H_    0.703044 0.097571 0.648141 0.247061
H11   H     H_    0.499328 0.211439 0.748725 0.057744
H12   H     H_    0.714024 0.209504 0.271883 0.060530
H13   H     H_    0.154893 0.691417 0.739311 0.056463
H14   H     H_    0.155436 0.674064 0.119047 0.059461
H15   H     H_    0.840781 0.300677 0.892614 0.013240
H16   H     H_    0.974442 0.769996 0.486883 0.182600
H17   H     H_    0.113854 0.735193 0.374526 0.195152
H18   H     H_    0.899533 0.663752 0.372428 0.232878
N1    N     N_2   0.054030 0.541640 0.471970 -0.009229
N2    N     N_2   0.945970 0.458360 0.528030 -0.006556
O1    O     O_R   0.609680 0.261530 0.506880 -0.625456
O2    O     O_2   0.504069 0.118608 0.891536 -0.504307
O3    O     O_2   0.927323 0.276882 0.187201 -0.533724
O4    O     O_2   0.244612 0.871885 0.818736 -0.503699
O5    O     O_2   0.049233 0.742270 0.990970 -0.504182
O6    O     O_2   0.842062 0.139938 0.006477 -0.473929
O7    O     O_R   0.390320 0.738470 0.493120 -0.611130
O8    O     O_R   0.323330 0.288220 0.488910 -0.622593
O9    O     O_R   0.676670 0.711780 0.511090 -0.634345
O10   O     O_R   0.619510 0.488830 0.661140 -0.613155
O11   O     O_R   0.380490 0.511170 0.338860 -0.571565
O12   O     O_R   0.333160 0.515520 0.643180 -0.673830
O13   O     O_R   0.666840 0.484480 0.356820 -0.638712
O14   O     O_2   0.509578 0.805355 0.248509 -0.585095
Zn1   Zn    Zn3+2 0.691200 0.482180 0.511990 0.947511
Zn2   Zn    Zn3+2 0.308800 0.517820 0.488010 0.959859

loop_
_geom_bond_atom_site_label_1
_geom_bond_atom_site_label_2
_ccdc_geom_bond_type
C16   N1    S    
O1    Zn1   S    
C11   H12   S    
C1    O8    A    
O12   Zn2   S    
C11   O3    D    
C17   H3    S    
C4    C22   A    
O7    Zn2   S    
C16   H18   S    
C3    C23   A    
C14   O5    D    
C20   C23   S    
C8    C12   S    
C20   O10   A    
C9    O14   D    
C6    C24   A    
C7    C18   S    
N1    N2    D    
C7    C8    D    
C3    C10   S    
C19   H9    S    
C15   O6    D    
C21   O11   A    
C17   H4    S    
C16   H17   S    
C9    H1    S    
C10   H11   S    
C5    C25   A    
C2    C11   S    
O9    Zn1   S    
C21   C22   S    
C2    C22   A    
C24   C26   A    
C21   O13   A    
C2    C25   A    
C19   H10   S    
C10   O2    D    
C5    C6    A    
C18   H7    S    
C13   C26   S    
C13   H13   S    
C8    C19   S    
C15   C25   S    
N2    Zn1   S    
C14   H14   S    
C13   O4    D    
C12   O9    A    
C16   H16   S    
N1    Zn2   S    
O11   Zn2   S    
C18   H6    S    
C17   N2    S    
C15   H15   S    
C4    C6    A    
C23   C26   A    
C14   C24   S    
O10   Zn1   S    
C1    O1    A    
C18   H5    S    
O8    Zn2   S    
C3    C5    A    
C4    C9    S    
C1    C7    S    
C17   H2    S    
C20   O12   A    
C12   O7    A    
O13   Zn1   S    
C19   H8    S    
