data_mof_unit_39480.cif
_audit_creation_date              2012-10-26T17:11:12-0400
_audit_creation_method            fapswitch 2.2
_symmetry_space_group_name_H-M    P1
_symmetry_Int_Tables_number       1
_space_group_crystal_system       triclinic
_cell_length_a                    27.942727
_cell_length_b                    18.736762
_cell_length_c                    16.807092
_cell_angle_alpha                 89.999803
_cell_angle_beta                  63.094878
_cell_angle_gamma                 89.99992
_cell_volume                      7846.97866029

loop_
_atom_site_label
_atom_site_type_symbol
_atom_type_description
_atom_site_fract_x
_atom_site_fract_y
_atom_site_fract_z
_atom_type_partial_charge
C1    C     C_R   0.293876 0.726388 0.330023 0.836538
C2    C     C_R   0.704917 0.271249 0.670535 0.862296
C3    C     C_R   0.706124 0.726388 0.669977 0.836537
C4    C     C_R   0.295083 0.271249 0.329466 0.862313
C5    C     C_R   0.793873 0.226382 0.330025 0.836468
C6    C     C_R   0.204917 0.771249 0.670534 0.862318
C7    C     C_R   0.206124 0.226388 0.669977 0.836532
C8    C     C_R   0.795083 0.771250 0.329466 0.862317
C9    C     C_R   0.560105 0.878903 0.465068 0.603822
C10   C     C_R   0.464487 0.128147 0.453389 0.569285
C11   C     C_R   0.439892 0.878902 0.534940 0.603830
C12   C     C_R   0.535502 0.128146 0.546638 0.569374
C13   C     C_R   0.060107 0.378904 0.465063 0.603829
C14   C     C_R   0.964493 0.628146 0.453373 0.569314
C15   C     C_R   0.939893 0.378904 0.534937 0.603833
C16   C     C_R   0.035506 0.628146 0.546627 0.569314
C17   C     C_R   0.207079 0.743368 0.963754 -0.228460
C18   C     C_R   0.767387 0.209079 0.055047 -0.252481
C19   C     C_R   0.792921 0.743368 0.036246 -0.228459
C20   C     C_R   0.232600 0.209097 0.944970 -0.252649
C21   C     C_R   0.707074 0.243361 0.963762 -0.228464
C22   C     C_R   0.267398 0.709095 0.055032 -0.252634
C23   C     C_R   0.292920 0.243369 0.036246 -0.228465
C24   C     C_R   0.732602 0.709095 0.944968 -0.252636
C25   C     C_R   0.236514 0.796319 0.981897 0.540959
C26   C     C_R   0.738413 0.155772 0.036652 0.508975
C27   C     C_R   0.763488 0.796319 0.018100 0.540953
C28   C     C_R   0.261562 0.155782 0.963383 0.508915
C29   C     C_R   0.736515 0.296306 0.981898 0.540974
C30   C     C_R   0.238432 0.655782 0.036626 0.508915
C31   C     C_R   0.263490 0.296322 0.018096 0.540953
C32   C     C_R   0.761566 0.655782 0.963377 0.508914
C33   C     C_R   0.265974 0.779434 0.027821 0.538209
C34   C     C_R   0.707674 0.173019 0.992579 0.520456
C35   C     C_R   0.734027 0.779434 0.972177 0.538208
C36   C     C_R   0.292305 0.173024 0.007449 0.520494
C37   C     C_R   0.765973 0.279416 0.027825 0.538154
C38   C     C_R   0.207690 0.673025 0.992558 0.520494
C39   C     C_R   0.234029 0.279437 0.972173 0.538210
C40   C     C_R   0.792308 0.673024 0.007444 0.520498
C41   C     C_R   0.135792 0.814262 0.950366 0.564072
C42   C     C_R   0.848025 0.157323 0.060371 0.558598
C43   C     C_R   0.864208 0.814262 0.049634 0.564069
C44   C     C_R   0.151973 0.157326 0.939630 0.558648
C45   C     C_R   0.635791 0.314261 0.950368 0.564056
C46   C     C_R   0.348026 0.657325 0.060371 0.558644
C47   C     C_R   0.364208 0.314263 0.049634 0.564072
C48   C     C_R   0.651974 0.657325 0.939629 0.558643
C49   C     C_R   0.117896 0.851117 0.895732 -0.300386
C50   C     C_R   0.879934 0.145569 0.104631 -0.319805
C51   C     C_R   0.882103 0.851117 0.104267 -0.300388
C52   C     C_R   0.120065 0.145570 0.895368 -0.319816
C53   C     C_R   0.617896 0.351116 0.895733 -0.300380
C54   C     C_R   0.379934 0.645569 0.104632 -0.319814
C55   C     C_R   0.382103 0.351117 0.104267 -0.300384
C56   C     C_R   0.620066 0.645569 0.895368 -0.319813
C57   C     C_R   0.144801 0.841173 0.803153 0.311897
C58   C     C_R   0.864835 0.176234 0.188787 0.261348
C59   C     C_R   0.855198 0.841174 0.196847 0.311899
C60   C     C_R   0.135163 0.176236 0.811214 0.261319
C61   C     C_R   0.644801 0.341173 0.803154 0.311893
C62   C     C_R   0.364836 0.676236 0.188786 0.261321
C63   C     C_R   0.355199 0.341173 0.196847 0.311895
C64   C     C_R   0.635163 0.676236 0.811214 0.261321
C65   C     C_R   0.180672 0.783875 0.767409 -0.279045
C66   C     C_R   0.813495 0.206343 0.235596 -0.278357
C67   C     C_R   0.819328 0.783875 0.232590 -0.279050
C68   C     C_R   0.186498 0.206361 0.764411 -0.278339
C69   C     C_R   0.680673 0.283874 0.767410 -0.279040
C70   C     C_R   0.313501 0.706359 0.235589 -0.278342
C71   C     C_R   0.319328 0.283874 0.232590 -0.279052
C72   C     C_R   0.686498 0.706360 0.764411 -0.278342
C73   C     C_R   0.195336 0.742699 0.823955 0.320225
C74   C     C_R   0.779668 0.212507 0.193355 0.343697
C75   C     C_R   0.804665 0.742699 0.176045 0.320221
C76   C     C_R   0.220319 0.212547 0.806663 0.343742
C77   C     C_R   0.695336 0.242699 0.823957 0.320235
C78   C     C_R   0.279680 0.712544 0.193339 0.343739
C79   C     C_R   0.304665 0.242699 0.176045 0.320224
C80   C     C_R   0.720320 0.712545 0.806661 0.343742
C81   C     C_R   0.177107 0.763755 0.913413 0.037119
C82   C     C_R   0.798844 0.192486 0.103709 0.034856
C83   C     C_R   0.822893 0.763755 0.086587 0.037121
C84   C     C_R   0.201147 0.192508 0.896303 0.034826
C85   C     C_R   0.677106 0.263753 0.913416 0.037131
C86   C     C_R   0.298852 0.692505 0.103699 0.034837
C87   C     C_R   0.322893 0.263755 0.086587 0.037117
C88   C     C_R   0.701148 0.692506 0.896302 0.034836
C89   C     C_R   0.196468 0.631986 0.528445 0.809812
C90   C     C_R   0.800103 0.369204 0.484103 0.846980
C91   C     C_R   0.803532 0.631986 0.471555 0.809813
C92   C     C_R   0.199897 0.369204 0.515897 0.846989
C93   C     C_R   0.696467 0.131986 0.528446 0.809726
C94   C     C_R   0.300103 0.869204 0.484103 0.846996
C95   C     C_R   0.303532 0.131986 0.471556 0.809804
C96   C     C_R   0.699897 0.869204 0.515898 0.846989
C97   C     C_R   0.925864 0.903772 0.066855 0.864115
C98   C     C_R   0.073732 0.096870 0.933638 0.832095
C99   C     C_R   0.074136 0.903771 0.933145 0.864115
C100  C     C_R   0.926269 0.096872 0.066360 0.832081
C101  C     C_R   0.425864 0.403772 0.066855 0.864114
C102  C     C_R   0.573732 0.596870 0.933638 0.832093
C103  C     C_R   0.574136 0.403771 0.933145 0.864114
C104  C     C_R   0.426268 0.596870 0.066361 0.832092
C105  C     C_R   0.048081 0.503165 0.507438 -0.110002
C106  C     C_R   0.951918 0.503165 0.492563 -0.110002
C107  C     C_R   0.548078 0.003165 0.507446 -0.110011
C108  C     C_R   0.451916 0.003164 0.492568 -0.109986
C109  C     C_R   0.021294 0.568006 0.512019 -0.073797
C110  C     C_R   0.973540 0.438736 0.505018 -0.061975
C111  C     C_R   0.978706 0.568006 0.487983 -0.073797
C112  C     C_R   0.026459 0.438736 0.494983 -0.061974
C113  C     C_R   0.521289 0.068006 0.512030 -0.073876
C114  C     C_R   0.473538 0.938735 0.505022 -0.061979
C115  C     C_R   0.478701 0.068006 0.487994 -0.073806
C116  C     C_R   0.526457 0.938735 0.494989 -0.061968
C117  C     C_R   0.127310 0.439157 0.496386 -0.182900
C118  C     C_R   0.885960 0.565379 0.459684 -0.181879
C119  C     C_R   0.872690 0.439156 0.503615 -0.182900
C120  C     C_R   0.114040 0.565379 0.540316 -0.181879
C121  C     C_R   0.627308 0.939157 0.496390 -0.182899
C122  C     C_R   0.385959 0.065379 0.459688 -0.181887
C123  C     C_R   0.372689 0.939155 0.503617 -0.182909
C124  C     C_R   0.614038 0.065380 0.540321 -0.181934
C125  C     C_R   0.172357 0.436782 0.515140 -0.182390
C126  C     C_R   0.834752 0.565459 0.460343 -0.154684
C127  C     C_R   0.827642 0.436782 0.484860 -0.182390
C128  C     C_R   0.165248 0.565459 0.539657 -0.154685
C129  C     C_R   0.672357 0.936783 0.515141 -0.182391
C130  C     C_R   0.334752 0.065459 0.460345 -0.154686
C131  C     C_R   0.327642 0.936782 0.484862 -0.182382
C132  C     C_R   0.665248 0.065460 0.539659 -0.154710
C133  C     C_R   0.190736 0.500386 0.535858 0.500107
C134  C     C_R   0.809264 0.500386 0.464142 0.500104
C135  C     C_R   0.690736 0.000387 0.535858 0.500125
C136  C     C_R   0.309265 0.000386 0.464144 0.500122
C137  C     C_R   0.096454 0.502485 0.515303 -0.089675
C138  C     C_R   0.903545 0.502485 0.484697 -0.089675
C139  C     C_R   0.596452 0.002485 0.515309 -0.089690
C140  C     C_R   0.403544 0.002484 0.484701 -0.089674
C141  C     C_R   0.611662 0.881649 0.458305 0.540768
C142  C     C_R   0.420869 0.125181 0.434055 0.543315
C143  C     C_R   0.388335 0.881647 0.541701 0.540777
C144  C     C_R   0.579126 0.125181 0.565959 0.543350
C145  C     C_R   0.111664 0.381649 0.458301 0.540775
C146  C     C_R   0.920871 0.625180 0.434046 0.543299
C147  C     C_R   0.888336 0.381648 0.541699 0.540778
C148  C     C_R   0.079128 0.625180 0.565954 0.543301
Cu1   Cu    Cu3+1 0.209920 0.785290 0.495070 1.108021
Cu2   Cu    Cu3+1 0.790080 0.214710 0.504930 1.100979
Cu3   Cu    Cu3+1 0.790080 0.785290 0.504930 1.108024
Cu4   Cu    Cu3+1 0.209920 0.214710 0.495070 1.100968
Cu5   Cu    Cu3+1 0.709920 0.285290 0.495070 1.108180
Cu6   Cu    Cu3+1 0.290080 0.714710 0.504930 1.100973
Cu7   Cu    Cu3+1 0.290080 0.285290 0.504930 1.108045
Cu8   Cu    Cu3+1 0.709920 0.714710 0.495070 1.100972
Cu9   Cu    Cu3+1 0.495240 0.500000 0.924150 1.132757
Cu10  Cu    Cu3+1 0.504760 0.500000 0.075850 1.132758
Cu11  Cu    Cu3+1 0.995240 0.000000 0.924150 1.132747
Cu12  Cu    Cu3+1 0.004760 0.000000 0.075850 1.132762
O1    O     O_R   0.255040 0.869590 0.478480 -0.531919
O2    O     O_R   0.744960 0.130410 0.521520 -0.545653
O3    O     O_R   0.744960 0.869590 0.521520 -0.531916
O4    O     O_R   0.255040 0.130410 0.478480 -0.545649
O5    O     O_R   0.755040 0.369590 0.478480 -0.531917
O6    O     O_R   0.244960 0.630410 0.521520 -0.545647
O7    O     O_R   0.244960 0.369590 0.521520 -0.531915
O8    O     O_R   0.755040 0.630410 0.478480 -0.545647
O9    O     O_R   0.182050 0.796550 0.624440 -0.519567
O10   O     O_R   0.817950 0.203450 0.375560 -0.554725
O11   O     O_R   0.817950 0.796550 0.375560 -0.519566
O12   O     O_R   0.182050 0.203450 0.624440 -0.554729
O13   O     O_R   0.682050 0.296550 0.624440 -0.519558
O14   O     O_R   0.317950 0.703450 0.375560 -0.554727
O15   O     O_R   0.317950 0.296550 0.375560 -0.519566
O16   O     O_R   0.682050 0.703450 0.624440 -0.554727
O17   O     O_R   0.250530 0.763330 0.367210 -0.546104
O18   O     O_R   0.749470 0.236670 0.632790 -0.525094
O19   O     O_R   0.749470 0.763330 0.632790 -0.546103
O20   O     O_R   0.250530 0.236670 0.367210 -0.525092
O21   O     O_R   0.750530 0.263330 0.367210 -0.546071
O22   O     O_R   0.249470 0.736670 0.632790 -0.525090
O23   O     O_R   0.249470 0.263330 0.632790 -0.546095
O24   O     O_R   0.750530 0.736670 0.367210 -0.525092
O25   O     O_R   0.177260 0.690030 0.513710 -0.558207
O26   O     O_R   0.822740 0.309970 0.486290 -0.544783
O27   O     O_R   0.822740 0.690030 0.486290 -0.558207
O28   O     O_R   0.177260 0.309970 0.513710 -0.544784
O29   O     O_R   0.677260 0.190030 0.513710 -0.558103
O30   O     O_R   0.322740 0.809970 0.486290 -0.544785
O31   O     O_R   0.322740 0.190030 0.486290 -0.558198
O32   O     O_R   0.677260 0.809970 0.513710 -0.544780
O33   O     O_R   0.051640 0.926880 0.885090 -0.543861
O34   O     O_R   0.948360 0.073120 0.114910 -0.565088
O35   O     O_R   0.948360 0.926880 0.114910 -0.543858
O36   O     O_R   0.051640 0.073120 0.885090 -0.565089
O37   O     O_R   0.551640 0.426880 0.885090 -0.543860
O38   O     O_R   0.448360 0.573120 0.114910 -0.565088
O39   O     O_R   0.448360 0.426880 0.114910 -0.543861
O40   O     O_R   0.551640 0.573120 0.885090 -0.565088
O41   O     O_R   0.940620 0.926560 0.986760 -0.513620
O42   O     O_R   0.059380 0.073440 0.013240 -0.525619
O43   O     O_R   0.059380 0.926560 0.013240 -0.513615
O44   O     O_R   0.940620 0.073440 0.986760 -0.525623
O45   O     O_R   0.440620 0.426560 0.986760 -0.513615
O46   O     O_R   0.559380 0.573440 0.013240 -0.525622
O47   O     O_R   0.559380 0.426560 0.013240 -0.513616
O48   O     O_R   0.440620 0.573440 0.986760 -0.525621
F1    F     F_    0.234515 0.499463 0.551207 -0.658587
F2    F     F_    0.765485 0.499463 0.448793 -0.658592
F3    F     F_    0.734516 0.999463 0.551202 -0.658587
F4    F     F_    0.265488 0.999463 0.448793 -0.658599
F5    F     F_    0.647522 0.832965 0.403965 -0.596600
F6    F     F_    0.416778 0.177768 0.381869 -0.598606
F7    F     F_    0.352475 0.832962 0.596041 -0.596596
F8    F     F_    0.583224 0.177780 0.618130 -0.598574
F9    F     F_    0.147524 0.332964 0.403961 -0.596598
F10   F     F_    0.916778 0.677767 0.381860 -0.598602
F11   F     F_    0.852477 0.332963 0.596039 -0.596592
F12   F     F_    0.083222 0.677767 0.618139 -0.598602
F13   F     F_    0.546308 0.821676 0.430231 -0.576851
F14   F     F_    0.496474 0.186784 0.427468 -0.584457
F15   F     F_    0.453689 0.821674 0.569774 -0.576852
F16   F     F_    0.503508 0.186775 0.572581 -0.584460
F17   F     F_    0.046309 0.321677 0.430228 -0.576854
F18   F     F_    0.996484 0.686778 0.427438 -0.584466
F19   F     F_    0.953691 0.321676 0.569773 -0.576852
F20   F     F_    0.003515 0.686778 0.572562 -0.584466
F21   F     F_    0.177484 0.621588 0.980595 -0.601394
F22   F     F_    0.793870 0.331580 0.044736 -0.566253
F23   F     F_    0.822514 0.621587 0.019410 -0.601394
F24   F     F_    0.206143 0.331608 0.955245 -0.566226
F25   F     F_    0.677463 0.121587 0.980620 -0.601398
F26   F     F_    0.293864 0.831603 0.044742 -0.566231
F27   F     F_    0.322508 0.121585 0.019418 -0.601397
F28   F     F_    0.706138 0.831604 0.955253 -0.566231
F29   F     F_    0.237112 0.864542 0.954111 -0.547793
F30   F     F_    0.739098 0.087446 0.063011 -0.562955
F31   F     F_    0.762891 0.864543 0.045884 -0.547802
F32   F     F_    0.260868 0.087456 0.937032 -0.562893
F33   F     F_    0.737122 0.364528 0.954101 -0.547792
F34   F     F_    0.239122 0.587457 0.062983 -0.562901
F35   F     F_    0.262896 0.364546 0.045875 -0.547789
F36   F     F_    0.760875 0.587456 0.937022 -0.562901
F37   F     F_    0.115008 0.829163 0.038915 -0.590649
F38   F     F_    0.863947 0.134080 0.975492 -0.593675
F39   F     F_    0.884992 0.829163 0.961085 -0.590650
F40   F     F_    0.136055 0.134071 0.024503 -0.593649
F41   F     F_    0.615006 0.329160 0.038917 -0.590664
F42   F     F_    0.363944 0.634070 0.975498 -0.593654
F43   F     F_    0.384992 0.329163 0.961085 -0.590651
F44   F     F_    0.636056 0.634070 0.024502 -0.593653
O49   O     O_3   0.137129 0.889105 0.747096 -0.512470
C149  C     C_3   0.174178 0.945766 0.728241 0.059822
H1    H     H_    0.216240 0.925885 0.692425 0.142094
H2    H     H_    0.168562 0.973495 0.790560 0.137853
C150  C     C_3   0.165498 0.000119 0.668834 -0.614281
H3    H     H_    0.124238 0.022278 0.703507 0.264892
H4    H     H_    0.194810 0.044436 0.653045 0.188707
H5    H     H_    0.171150 0.974419 0.605646 0.277458
O50   O     O_3   0.899033 0.172709 0.227830 -0.530989
C151  C     C_3   0.932460 0.233543 0.201680 0.081701
H6    H     H_    0.908270 0.283556 0.222373 0.137654
H7    H     H_    0.958061 0.234131 0.128047 0.135025
C152  C     C_3   0.969007 0.231858 0.246613 -0.627491
H8    H     H_    0.994205 0.182962 0.226486 0.263481
H9    H     H_    0.995594 0.279423 0.226449 0.213495
H10   H     H_    0.944584 0.232212 0.320287 0.252510
O51   O     O_3   0.862869 0.889107 0.252903 -0.512467
C153  C     C_3   0.825817 0.945766 0.271758 0.059805
H11   H     H_    0.783756 0.925883 0.307575 0.142092
H12   H     H_    0.831432 0.973494 0.209439 0.137844
C154  C     C_3   0.834496 0.000122 0.331164 -0.614288
H13   H     H_    0.875755 0.022284 0.296489 0.264893
H14   H     H_    0.805181 0.044436 0.346953 0.188683
H15   H     H_    0.828846 0.974423 0.394351 0.277469
O52   O     O_3   0.100967 0.172701 0.772166 -0.530990
C155  C     C_3   0.067538 0.233533 0.798306 0.081701
H16   H     H_    0.091725 0.283548 0.777608 0.137647
H17   H     H_    0.041935 0.234127 0.871939 0.135028
C156  C     C_3   0.030992 0.231837 0.753370 -0.627466
H18   H     H_    0.005796 0.182939 0.773502 0.263477
H19   H     H_    0.004404 0.279401 0.773527 0.213504
H20   H     H_    0.055417 0.232186 0.679697 0.252506
O53   O     O_3   0.637130 0.389106 0.747097 -0.512471
C157  C     C_3   0.674181 0.445765 0.728241 0.059818
H21   H     H_    0.716243 0.425883 0.692425 0.142095
H22   H     H_    0.668565 0.473494 0.790560 0.137855
C158  C     C_3   0.665502 0.500120 0.668834 -0.614280
H23   H     H_    0.624243 0.522280 0.703507 0.264892
H24   H     H_    0.694816 0.544434 0.653044 0.188701
H25   H     H_    0.671154 0.474420 0.605646 0.277463
O54   O     O_3   0.399033 0.672701 0.227834 -0.530990
C159  C     C_3   0.432463 0.733533 0.201691 0.081703
H26   H     H_    0.408275 0.783549 0.222387 0.137648
H27   H     H_    0.458065 0.734125 0.128058 0.135025
C160  C     C_3   0.469008 0.731838 0.246626 -0.627478
H28   H     H_    0.494204 0.682940 0.226496 0.263476
H29   H     H_    0.495597 0.779402 0.226468 0.213499
H30   H     H_    0.444583 0.732188 0.320300 0.252508
O55   O     O_3   0.362870 0.389106 0.252903 -0.512471
C161  C     C_3   0.325819 0.445765 0.271759 0.059819
H31   H     H_    0.283757 0.425883 0.307574 0.142095
H32   H     H_    0.331435 0.473494 0.209439 0.137855
C162  C     C_3   0.334497 0.500120 0.331166 -0.614281
H33   H     H_    0.375757 0.522281 0.296494 0.264893
H34   H     H_    0.305184 0.544435 0.346955 0.188700
H35   H     H_    0.328846 0.474420 0.394354 0.277463
O56   O     O_3   0.600967 0.672702 0.772166 -0.530990
C163  C     C_3   0.567538 0.733535 0.798308 0.081702
H36   H     H_    0.591726 0.783549 0.777610 0.137647
H37   H     H_    0.541936 0.734128 0.871940 0.135026
C164  C     C_3   0.530992 0.731839 0.753372 -0.627477
H38   H     H_    0.505796 0.682942 0.773503 0.263476
H39   H     H_    0.504405 0.779404 0.773529 0.213498
H40   H     H_    0.555417 0.732189 0.679698 0.252509
O57   O     O_3   0.231474 0.686828 0.790797 -0.522221
C165  C     C_3   0.204267 0.626071 0.781509 0.102802
H41   H     H_    0.192111 0.633615 0.727589 0.125447
H42   H     H_    0.167527 0.613851 0.844277 0.197934
C166  C     C_3   0.241499 0.561878 0.757456 -0.528544
H43   H     H_    0.253704 0.551884 0.810853 0.278811
H44   H     H_    0.220578 0.513879 0.749926 0.212405
H45   H     H_    0.277857 0.571807 0.693502 0.249001
O58   O     O_3   0.727953 0.238917 0.238782 -0.523470
C167  C     C_3   0.692686 0.180901 0.278245 0.016115
H46   H     H_    0.703827 0.150458 0.324409 0.121386
H47   H     H_    0.692736 0.143866 0.226506 0.189808
C168  C     C_3   0.635914 0.208932 0.331680 -0.558785
H48   H     H_    0.623548 0.239828 0.287640 0.272092
H49   H     H_    0.607907 0.163430 0.360723 0.199746
H50   H     H_    0.633812 0.243863 0.386569 0.254571
O59   O     O_3   0.768527 0.686827 0.209203 -0.522220
C169  C     C_3   0.795735 0.626070 0.218493 0.102815
H51   H     H_    0.807892 0.633616 0.272411 0.125441
H52   H     H_    0.832474 0.613850 0.155724 0.197934
C170  C     C_3   0.758503 0.561877 0.242550 -0.528558
H53   H     H_    0.746297 0.551881 0.189155 0.278808
H54   H     H_    0.779424 0.513879 0.250081 0.212399
H55   H     H_    0.722146 0.571807 0.306504 0.249007
O60   O     O_3   0.272018 0.239011 0.761251 -0.523468
C171  C     C_3   0.307328 0.181026 0.721826 0.016376
H56   H     H_    0.296149 0.150414 0.675824 0.121277
H57   H     H_    0.307388 0.144141 0.773609 0.189800
C172  C     C_3   0.364054 0.209134 0.668154 -0.559101
H58   H     H_    0.376438 0.240270 0.711990 0.272225
H59   H     H_    0.392111 0.163664 0.639233 0.199952
H60   H     H_    0.366053 0.243846 0.613164 0.254451
O61   O     O_3   0.731475 0.186829 0.790798 -0.522224
C173  C     C_3   0.704269 0.126070 0.781512 0.102775
H61   H     H_    0.692112 0.133613 0.727593 0.125454
H62   H     H_    0.667530 0.113850 0.844280 0.197941
C174  C     C_3   0.741502 0.061878 0.757458 -0.528567
H63   H     H_    0.753707 0.051885 0.810854 0.278797
H64   H     H_    0.720582 0.013879 0.749928 0.212408
H65   H     H_    0.777859 0.071809 0.693503 0.249006
O62   O     O_3   0.227979 0.739004 0.238751 -0.523479
C175  C     C_3   0.192672 0.681019 0.278186 0.016417
H66   H     H_    0.203862 0.650401 0.324169 0.121254
H67   H     H_    0.192600 0.644139 0.226408 0.189815
C176  C     C_3   0.135950 0.709127 0.331887 -0.559105
H68   H     H_    0.123548 0.740251 0.288068 0.272225
H69   H     H_    0.107900 0.663658 0.360834 0.199889
H70   H     H_    0.133967 0.743850 0.386855 0.254455
O63   O     O_3   0.268527 0.186827 0.209203 -0.522217
C177  C     C_3   0.295735 0.126070 0.218493 0.102818
H71   H     H_    0.307891 0.133616 0.272414 0.125440
H72   H     H_    0.332476 0.113851 0.155726 0.197929
C178  C     C_3   0.258504 0.061876 0.242546 -0.528544
H73   H     H_    0.246300 0.051881 0.189149 0.278817
H74   H     H_    0.279426 0.013878 0.250077 0.212400
H75   H     H_    0.222146 0.071805 0.306499 0.248999
O64   O     O_3   0.772020 0.739005 0.761249 -0.523479
C179  C     C_3   0.807328 0.681020 0.721816 0.016419
H76   H     H_    0.796137 0.650400 0.675834 0.121253
H77   H     H_    0.807400 0.644141 0.773595 0.189814
C180  C     C_3   0.864050 0.709127 0.668113 -0.559108
H78   H     H_    0.876451 0.740253 0.711930 0.272226
H79   H     H_    0.892100 0.663658 0.639166 0.199890
H80   H     H_    0.866032 0.743849 0.613143 0.254454

loop_
_geom_bond_atom_site_label_1
_geom_bond_atom_site_label_2
_ccdc_geom_bond_type
C51   C97   S    
Cu9   Cu10  S    
C134  F2    S    
C160  H29   S    
C79   C87   A    
C170  H53   S    
C61   C69   A    
O59   C169  S    
C156  H20   S    
O62   C175  S    
Cu10  O47   S    
C13   C112  A    
C13   F17   S    
Cu11  O41   S    
Cu5   O13   S    
C154  H15   S    
C30   C38   A    
C175  C176  S    
C103  O37   A    
C107  C113  A    
C180  H80   S    
C149  H2    S    
C37   F22   S    
C7    C68   S    
Cu7   O7    S    
C18   C26   A    
C167  H46   S    
C165  C166  S    
C168  H48   S    
C178  H75   S    
C41   F37   S    
C7    O12   A    
Cu11  O36   S    
C77   O61   S    
C174  H64   S    
C16   C109  A    
C176  H70   S    
C163  H37   S    
Cu9   O45   S    
C11   F15   S    
C171  H56   S    
C90   O26   A    
C27   C35   A    
O55   C161  S    
C21   C29   A    
C15   F19   S    
C36   F27   S    
C23   C31   A    
C48   F44   S    
C24   C32   A    
Cu3   O19   S    
C25   F29   S    
C167  C168  S    
C172  H60   S    
C105  C112  A    
C63   C71   A    
C120  C148  A    
C60   O52   S    
C58   O50   S    
C153  H12   S    
C170  H55   S    
C143  F7    S    
C54   C104  S    
C16   F20   S    
C157  C158  S    
C26   C34   A    
C9    C116  A    
C104  O38   A    
C73   O57   S    
C171  C172  S    
C99   O33   A    
C50   C100  S    
C1    C70   S    
C7    O23   A    
C17   C25   A    
C97   O35   A    
C3    C72   S    
C80   C88   A    
O63   C177  S    
C157  H22   S    
C169  C170  S    
Cu2   O10   S    
C52   C98   S    
C18   C82   S    
C173  H61   S    
C10   F14   S    
C146  F10   S    
C3    O16   A    
C126  C134  A    
C166  H43   S    
C118  C138  A    
C11   C143  A    
C4    C71   S    
C96   C129  S    
C113  C115  A    
O61   C173  S    
C133  F1    S    
C124  C139  A    
C69   C77   A    
C127  C134  A    
C13   C145  A    
C43   C51   A    
C92   C125  S    
Cu12  O43   S    
C71   C79   A    
Cu5   O29   S    
C59   O51   S    
C6    O22   A    
Cu1   O9    S    
C108  C115  A    
C103  O47   A    
C109  C111  A    
O50   C151  S    
Cu4   O12   S    
Cu7   O23   S    
C164  H39   S    
Cu8   O8    S    
C66   C74   A    
Cu3   O11   S    
C124  C132  A    
C150  H3    S    
C179  H76   S    
C165  H42   S    
C52   C60   A    
C59   C67   A    
C129  C135  A    
C53   C61   A    
C46   F42   S    
C43   F39   S    
C162  H34   S    
C4    O15   A    
C55   C63   A    
C95   C130  S    
C5    O10   A    
C56   C64   A    
C93   C132  S    
C121  C129  A    
C47   F43   S    
C74   O58   S    
C44   C52   A    
C104  O48   A    
C77   C85   A    
O52   C155  S    
C32   F36   S    
C168  H49   S    
C19   C83   S    
C64   O56   S    
C38   F21   S    
C106  C111  A    
C161  H32   S    
Cu6   O14   S    
C131  C136  A    
C144  F8    S    
C79   O63   S    
C169  H51   S    
C149  C150  S    
C155  C156  S    
C179  C180  S    
C47   C87   A    
O54   C159  S    
C49   C99   S    
C102  O46   A    
C177  C178  S    
C166  H45   S    
C158  H23   S    
C98   O36   A    
C175  H67   S    
C152  H9    S    
C94   O1    A    
C60   C68   A    
C101  O45   A    
C42   C50   A    
C23   C36   A    
C20   C84   S    
C67   C75   A    
Cu11  O33   S    
C105  C109  A    
C42   F38   S    
C22   C30   A    
C99   O43   A    
C119  C138  A    
C89   O25   A    
C97   O41   A    
C5    C66   S    
Cu2   O26   S    
C114  C116  A    
C101  O39   A    
C151  H6    S    
C93   O29   A    
C156  H19   S    
C150  H5    S    
C96   O32   A    
C122  C140  A    
C39   F24   S    
C72   C80   A    
C78   O62   S    
Cu11  O44   S    
C154  H14   S    
C12   C113  A    
C17   C38   A    
C107  C139  A    
C110  C112  A    
C89   O6    A    
C180  H79   S    
C19   C40   A    
C105  C137  A    
C121  C139  A    
C8    C67   S    
C30   F34   S    
C155  H16   S    
C167  H47   S    
C2    O18   A    
C34   F25   S    
C117  C125  A    
C89   C128  S    
C25   C33   A    
C178  H74   S    
C119  C127  A    
C135  F3    S    
Cu1   O25   S    
C153  C154  S    
Cu4   O28   S    
C76   C84   A    
C151  C152  S    
C174  H63   S    
Cu8   O24   S    
C27   F31   S    
Cu3   O27   S    
C176  H69   S    
C31   F35   S    
C4    O20   A    
C14   F18   S    
C2    O13   A    
Cu12  O42   S    
C159  H26   S    
C171  H57   S    
C119  C147  A    
C158  H25   S    
C43   C83   A    
C117  C145  A    
C10   C142  A    
C108  C114  A    
C177  H71   S    
C12   F16   S    
C91   O27   A    
C6    C65   S    
Cu2   Cu5   S    
C90   C127  S    
C48   C88   A    
C172  H59   S    
Cu5   O5    S    
Cu6   O30   S    
O51   C153  S    
C15   C110  A    
C74   C82   A    
C5    O21   A    
C170  H54   S    
Cu2   O2    S    
C21   C85   S    
Cu10  O46   S    
C121  C141  A    
C142  F6    S    
C159  C160  S    
C20   C39   A    
C21   C34   A    
C54   C62   A    
C173  C174  S    
O60   C171  S    
C76   O60   S    
C50   C58   A    
Cu1   Cu6   S    
O53   C157  S    
C102  O40   A    
C26   F30   S    
Cu11  Cu12  S    
Cu4   Cu7   S    
C41   C81   A    
C46   C54   A    
C92   O28   A    
Cu10  O39   S    
Cu3   Cu8   S    
C40   F23   S    
C173  H62   S    
C24   C88   S    
C73   C81   A    
Cu12  O35   S    
Cu5   O21   S    
Cu1   O1    S    
C174  H65   S    
Cu7   O15   S    
C55   C101  S    
C163  H36   S    
Cu8   O16   S    
C123  C131  A    
C57   C65   A    
C44   C84   A    
C120  C128  A    
C20   C28   A    
C94   C131  S    
Cu9   O40   S    
C95   O4    A    
C28   F32   S    
C15   C147  A    
C100  O44   A    
C92   O7    A    
C75   C83   A    
C164  H38   S    
O49   C149  S    
C93   O2    A    
C53   C103  S    
Cu9   O37   S    
C22   C86   S    
O58   C167  S    
C179  H77   S    
C44   F40   S    
C56   C102  S    
C9    F13   S    
C145  F9    S    
C28   C36   A    
C162  H33   S    
C29   C37   A    
C153  H11   S    
Cu6   O6    S    
C120  C137  A    
O64   C179  S    
C163  C164  S    
Cu4   O20   S    
C91   C126  S    
C70   C78   A    
C160  H28   S    
C42   C82   A    
C94   O30   A    
C49   C57   A    
O56   C163  S    
C75   O59   S    
C161  C162  S    
C149  H1    S    
C18   C37   A    
C157  H21   S    
C169  H52   S    
C106  C138  A    
C62   O54   S    
C65   C73   A    
C11   C114  A    
C3    O19   A    
C80   O64   S    
C1    O17   A    
C41   C49   A    
Cu10  O38   S    
C166  H44   S    
C61   O53   S    
C17   C81   S    
C19   C27   A    
C152  H8    S    
C95   O31   A    
Cu2   O18   S    
C45   F41   S    
C8    O24   A    
C32   C40   A    
C136  F4    S    
C57   O49   S    
C62   C70   A    
O57   C165  S    
Cu9   O48   S    
C58   C66   A    
C14   C111  A    
C107  C116  A    
C1    O14   A    
C24   C35   A    
C91   O8    A    
C118  C146  A    
C141  F5    S    
C108  C140  A    
C9    C141  A    
C164  H40   S    
C151  H7    S    
C160  H30   S    
C156  H18   S    
C117  C137  A    
C123  C140  A    
C12   C144  A    
C150  H4    S    
C45   C85   A    
C165  H41   S    
C148  F12   S    
C162  H35   S    
Cu1   O17   S    
C154  H13   S    
C68   C76   A    
C180  H78   S    
Cu4   O4    S    
Cu7   O31   S    
Cu8   O32   S    
C63   O55   S    
Cu3   O3    S    
C168  H50   S    
C155  H17   S    
C51   C59   A    
C122  C142  A    
C2    C69   S    
C47   C55   A    
C178  H73   S    
C106  C110  A    
C125  C133  A    
C48   C56   A    
C22   C33   A    
C161  H31   S    
C98   O42   A    
C130  C136  A    
C8    O11   A    
C100  O34   A    
C176  H68   S    
C14   C146  A    
C96   O3    A    
C16   C148  A    
C90   O5    A    
C128  C133  A    
C159  H27   S    
C78   C86   A    
C132  C135  A    
Cu6   O22   S    
C158  H24   S    
C31   C39   A    
C64   C72   A    
C175  H66   S    
C152  H10   S    
C177  H72   S    
C147  F11   S    
C33   F26   S    
C45   C53   A    
Cu12  O34   S    
C123  C143  A    
C29   F33   S    
C124  C144  A    
C23   C87   S    
C35   F28   S    
C118  C126  A    
C172  H58   S    
C122  C130  A    
C10   C115  A    
C46   C86   A    
C6    O9    A    
