data_mof_unit_48303.cif
_audit_creation_date              2012-12-10T16:45:22-0500
_audit_creation_method            fapswitch 2.2
_symmetry_space_group_name_H-M    P1
_symmetry_Int_Tables_number       1
_space_group_crystal_system       triclinic
_cell_length_a                    7.459804
_cell_length_b                    8.693134
_cell_length_c                    15.822404
_cell_angle_alpha                 94.740186
_cell_angle_beta                  75.180756
_cell_angle_gamma                 103.380664
_cell_volume                      964.711638211

loop_
_atom_site_label
_atom_site_type_symbol
_atom_type_description
_atom_site_fract_x
_atom_site_fract_y
_atom_site_fract_z
_atom_type_partial_charge
C1    C     C_R   0.545235 0.800181 0.502645 0.852678
C2    C     C_R   0.454754 0.199819 0.497370 0.852814
C3    C     C_R   0.287117 0.373418 0.074875 -0.221280
C4    C     C_R   0.725356 0.581674 0.919156 -0.220737
C5    C     C_R   0.158836 0.334996 0.022617 -0.216978
C6    C     C_R   0.854525 0.617130 0.971040 -0.218074
C7    C     C_2   0.570480 0.968307 0.503884 -0.341211
C8    C     C_2   0.429492 0.031695 0.496153 -0.341103
C9    C     C_R   0.384351 0.487966 0.666099 0.774048
C10   C     C_R   0.615561 0.510952 0.333809 0.773538
C11   C     C_R   0.314530 0.466075 0.760719 -0.048181
C12   C     C_R   0.685311 0.523930 0.238515 -0.048020
C13   C     C_R   0.078609 0.341562 0.884804 -0.191867
C14   C     C_R   0.931029 0.619512 0.110429 -0.193068
C15   C     C_R   0.130079 0.382776 0.797293 -0.181276
C16   C     C_R   0.875286 0.590586 0.199663 -0.174428
C17   C     C_R   0.443783 0.513949 0.813135 -0.242340
C18   C     C_R   0.554359 0.478696 0.186668 -0.246385
C19   C     C_R   0.398222 0.469078 0.900753 0.077930
C20   C     C_R   0.607280 0.503874 0.096194 0.079556
C21   C     C_R   0.211297 0.382378 0.936355 0.147103
C22   C     C_R   0.798148 0.579744 0.058967 0.150123
C23   C     C_R   0.533205 0.505445 0.953276 0.060608
C24   C     C_R   0.474878 0.461052 0.042567 0.058606
Cu1   Cu    Cu3+1 0.322120 0.483240 0.490330 1.103754
Cu2   Cu    Cu3+1 0.677880 0.516760 0.509670 1.104511
H1    H     H_    0.016764 0.267454 0.050190 0.157470
H2    H     H_    0.000307 0.674874 0.941902 0.159909
H3    H     H_    0.978754 0.625921 0.238647 0.171208
H4    H     H_    0.028225 0.344726 0.757661 0.169266
H5    H     H_    0.935719 0.275229 0.911903 0.149276
H6    H     H_    0.077681 0.675460 0.081793 0.148679
H7    H     H_    0.706129 0.040224 0.511142 0.199709
H8    H     H_    0.293841 0.959778 0.488897 0.199657
N1    N     N_2   0.945180 0.542040 0.524240 0.228820
N2    N     N_2   0.054820 0.457960 0.475760 0.228440
O1    O     O_R   0.384450 0.714270 0.493720 -0.546327
O2    O     O_R   0.615550 0.285730 0.506280 -0.546269
O3    O     O_R   0.684880 0.742590 0.510050 -0.579704
O4    O     O_R   0.315120 0.257410 0.489950 -0.579837
O5    O     O_R   0.265540 0.477900 0.617090 -0.545187
O6    O     O_R   0.734460 0.522100 0.382910 -0.545372
O7    O     O_R   0.565970 0.506210 0.633420 -0.573800
O8    O     O_R   0.434030 0.493790 0.366580 -0.575829
H9    H     H_    0.409639 0.429464 0.219507 0.170462
H10   H     H_    0.580541 0.584418 0.782814 0.165121
H11   H     H_    0.234584 0.328463 0.140007 0.161223
H12   H     H_    0.783458 0.613380 0.851805 0.164882
F1    F     F_    0.010329 0.626130 0.588863 -0.565748
F2    F     F_    0.989673 0.373873 0.411135 -0.566371

loop_
_geom_bond_atom_site_label_1
_geom_bond_atom_site_label_2
_ccdc_geom_bond_type
N1    F1    S    
C19   C23   A    
C23   C24   A    
C17   C19   A    
C6    H2    S    
C10   O6    A    
C9    C11   S    
C2    O2    A    
C9    O5    A    
N1    N2    D    
C10   O8    A    
C1    O1    A    
C14   C22   A    
C16   H3    S    
C13   C21   A    
C7    C8    D    
C8    H8    S    
C7    H7    S    
C3    C24   A    
C10   C12   S    
C1    C7    S    
Cu1   O8    S    
C3    H11   S    
C19   C21   A    
C20   C22   A    
Cu2   O7    S    
C18   C20   A    
C13   C15   A    
Cu1   O4    S    
C14   C16   A    
Cu2   O3    S    
C9    O7    A    
C1    O3    A    
Cu1   N2    S    
Cu1   O5    S    
C6    C22   A    
C18   H9    S    
C2    O4    A    
Cu2   N1    S    
C5    C21   A    
C17   H10   S    
Cu2   O6    S    
C15   H4    S    
C4    C6    A    
C4    H12   S    
C12   C18   A    
C4    C23   A    
C20   C24   A    
Cu2   O2    S    
C2    C8    S    
Cu1   O1    S    
Cu1   Cu2   S    
C5    H1    S    
C11   C15   A    
C13   H5    S    
C11   C17   A    
C12   C16   A    
N2    F2    S    
C14   H6    S    
C3    C5    A    
