data_mof_unit_8058.cif
_audit_creation_date              2013-03-05T16:26:34-0500
_audit_creation_method            fapswitch 2.2
_symmetry_space_group_name_H-M    P1
_symmetry_Int_Tables_number       1
_space_group_crystal_system       triclinic
_cell_length_a                    18.453116
_cell_length_b                    18.453486
_cell_length_c                    34.279043
_cell_angle_alpha                 89.983138
_cell_angle_beta                  89.789963
_cell_angle_gamma                 89.530016
_cell_volume                      11672.3761904

loop_
_atom_site_label
_atom_site_type_symbol
_atom_site_description
_atom_site_fract_x
_atom_site_fract_y
_atom_site_fract_z
_atom_type_partial_charge
Zn1   Zn    Zn3+2 0.000000 0.586730 0.032740 1.073726
Zn2   Zn    Zn3+2 0.413270 0.000000 0.032740 1.069173
Zn3   Zn    Zn3+2 1.000000 0.413270 0.032740 1.075470
Zn4   Zn    Zn3+2 0.586730 0.000000 0.032740 1.068213
Zn5   Zn    Zn3+2 0.500000 0.086730 0.532740 1.076632
Zn6   Zn    Zn3+2 0.913270 0.500000 0.532740 1.089064
Zn7   Zn    Zn3+2 0.500000 0.913270 0.532740 1.090604
Zn8   Zn    Zn3+2 0.086730 0.500000 0.532740 1.082021
Zn9   Zn    Zn3+2 0.913250 0.500000 0.967240 0.978772
Zn10  Zn    Zn3+2 0.500000 0.913250 0.967240 0.967746
Zn11  Zn    Zn3+2 0.086750 0.500000 0.967240 0.979573
Zn12  Zn    Zn3+2 0.500000 0.086750 0.967240 0.967947
Zn13  Zn    Zn3+2 0.413250 0.000000 0.467240 0.964233
Zn14  Zn    Zn3+2 0.000000 0.413250 0.467240 0.970462
Zn15  Zn    Zn3+2 0.586750 0.000000 0.467240 0.959076
Zn16  Zn    Zn3+2 0.000000 0.586750 0.467240 0.963187
O1    O     O_3   0.000000 0.500000 0.999990 -0.529050
O2    O     O_3   0.500000 0.000000 0.999990 -0.526492
O3    O     O_3   0.500000 1.000000 0.499990 -0.523889
O4    O     O_3   0.000000 0.500000 0.499990 -0.523696
O5    O     O_R   0.060740 0.500000 0.912560 -0.614411
O6    O     O_R   0.500000 0.060740 0.912560 -0.619564
O7    O     O_R   0.939260 0.500000 0.912560 -0.613901
O8    O     O_R   0.500000 0.939260 0.912560 -0.619321
O9    O     O_R   0.560740 1.000000 0.412560 -0.620795
O10   O     O_R   0.000000 0.560740 0.412560 -0.626590
O11   O     O_R   0.439260 1.000000 0.412560 -0.646921
O12   O     O_R   1.000000 0.439260 0.412560 -0.640905
O13   O     O_R   1.000000 0.560680 0.087420 -0.611489
O14   O     O_R   0.439320 0.000000 0.087420 -0.615915
O15   O     O_R   1.000000 0.439320 0.087420 -0.608511
O16   O     O_R   0.560680 0.000000 0.087420 -0.615401
O17   O     O_R   0.500000 0.060680 0.587420 -0.613242
O18   O     O_R   0.939320 0.500000 0.587420 -0.620143
O19   O     O_R   0.500000 0.939320 0.587420 -0.614310
O20   O     O_R   0.060680 0.500000 0.587420 -0.614083
O21   O     O_R   0.853840 0.585430 0.977070 -0.665803
O22   O     O_R   0.414570 0.853840 0.977070 -0.658000
O23   O     O_R   0.146160 0.414570 0.977070 -0.666414
O24   O     O_R   0.585430 0.146160 0.977070 -0.658429
O25   O     O_R   0.146160 0.585430 0.977070 -0.658636
O26   O     O_R   0.585430 0.853840 0.977070 -0.674093
O27   O     O_R   0.853840 0.414570 0.977070 -0.658235
O28   O     O_R   0.414570 0.146160 0.977070 -0.673800
O29   O     O_R   0.353840 0.085430 0.477070 -0.669774
O30   O     O_R   0.914570 0.353840 0.477070 -0.660308
O31   O     O_R   0.646160 0.914570 0.477070 -0.678195
O32   O     O_R   0.085430 0.646160 0.477070 -0.668449
O33   O     O_R   0.646160 0.085430 0.477070 -0.670115
O34   O     O_R   0.085430 0.353840 0.477070 -0.675463
O35   O     O_R   0.353840 0.914570 0.477070 -0.660374
O36   O     O_R   0.914570 0.646160 0.477070 -0.681883
O37   O     O_R   0.085450 0.353820 0.022910 -0.589842
O38   O     O_R   0.646180 0.085450 0.022910 -0.598855
O39   O     O_R   0.914550 0.646180 0.022910 -0.590609
O40   O     O_R   0.353820 0.914550 0.022910 -0.599283
O41   O     O_R   0.914550 0.353820 0.022910 -0.597708
O42   O     O_R   0.353820 0.085450 0.022910 -0.571402
O43   O     O_R   0.085450 0.646180 0.022910 -0.597180
O44   O     O_R   0.646180 0.914550 0.022910 -0.570882
O45   O     O_R   0.585450 0.853820 0.522910 -0.579005
O46   O     O_R   0.146180 0.585450 0.522910 -0.594562
O47   O     O_R   0.414550 0.146180 0.522910 -0.580164
O48   O     O_R   0.853820 0.414550 0.522910 -0.592479
O49   O     O_R   0.414550 0.853820 0.522910 -0.590271
O50   O     O_R   0.853820 0.585450 0.522910 -0.574133
O51   O     O_R   0.585450 0.146180 0.522910 -0.592642
O52   O     O_R   0.146180 0.414550 0.522910 -0.567853
C1    C     C_R   0.000115 0.499960 0.894300 0.934249
C2    C     C_R   0.499977 0.000009 0.894305 0.928708
C3    C     C_R   0.500365 0.999719 0.394323 0.988194
C4    C     C_R   0.000263 0.500449 0.394244 0.986731
C5    C     C_R   0.999317 0.500048 0.105562 0.822609
C6    C     C_R   0.499882 0.999911 0.105601 0.800516
C7    C     C_R   0.500006 0.999992 0.605643 0.812167
C8    C     C_R   0.999888 0.500023 0.605607 0.806668
C9    C     C_R   0.860173 0.639873 0.999931 0.906805
C10   C     C_R   0.359439 0.860798 0.999360 0.881359
C11   C     C_R   0.139925 0.360150 0.999901 0.907857
C12   C     C_R   0.640522 0.139189 0.999300 0.879431
C13   C     C_R   0.139498 0.640549 0.999521 0.868201
C14   C     C_R   0.639723 0.859880 0.000021 0.856562
C15   C     C_R   0.860560 0.359457 0.999564 0.866892
C16   C     C_R   0.360160 0.140076 0.000031 0.858358
C17   C     C_R   0.359379 0.138836 0.500796 0.903069
C18   C     C_R   0.858123 0.362591 0.498677 0.877546
C19   C     C_R   0.638493 0.858684 0.499461 0.869472
C20   C     C_R   0.141953 0.638375 0.498592 0.856424
C21   C     C_R   0.638596 0.141850 0.498832 0.855706
C22   C     C_R   0.140018 0.359932 0.499833 0.872531
C23   C     C_R   0.361884 0.858771 0.499209 0.869368
C24   C     C_R   0.858738 0.638517 0.499586 0.876458
C25   C     C_R   0.261665 0.687048 0.981451 -0.036409
C26   C     C_R   0.275642 0.222959 0.965843 -0.014158
C27   C     C_R   0.738551 0.313037 0.981519 -0.035343
C28   C     C_R   0.724799 0.777010 0.965853 -0.014670
C29   C     C_R   0.779125 0.725717 0.966182 -0.023144
C30   C     C_R   0.685657 0.262313 0.982572 -0.016814
C31   C     C_R   0.221475 0.274427 0.966130 -0.022793
C32   C     C_R   0.314534 0.737761 0.982562 -0.015851
C33   C     C_R   0.749999 0.201799 0.471130 -0.008094
C34   C     C_R   0.784070 0.731310 0.466081 -0.035773
C35   C     C_R   0.253031 0.802801 0.472091 -0.042701
C36   C     C_R   0.216092 0.266080 0.466962 -0.016272
C37   C     C_R   0.271394 0.215900 0.467517 -0.012214
C38   C     C_R   0.202219 0.749704 0.470382 -0.007299
C39   C     C_R   0.731036 0.783096 0.465637 -0.043909
C40   C     C_R   0.801620 0.253876 0.471355 -0.044868
C41   C     C_R   0.192960 0.698595 0.997845 -0.247553
C42   C     C_R   0.305831 0.197578 0.000738 -0.237762
C43   C     C_R   0.807078 0.301417 0.997900 -0.246649
C44   C     C_R   0.693949 0.802253 0.000718 -0.237490
C45   C     C_R   0.802515 0.693638 0.000864 -0.230364
C46   C     C_R   0.698110 0.192680 0.997452 -0.226573
C47   C     C_R   0.197673 0.306531 0.000803 -0.231093
C48   C     C_R   0.301908 0.807306 0.997579 -0.227051
C49   C     C_R   0.689117 0.203415 0.495711 -0.222423
C50   C     C_R   0.796898 0.687881 0.498460 -0.221217
C51   C     C_R   0.311801 0.798644 0.496895 -0.250411
C52   C     C_R   0.193330 0.301103 0.501207 -0.240204
C53   C     C_R   0.301961 0.192512 0.502258 -0.225952
C54   C     C_R   0.203665 0.688676 0.494968 -0.217269
C55   C     C_R   0.687819 0.796750 0.498207 -0.226852
C56   C     C_R   0.797015 0.313686 0.495530 -0.243543
C57   C     C_R   0.177548 0.769050 0.012791 0.194466
C58   C     C_R   0.287409 0.233409 0.035974 0.215676
C59   C     C_R   0.822322 0.230874 0.012697 0.193798
C60   C     C_R   0.711947 0.766428 0.035970 0.216552
C61   C     C_R   0.765998 0.711335 0.036077 0.216536
C62   C     C_R   0.768936 0.176268 0.011328 0.205814
C63   C     C_R   0.233552 0.288664 0.036040 0.213308
C64   C     C_R   0.230965 0.823639 0.011531 0.205348
C65   C     C_R   0.678565 0.268212 0.517722 0.192079
C66   C     C_R   0.748107 0.694155 0.530514 0.206939
C67   C     C_R   0.320748 0.733734 0.518945 0.198179
C68   C     C_R   0.220212 0.275082 0.537345 0.218066
C69   C     C_R   0.273911 0.219623 0.537960 0.194655
C70   C     C_R   0.267902 0.678577 0.517365 0.192946
C71   C     C_R   0.693977 0.748401 0.530436 0.204654
C72   C     C_R   0.731827 0.323172 0.517443 0.192703
C73   C     C_3   0.372712 0.687998 0.965611 0.257248
C74   C     C_3   0.183721 0.244434 0.930540 0.229561
C75   C     C_3   0.627644 0.312108 0.965719 0.257044
C76   C     C_3   0.817233 0.755743 0.930552 0.230017
C77   C     C_3   0.752256 0.813678 0.929175 0.218537
C78   C     C_3   0.690801 0.371312 0.964121 0.234566
C79   C     C_3   0.248521 0.186288 0.929211 0.218318
C80   C     C_3   0.309545 0.628832 0.963963 0.235159
C81   C     C_3   0.854532 0.214488 0.445262 0.274397
C82   C     C_3   0.766927 0.826714 0.434012 0.276919
C83   C     C_3   0.151795 0.798295 0.447543 0.250901
C84   C     C_3   0.303999 0.240062 0.429213 0.249137
C85   C     C_3   0.233340 0.289843 0.425735 0.237026
C86   C     C_3   0.215659 0.854996 0.444886 0.242980
C87   C     C_3   0.828534 0.766307 0.434725 0.238046
C88   C     C_3   0.797106 0.151098 0.447670 0.218412
C89   C     C_R   0.448921 0.958282 0.831517 0.237408
C90   C     C_R   0.957351 0.449679 0.831552 0.233851
C91   C     C_R   0.551048 0.041752 0.831316 0.237458
C92   C     C_R   0.043320 0.549885 0.831365 0.233886
C93   C     C_R   0.932257 0.492364 0.332158 0.222604
C94   C     C_R   0.478581 0.936735 0.331631 0.224129
C95   C     C_R   0.060136 0.525894 0.330854 0.226048
C96   C     C_R   0.530821 0.057990 0.331409 0.225757
C97   C     C_R   0.499972 0.000022 0.851821 -0.311035
C98   C     C_R   0.000330 0.499797 0.851758 -0.303071
C99   C     C_R   0.998312 0.503311 0.351611 -0.296954
C100  C     C_R   0.502096 0.998592 0.351827 -0.304484
C101  C     C_R   0.544086 0.049606 0.790622 -0.000612
C102  C     C_R   0.037066 0.555245 0.790481 -0.012961
C103  C     C_R   0.455953 0.950394 0.790806 -0.000134
C104  C     C_R   0.963438 0.444444 0.790639 -0.013522
C105  C     C_R   0.056143 0.535625 0.290082 -0.004867
C106  C     C_R   0.521911 0.061972 0.290654 -0.000793
C107  C     C_R   0.931125 0.489087 0.290816 -0.008671
C108  C     C_R   0.487058 0.933603 0.290651 -0.005363
C109  C     C_R   0.500027 0.999995 0.770227 -0.112964
C110  C     C_R   0.000168 0.499896 0.770131 -0.106137
C111  C     C_R   0.993897 0.511358 0.270018 -0.114581
C112  C     C_R   0.503460 0.998177 0.270176 -0.112540
C113  C     C_R   0.580756 0.104999 0.769786 0.159452
C114  C     C_R   0.066341 0.614471 0.769245 0.159002
C115  C     C_R   0.419318 0.894978 0.770134 0.160917
C116  C     C_R   0.934033 0.385300 0.769525 0.159879
C117  C     C_R   0.113370 0.567928 0.268455 0.186572
C118  C     C_R   0.531243 0.127894 0.269806 0.166077
C119  C     C_R   0.869425 0.464684 0.269497 0.154918
C120  C     C_R   0.480451 0.867866 0.269413 0.168010
C121  C     C_R   0.121504 0.549381 0.228845 0.100599
C122  C     C_R   0.545987 0.124341 0.229355 0.110994
C123  C     C_R   0.865715 0.479141 0.228969 0.107938
C124  C     C_R   0.462463 0.871837 0.229443 0.108103
C125  C     C_R   0.591757 0.096212 0.729240 0.108702
C126  C     C_R   0.081391 0.604888 0.729157 0.106496
C127  C     C_R   0.408322 0.903747 0.729630 0.108018
C128  C     C_R   0.918634 0.395072 0.729545 0.108321
C129  C     C_R   0.059689 0.525638 0.208394 0.087651
C130  C     C_R   0.525078 0.061401 0.208641 0.092113
C131  C     C_R   0.930963 0.491753 0.208395 0.095206
C132  C     C_R   0.479233 0.936125 0.208712 0.091872
C133  C     C_R   0.546103 0.048064 0.708707 0.090493
C134  C     C_R   0.042537 0.551209 0.708565 0.089494
C135  C     C_R   0.453967 0.951901 0.708903 0.086531
C136  C     C_R   0.957255 0.448898 0.708771 0.086117
C137  C     C_R   0.994758 0.509575 0.228979 0.020259
C138  C     C_R   0.502467 0.998635 0.229190 0.018114
C139  C     C_R   0.500034 0.999986 0.729318 0.024670
C140  C     C_R   0.999981 0.500005 0.729169 0.024888
C141  C     C_R   0.059805 0.521764 0.167600 -0.210414
C142  C     C_R   0.523681 0.060452 0.167744 -0.210946
C143  C     C_R   0.934363 0.485688 0.167606 -0.220731
C144  C     C_R   0.477402 0.938327 0.167813 -0.210505
C145  C     C_R   0.543321 0.048701 0.667885 -0.214510
C146  C     C_R   0.042327 0.549538 0.667716 -0.221518
C147  C     C_R   0.456742 0.951259 0.668071 -0.202460
C148  C     C_R   0.957159 0.450736 0.667917 -0.208084
C149  C     C_R   0.998193 0.500802 0.147712 -0.013722
C150  C     C_R   0.499780 0.999730 0.147824 -0.005042
C151  C     C_R   0.500026 0.999981 0.647940 -0.028706
C152  C     C_R   0.999698 0.500157 0.647839 -0.014812
H1    H     H_    0.106907 0.536324 0.150548 0.154881
H2    H     H_    0.538705 0.107335 0.150702 0.150237
H3    H     H_    0.887816 0.469351 0.150753 0.154051
H4    H     H_    0.461823 0.891729 0.150771 0.150431
H5    H     H_    0.574782 0.086668 0.650954 0.173174
H6    H     H_    0.072444 0.588406 0.650663 0.158389
H7    H     H_    0.425280 0.913292 0.651277 0.176736
H8    H     H_    0.927002 0.411880 0.651009 0.161970
N1    N     N_R   0.107373 0.786976 0.028233 0.248316
O53   O     O_R   0.065537 0.831755 0.009333 -0.347338
O54   O     O_R   0.092671 0.772190 0.064508 -0.307212
N2    N     N_R   0.325523 0.216508 0.071225 0.225060
O55   O     O_R   0.311895 0.156738 0.089882 -0.307193
O56   O     O_R   0.366264 0.265136 0.087393 -0.385617
N3    N     N_R   0.892324 0.212871 0.028069 0.248200
O57   O     O_R   0.934378 0.168188 0.009091 -0.347358
O58   O     O_R   0.906646 0.227533 0.064341 -0.306324
N4    N     N_R   0.673213 0.783161 0.071196 0.224918
O59   O     O_R   0.686449 0.842882 0.089911 -0.308715
O60   O     O_R   0.632317 0.734396 0.087308 -0.389170
N5    N     N_R   0.784233 0.674797 0.071865 0.240287
O61   O     O_R   0.793372 0.711485 0.103854 -0.302457
O62   O     O_R   0.790450 0.604522 0.072814 -0.446230
N6    N     N_R   0.788153 0.103968 0.023107 0.259421
O63   O     O_R   0.785850 0.051165 0.997999 -0.372989
O64   O     O_R   0.812551 0.091588 0.058059 -0.285103
N7    N     N_R   0.214810 0.325167 0.071818 0.242202
O65   O     O_R   0.204930 0.288416 0.103770 -0.293515
O66   O     O_R   0.208777 0.395455 0.072787 -0.439943
N8    N     N_R   0.211678 0.895841 0.023501 0.259232
O67   O     O_R   0.214154 0.948851 0.998500 -0.372275
O68   O     O_R   0.186957 0.907912 0.058512 -0.284840
N9    N     N_R   0.613739 0.279975 0.539992 0.262964
O69   O     O_R   0.554956 0.302418 0.522821 -0.337505
O70   O     O_R   0.613349 0.268036 0.577393 -0.320888
N10   N     N_R   0.758678 0.652870 0.565502 0.253080
O71   O     O_R   0.712510 0.603142 0.575315 -0.241291
O72   O     O_R   0.811635 0.668489 0.588917 -0.380609
N11   N     N_R   0.383390 0.722244 0.542776 0.264192
O73   O     O_R   0.435274 0.679628 0.530694 -0.280237
O74   O     O_R   0.383976 0.746180 0.578470 -0.326806
N12   N     N_R   0.190727 0.302216 0.573257 0.243704
O75   O     O_R   0.227228 0.348573 0.593742 -0.274606
O76   O     O_R   0.123242 0.290155 0.582020 -0.414044
N13   N     N_R   0.297939 0.189698 0.574454 0.237390
O77   O     O_R   0.320456 0.231804 0.602224 -0.279588
O78   O     O_R   0.298905 0.119858 0.579733 -0.419220
N14   N     N_R   0.280738 0.612815 0.538659 0.259125
O79   O     O_R   0.292245 0.552440 0.519946 -0.325940
O80   O     O_R   0.287305 0.614250 0.576425 -0.314661
N15   N     N_R   0.652558 0.759488 0.565419 0.252877
O81   O     O_R   0.600770 0.715130 0.574544 -0.241706
O82   O     O_R   0.669259 0.811619 0.589209 -0.377569
N16   N     N_R   0.717808 0.388794 0.538661 0.259811
O83   O     O_R   0.706899 0.449237 0.519950 -0.304192
O84   O     O_R   0.712580 0.387709 0.576508 -0.306789
C153  C     C_3   0.401234 0.719341 0.925937 -0.345436
C154  C     C_3   0.444346 0.665417 0.900779 -0.931732
H9    H     H_    0.488544 0.694046 0.885290 0.258236
H10   H     H_    0.469454 0.621816 0.918609 0.255438
H11   H     H_    0.409477 0.641807 0.877923 0.281643
H12   H     H_    0.357421 0.745114 0.908530 0.228709
H13   H     H_    0.439316 0.763767 0.932050 0.263118
C155  C     C_3   0.107777 0.210938 0.941651 -0.455779
C156  C     C_3   0.040177 0.258696 0.935804 -0.769639
H14   H     H_    0.044971 0.311887 0.950305 0.231551
H15   H     H_    0.029662 0.266769 0.904219 0.257319
H16   H     H_    0.992174 0.231058 0.948179 0.290887
H17   H     H_    0.097633 0.162456 0.923704 0.239001
H18   H     H_    0.107844 0.192804 0.972598 0.244958
C157  C     C_3   0.599621 0.280888 0.926029 -0.345638
C158  C     C_3   0.556702 0.334817 0.900932 -0.930794
H19   H     H_    0.512779 0.306143 0.885419 0.258294
H20   H     H_    0.531252 0.378271 0.918812 0.255165
H21   H     H_    0.591804 0.358611 0.878091 0.281663
H22   H     H_    0.643664 0.255231 0.908573 0.228251
H23   H     H_    0.561533 0.236389 0.932126 0.263281
C159  C     C_3   0.892909 0.789522 0.941618 -0.455538
C160  C     C_3   0.960717 0.741904 0.935898 -0.770265
H24   H     H_    0.955807 0.688772 0.950485 0.231739
H25   H     H_    0.971769 0.733705 0.904335 0.257439
H26   H     H_    0.008449 0.769725 0.948259 0.290941
H27   H     H_    0.903171 0.837928 0.923573 0.238809
H28   H     H_    0.892331 0.807830 0.972529 0.244995
C161  C     C_3   0.772091 0.894470 0.937678 -0.420584
C162  C     C_3   0.803708 0.934564 0.902273 -0.804044
H29   H     H_    0.832670 0.897335 0.882024 0.237662
H30   H     H_    0.759728 0.961672 0.885632 0.290751
H31   H     H_    0.841687 0.977014 0.912264 0.285230
H32   H     H_    0.722381 0.924578 0.946591 0.220731
H33   H     H_    0.809453 0.898915 0.962841 0.240539
C163  C     C_3   0.719428 0.391650 0.922377 -0.320559
C164  C     C_3   0.684981 0.460451 0.905237 -0.878127
H34   H     H_    0.694814 0.462536 0.873283 0.287281
H35   H     H_    0.625936 0.463336 0.910886 0.252542
H36   H     H_    0.709935 0.508789 0.918524 0.251514
H37   H     H_    0.778402 0.401190 0.923021 0.277040
H38   H     H_    0.714466 0.346766 0.901300 0.216527
C165  C     C_3   0.228307 0.105591 0.937819 -0.421490
C166  C     C_3   0.197014 0.065485 0.902472 -0.802556
H39   H     H_    0.168385 0.102723 0.882194 0.237869
H40   H     H_    0.241132 0.038245 0.885843 0.291403
H41   H     H_    0.158824 0.023144 0.912524 0.285066
H42   H     H_    0.277803 0.075351 0.946762 0.220911
H43   H     H_    0.190599 0.101357 0.962994 0.240505
C167  C     C_3   0.281287 0.608757 0.922225 -0.321929
C168  C     C_3   0.315730 0.539956 0.904970 -0.877342
H44   H     H_    0.306210 0.538067 0.873023 0.287270
H45   H     H_    0.374715 0.536900 0.910550 0.252554
H46   H     H_    0.290509 0.491609 0.918219 0.251593
H47   H     H_    0.222274 0.599359 0.922931 0.276135
H48   H     H_    0.286568 0.653726 0.901191 0.216123
C169  C     C_3   0.859833 0.255932 0.405424 -0.355087
C170  C     C_3   0.918723 0.226413 0.377632 -0.929624
H49   H     H_    0.969117 0.258286 0.380826 0.265485
H50   H     H_    0.931729 0.168649 0.383275 0.262294
H51   H     H_    0.900872 0.230862 0.346942 0.265989
H52   H     H_    0.807368 0.259056 0.390044 0.206144
H53   H     H_    0.873076 0.313469 0.411211 0.261365
C171  C     C_3   0.715618 0.828941 0.397830 -0.392297
C172  C     C_3   0.741426 0.878682 0.364826 -0.897790
H54   H     H_    0.718867 0.933999 0.369109 0.262644
H55   H     H_    0.801334 0.882090 0.363658 0.264446
H56   H     H_    0.721640 0.858432 0.336349 0.265117
H57   H     H_    0.705142 0.774250 0.386025 0.210516
H58   H     H_    0.661416 0.849241 0.407296 0.232565
C173  C     C_3   0.127148 0.764040 0.408197 -0.360395
C174  C     C_3   0.075005 0.813828 0.385631 -0.943021
H59   H     H_    0.018486 0.801418 0.393352 0.242612
H60   H     H_    0.084263 0.871832 0.392097 0.266512
H61   H     H_    0.080651 0.805539 0.353865 0.267211
H62   H     H_    0.173481 0.748402 0.389358 0.221814
H63   H     H_    0.098631 0.712425 0.413947 0.256500
C175  C     C_3   0.375821 0.284299 0.437594 -0.481376
C176  C     C_3   0.448469 0.243826 0.434935 -0.753371
H64   H     H_    0.447999 0.191285 0.450294 0.242593
H65   H     H_    0.462874 0.235191 0.403836 0.270259
H66   H     H_    0.491680 0.277524 0.447972 0.285833
H67   H     H_    0.382033 0.329545 0.416985 0.234683
H68   H     H_    0.372721 0.309775 0.466989 0.241867
C177  C     C_3   0.246026 0.372837 0.421987 -0.471287
C178  C     C_3   0.270730 0.393957 0.380765 -0.746508
H69   H     H_    0.315336 0.359379 0.369477 0.221642
H70   H     H_    0.225534 0.387204 0.360027 0.281624
H71   H     H_    0.288515 0.451269 0.380626 0.300696
H72   H     H_    0.194481 0.402354 0.428025 0.226466
H73   H     H_    0.284982 0.392956 0.443972 0.223003
C179  C     C_3   0.261346 0.856704 0.406138 -0.335880
C180  C     C_3   0.226957 0.898525 0.372001 -0.824931
H74   H     H_    0.199255 0.860868 0.351928 0.270308
H75   H     H_    0.188556 0.941267 0.381736 0.229368
H76   H     H_    0.269641 0.926083 0.354782 0.283395
H77   H     H_    0.313692 0.883356 0.412272 0.263875
H78   H     H_    0.277348 0.801469 0.396314 0.221947
C181  C     C_3   0.834024 0.712158 0.399680 -0.368552
C182  C     C_3   0.864946 0.744311 0.361996 -0.836424
H79   H     H_    0.820451 0.759610 0.341919 0.275004
H80   H     H_    0.899022 0.792287 0.367661 0.236927
H81   H     H_    0.898785 0.702967 0.346755 0.269780
H82   H     H_    0.870079 0.666415 0.408255 0.245115
H83   H     H_    0.781461 0.685788 0.393437 0.222789
C183  C     C_3   0.756875 0.128604 0.409403 -0.341308
C184  C     C_3   0.804229 0.088172 0.379649 -0.857408
H84   H     H_    0.824236 0.125892 0.357062 0.282391
H85   H     H_    0.850352 0.059493 0.393673 0.232509
H86   H     H_    0.771205 0.047611 0.364038 0.269591
H87   H     H_    0.711862 0.091795 0.416952 0.255412
H88   H     H_    0.729221 0.175166 0.395236 0.237576
C185  C     C_3   0.438135 0.671190 0.993688 -0.353762
C186  C     C_3   0.435672 0.705791 0.034431 -0.833416
H89   H     H_    0.451282 0.763553 0.032834 0.249935
H90   H     H_    0.381490 0.701819 0.048245 0.257858
H91   H     H_    0.475582 0.677997 0.053574 0.265589
H92   H     H_    0.446822 0.612054 0.996447 0.191628
H93   H     H_    0.489622 0.690045 0.980290 0.215221
C187  C     C_3   0.177248 0.300955 0.896281 -0.335446
C188  C     C_3   0.240117 0.353233 0.889112 -0.845086
H94   H     H_    0.267281 0.368591 0.916586 0.259092
H95   H     H_    0.279593 0.330804 0.867915 0.262711
H96   H     H_    0.218805 0.403824 0.875598 0.263628
H97   H     H_    0.164121 0.272184 0.868769 0.187408
H98   H     H_    0.130876 0.337749 0.902317 0.229399
C189  C     C_3   0.561883 0.328728 0.993852 -0.353391
C190  C     C_3   0.563912 0.293967 0.034564 -0.833280
H99   H     H_    0.548296 0.236218 0.032935 0.249913
H100  H     H_    0.617952 0.297864 0.048333 0.257809
H101  H     H_    0.523812 0.321699 0.053768 0.265683
H102  H     H_    0.553109 0.387846 0.996670 0.191619
H103  H     H_    0.510571 0.309876 0.980466 0.215168
C191  C     C_3   0.824348 0.699169 0.896343 -0.335880
C192  C     C_3   0.761757 0.646649 0.889253 -0.845111
H104  H     H_    0.734290 0.631319 0.916753 0.259453
H105  H     H_    0.722475 0.668870 0.868035 0.262232
H106  H     H_    0.783410 0.596069 0.875811 0.263664
H107  H     H_    0.837709 0.727927 0.868800 0.186872
H108  H     H_    0.870779 0.662559 0.902395 0.229339
C193  C     C_3   0.698122 0.809555 0.893831 -0.300513
C194  C     C_3   0.629389 0.763847 0.899005 -0.872243
H109  H     H_    0.638649 0.713882 0.916177 0.265092
H110  H     H_    0.585998 0.795981 0.913351 0.291721
H111  H     H_    0.608816 0.748197 0.869823 0.235863
H112  H     H_    0.677586 0.864690 0.886598 0.217697
H113  H     H_    0.727590 0.792763 0.867084 0.197776
C195  C     C_3   0.685151 0.440559 0.990849 -0.349007
C196  C     C_3   0.684786 0.430964 0.035402 -0.846376
H114  H     H_    0.720606 0.386341 0.045387 0.256070
H115  H     H_    0.704462 0.481581 0.049153 0.277398
H116  H     H_    0.629155 0.423097 0.046615 0.263057
H117  H     H_    0.732282 0.475593 0.984284 0.244046
H118  H     H_    0.636849 0.473209 0.982487 0.187391
C197  C     C_3   0.303113 0.190121 0.893843 -0.300195
C198  C     C_3   0.371917 0.235656 0.898922 -0.871894
H119  H     H_    0.362638 0.285617 0.916118 0.265023
H120  H     H_    0.415121 0.203395 0.913190 0.292066
H121  H     H_    0.392779 0.251310 0.869714 0.235927
H122  H     H_    0.323581 0.134900 0.886680 0.217665
H123  H     H_    0.274019 0.206893 0.867084 0.198324
C199  C     C_3   0.314829 0.559451 0.990608 -0.349905
C200  C     C_3   0.314700 0.568829 0.035172 -0.845025
H124  H     H_    0.278799 0.613428 0.045233 0.256003
H125  H     H_    0.294833 0.518161 0.048879 0.277753
H126  H     H_    0.370209 0.576600 0.046360 0.262940
H127  H     H_    0.267739 0.524493 0.984037 0.243945
H128  H     H_    0.363198 0.526801 0.982174 0.187420
C201  C     C_3   0.932895 0.200253 0.462170 -0.316585
C202  C     C_3   0.945805 0.196567 0.506332 -0.821762
H129  H     H_    0.000977 0.216973 0.512825 0.254541
H130  H     H_    0.907185 0.229990 0.523379 0.248139
H131  H     H_    0.945451 0.139693 0.516558 0.255928
H132  H     H_    0.956835 0.150947 0.448620 0.173570
H133  H     H_    0.967672 0.244765 0.451793 0.242763
C203  C     C_3   0.789591 0.904632 0.447002 -0.290245
C204  C     C_3   0.802208 0.918689 0.491043 -0.844804
H134  H     H_    0.796031 0.872452 0.510444 0.256516
H135  H     H_    0.856404 0.942474 0.495636 0.243742
H136  H     H_    0.760774 0.956118 0.502892 0.257689
H137  H     H_    0.837607 0.922460 0.430169 0.161866
H138  H     H_    0.747038 0.942979 0.437072 0.227657
C205  C     C_3   0.086136 0.820749 0.473438 -0.334977
C206  C     C_3   0.093313 0.815545 0.518359 -0.884304
H139  H     H_    0.078041 0.760867 0.528789 0.241884
H140  H     H_    0.148677 0.825837 0.528966 0.273964
H141  H     H_    0.056048 0.855049 0.532565 0.245538
H142  H     H_    0.064936 0.874862 0.464972 0.193438
H143  H     H_    0.044809 0.781771 0.465621 0.236218
C207  C     C_3   0.315742 0.178943 0.397692 -0.327433
C208  C     C_3   0.264585 0.113711 0.397573 -0.851894
H144  H     H_    0.247106 0.098314 0.427339 0.267667
H145  H     H_    0.217164 0.123481 0.378593 0.255028
H146  H     H_    0.293265 0.065994 0.384874 0.252184
H147  H     H_    0.316583 0.204065 0.368271 0.183103
H148  H     H_    0.369868 0.153924 0.401463 0.231087
C209  C     C_3   0.172641 0.265307 0.396474 -0.300528
C210  C     C_3   0.116522 0.211436 0.412071 -0.909915
H149  H     H_    0.141189 0.164783 0.427394 0.268347
H150  H     H_    0.080840 0.239530 0.433145 0.275617
H151  H     H_    0.083187 0.190843 0.387652 0.244033
H152  H     H_    0.139833 0.313197 0.387421 0.214130
H153  H     H_    0.197061 0.244927 0.369003 0.198107
C211  C     C_3   0.199979 0.934877 0.459275 -0.327731
C212  C     C_3   0.196427 0.951865 0.503053 -0.801129
H154  H     H_    0.231366 0.915992 0.520796 0.250756
H155  H     H_    0.214905 0.008293 0.507987 0.250062
H156  H     H_    0.139778 0.950209 0.513701 0.252003
H157  H     H_    0.242773 0.970609 0.447266 0.232861
H158  H     H_    0.149411 0.955306 0.445559 0.164110
C213  C     C_3   0.905383 0.790979 0.448638 -0.307999
C214  C     C_3   0.919542 0.801113 0.492972 -0.827182
H159  H     H_    0.873298 0.794478 0.512483 0.252229
H160  H     H_    0.957323 0.759363 0.504148 0.254328
H161  H     H_    0.943589 0.854927 0.498438 0.240532
H162  H     H_    0.944981 0.750107 0.438061 0.217008
H163  H     H_    0.921548 0.840800 0.433023 0.162003
C215  C     C_3   0.820403 0.084724 0.472498 -0.345440
C216  C     C_3   0.812512 0.089383 0.517472 -0.864764
H164  H     H_    0.820713 0.144344 0.529223 0.271139
H165  H     H_    0.757704 0.072502 0.526900 0.241801
H166  H     H_    0.852125 0.052395 0.531655 0.243134
H167  H     H_    0.784070 0.042238 0.463239 0.228921
H168  H     H_    0.875645 0.065949 0.464455 0.186219
N17   N     N_R   0.384100 0.934017 0.850833 0.189104
O85   O     O_R   0.386865 0.886356 0.878752 -0.414155
O86   O     O_R   0.321186 0.953983 0.837385 -0.433729
N18   N     N_R   0.904322 0.407735 0.852239 0.210373
O87   O     O_R   0.923516 0.364148 0.880285 -0.452073
O88   O     O_R   0.836143 0.413884 0.843158 -0.431245
N19   N     N_R   0.615813 0.066048 0.850409 0.189356
O89   O     O_R   0.612985 0.113928 0.878216 -0.413868
O90   O     O_R   0.678763 0.045772 0.836898 -0.433811
N20   N     N_R   0.096423 0.591745 0.851824 0.210473
O91   O     O_R   0.077301 0.635417 0.879908 -0.451927
O92   O     O_R   0.164594 0.585461 0.842483 -0.429911
N21   N     N_R   0.865832 0.495818 0.354131 0.189866
O93   O     O_R   0.854406 0.452067 0.383242 -0.437557
O94   O     O_R   0.819888 0.548229 0.347520 -0.421855
N22   N     N_R   0.443916 0.878717 0.352420 0.194792
O95   O     O_R   0.473302 0.850658 0.383468 -0.442675
O96   O     O_R   0.383044 0.852806 0.339752 -0.445240
N23   N     N_R   0.128689 0.531584 0.350384 0.186910
O97   O     O_R   0.135778 0.571299 0.381462 -0.433138
O98   O     O_R   0.185917 0.501591 0.334950 -0.460669
N24   N     N_R   0.575810 0.109668 0.351087 0.201219
O99   O     O_R   0.554721 0.140725 0.383267 -0.470407
O100  O     O_R   0.639931 0.123768 0.337256 -0.434084
C217  C     C_3   0.595693 0.178535 0.788785 -0.369227
C218  C     C_3   0.528010 0.211082 0.808258 -0.832680
H169  H     H_    0.481953 0.211620 0.787474 0.260751
H170  H     H_    0.512153 0.180605 0.834750 0.279402
H171  H     H_    0.539100 0.267780 0.817092 0.251328
H172  H     H_    0.641150 0.175204 0.809701 0.264883
H173  H     H_    0.611281 0.219595 0.766811 0.195050
C219  C     C_3   0.067224 0.691062 0.786513 -0.368581
C220  C     C_3   0.993341 0.713472 0.803389 -0.834308
H174  H     H_    0.950822 0.708753 0.780688 0.256968
H175  H     H_    0.977876 0.679779 0.828786 0.267019
H176  H     H_    0.995337 0.770744 0.813247 0.252935
H177  H     H_    0.110426 0.697328 0.808513 0.264315
H178  H     H_    0.078240 0.732249 0.763775 0.191091
C221  C     C_3   0.404441 0.821432 0.789217 -0.369142
C222  C     C_3   0.472141 0.788968 0.808452 -0.833982
H179  H     H_    0.518272 0.788647 0.787533 0.260321
H180  H     H_    0.487813 0.819361 0.834934 0.279571
H181  H     H_    0.461167 0.732197 0.817250 0.251692
H182  H     H_    0.358971 0.824712 0.810305 0.264918
H183  H     H_    0.388913 0.780358 0.767311 0.195669
C223  C     C_3   0.933329 0.308630 0.786722 -0.369200
C224  C     C_3   0.007310 0.286237 0.803193 -0.829369
H184  H     H_    0.049743 0.291201 0.780292 0.259171
H185  H     H_    0.022784 0.319775 0.828577 0.266169
H186  H     H_    0.005453 0.228889 0.812958 0.252750
H187  H     H_    0.890240 0.302205 0.808944 0.263968
H188  H     H_    0.922266 0.267540 0.763994 0.192362
C225  C     C_3   0.154485 0.633510 0.284033 -0.366515
C226  C     C_3   0.103469 0.691495 0.300436 -0.857236
H189  H     H_    0.059764 0.704204 0.279238 0.264376
H190  H     H_    0.078944 0.673894 0.328430 0.284944
H191  H     H_    0.135006 0.741476 0.305652 0.248398
H192  H     H_    0.195849 0.618744 0.305921 0.270768
H193  H     H_    0.184186 0.661200 0.260186 0.191927
C227  C     C_3   0.512469 0.201191 0.288537 -0.368164
C228  C     C_3   0.437852 0.201392 0.308280 -0.866032
H194  H     H_    0.436945 0.165961 0.334332 0.263309
H195  H     H_    0.423878 0.257227 0.317984 0.248761
H196  H     H_    0.395830 0.183057 0.287449 0.266009
H197  H     H_    0.554644 0.218590 0.309320 0.260349
H198  H     H_    0.508352 0.244577 0.266299 0.195002
C229  C     C_3   0.814495 0.412268 0.287295 -0.370181
C230  C     C_3   0.851065 0.344083 0.303346 -0.838417
H199  H     H_    0.882615 0.316460 0.279940 0.256651
H200  H     H_    0.887896 0.356601 0.327783 0.286428
H201  H     H_    0.808947 0.306363 0.314214 0.256577
H202  H     H_    0.780019 0.438593 0.309694 0.266354
H203  H     H_    0.776489 0.391209 0.265202 0.191201
C231  C     C_3   0.508262 0.795825 0.286164 -0.368897
C232  C     C_3   0.584271 0.802292 0.303548 -0.828361
H204  H     H_    0.621929 0.826239 0.281811 0.257203
H205  H     H_    0.584011 0.836130 0.330232 0.279790
H206  H     H_    0.604940 0.747654 0.311651 0.257074
H207  H     H_    0.470477 0.772677 0.307846 0.268708
H208  H     H_    0.514305 0.754424 0.262927 0.193204
C233  C     C_3   0.196191 0.552770 0.209554 -0.468199
C234  C     C_3   0.223784 0.477263 0.198068 -0.737004
H209  H     H_    0.226812 0.441956 0.224283 0.264918
H210  H     H_    0.188328 0.451271 0.176217 0.277331
H211  H     H_    0.278948 0.481586 0.185264 0.252922
H212  H     H_    0.195259 0.589501 0.183911 0.213085
H213  H     H_    0.237732 0.574201 0.229677 0.216151
C235  C     C_3   0.587521 0.185369 0.209287 -0.456614
C236  C     C_3   0.662134 0.159538 0.195099 -0.773341
H214  H     H_    0.694300 0.138691 0.220101 0.270826
H215  H     H_    0.658101 0.116226 0.172851 0.269886
H216  H     H_    0.691581 0.205728 0.181854 0.250318
H217  H     H_    0.555552 0.208575 0.184859 0.216988
H218  H     H_    0.599133 0.230788 0.229340 0.211469
C237  C     C_3   0.792403 0.485479 0.208453 -0.486916
C238  C     C_3   0.779984 0.561403 0.191532 -0.705646
H219  H     H_    0.784785 0.602769 0.214906 0.259825
H220  H     H_    0.819115 0.574078 0.167955 0.282325
H221  H     H_    0.724610 0.565071 0.179059 0.259122
H222  H     H_    0.787565 0.443697 0.185343 0.214437
H223  H     H_    0.746429 0.477653 0.228821 0.215074
C239  C     C_3   0.423305 0.808890 0.209987 -0.449418
C240  C     C_3   0.346184 0.830382 0.198139 -0.787309
H224  H     H_    0.314794 0.847953 0.224244 0.268876
H225  H     H_    0.345706 0.874922 0.176449 0.270205
H226  H     H_    0.318772 0.782936 0.185032 0.248570
H227  H     H_    0.454567 0.788469 0.184484 0.218189
H228  H     H_    0.416560 0.762280 0.230014 0.213016
C241  C     C_3   0.654960 0.134022 0.708852 -0.431832
C242  C     C_3   0.711218 0.079380 0.693673 -0.809771
H229  H     H_    0.731858 0.045630 0.718140 0.272923
H230  H     H_    0.688586 0.043252 0.671052 0.259304
H231  H     H_    0.757532 0.108883 0.680558 0.249581
H232  H     H_    0.635109 0.169364 0.684896 0.227989
H233  H     H_    0.685694 0.169270 0.728869 0.210508
C243  C     C_3   0.140421 0.649641 0.709375 -0.477529
C244  C     C_3   0.204284 0.602023 0.696230 -0.720527
H234  H     H_    0.227802 0.573163 0.721726 0.261477
H235  H     H_    0.187999 0.561455 0.674179 0.276365
H236  H     H_    0.246895 0.636592 0.683088 0.263784
H237  H     H_    0.117920 0.680831 0.684452 0.211350
H238  H     H_    0.164488 0.689709 0.729480 0.212345
C245  C     C_3   0.345135 0.865911 0.709505 -0.439556
C246  C     C_3   0.288858 0.920532 0.694527 -0.789988
H239  H     H_    0.268204 0.954278 0.719063 0.271811
H240  H     H_    0.311475 0.956668 0.671803 0.266381
H241  H     H_    0.242555 0.891009 0.681606 0.248434
H242  H     H_    0.365000 0.830572 0.685483 0.230668
H243  H     H_    0.314420 0.830653 0.729658 0.210560
C247  C     C_3   0.859500 0.350344 0.710088 -0.476085
C248  C     C_3   0.795487 0.397952 0.697384 -0.725189
H244  H     H_    0.772156 0.426698 0.723049 0.261393
H245  H     H_    0.811554 0.438613 0.675258 0.276235
H246  H     H_    0.752799 0.363392 0.684487 0.263674
H247  H     H_    0.881839 0.319290 0.684996 0.215052
H248  H     H_    0.835638 0.310159 0.730304 0.212140

loop_
_geom_bond_atom_site_label_1
_geom_bond_atom_site_label_2
_geom_bond_distance
_ccdc_geom_bond_type
C229  C230  1.526334 S    
C232  H205  1.107644 S    
C192  H105  1.105174 S    
C196  H114  1.106667 S    
C216  H164  1.103174 S    
Zn5   O51   1.956453 S    
C49   C65   1.425687 A    
C211  C212  1.534206 S    
C145  C151  1.389309 A    
C239  H227  1.109933 S    
C236  H214  1.111148 S    
C28   C77   1.515179 S    
C122  C130  1.418419 A    
C77   C193  1.575358 S    
C217  H172  1.106778 S    
C102  C110  1.417294 A    
C135  C147  1.400481 A    
C155  C156  1.535133 S    
C188  H95   1.105138 S    
N19   O90   1.301115 A    
C130  C138  1.420260 A    
C105  C111  1.416799 A    
N8    O68   1.300971 A    
C161  H32   1.110466 S    
C116  C223  1.532702 S    
C131  C137  1.415780 A    
O10   C4    1.277638 A    
C230  H199  1.111061 S    
N16   O83   1.301098 A    
C225  C226  1.525550 S    
C93   N21   1.437285 S    
C84   C207  1.575288 S    
C1    C98   1.458314 S    
C178  H70   1.105689 S    
C202  H131  1.106487 S    
C74   C155  1.581540 S    
Zn13  O35   1.956030 S    
C39   C82   1.504870 S    
O34   C22   1.282125 A    
C157  C158  1.532749 S    
C228  H195  1.110853 S    
C110  C140  1.404176 A    
O52   C22   1.287475 A    
O41   C15   1.283733 A    
C17   C53   1.445225 S    
C245  H242  1.109909 S    
C114  C126  1.411866 A    
C92   C98   1.407098 A    
C128  C136  1.417424 A    
C194  H110  1.106405 S    
C193  H112  1.111077 S    
C182  H81   1.111294 S    
C180  H76   1.109218 S    
Zn4   O2    1.958287 S    
C248  H245  1.108069 S    
C237  H222  1.109963 S    
C85   C177  1.556410 S    
C185  H92   1.105748 S    
C229  H202  1.105376 S    
O47   C17   1.279621 A    
C46   C62   1.422710 A    
C18   C56   1.454397 S    
C226  H190  1.109123 S    
C40   C56   1.382242 A    
C84   C175  1.589390 S    
C36   C37   1.372555 A    
C74   C187  1.574666 S    
C108  C120  1.421283 A    
N10   O71   1.300617 A    
C195  H117  1.110280 S    
N4    O60   1.300809 A    
C166  H41   1.110378 S    
Zn16  O36   1.941297 S    
C96   C100  1.406634 A    
C238  H219  1.111097 S    
C80   C199  1.575083 S    
C187  H98   1.106939 S    
C76   C77   1.600691 S    
C186  H90   1.107696 S    
O22   C10   1.275750 A    
C169  C170  1.538915 S    
O46   C20   1.285910 A    
C226  H191  1.109490 S    
C118  C122  1.413529 A    
C204  H136  1.102669 S    
Zn15  O3    1.951854 S    
C191  H108  1.106931 S    
N1    O53   1.300543 A    
C211  H158  1.109607 S    
C240  H225  1.108171 S    
C213  H163  1.106243 S    
C201  H133  1.104462 S    
C176  H64   1.103232 S    
C7    C151  1.449892 S    
Zn16  O4    1.954982 S    
C143  H3    1.081831 S    
C234  H211  1.110529 S    
N2    O56   1.300800 A    
C162  H29   1.109473 S    
C125  C241  1.530545 S    
C233  H212  1.109942 S    
C134  C146  1.400654 A    
Zn3   O15   1.935173 S    
C25   C32   1.358053 A    
C80   C167  1.570070 S    
Zn4   O16   1.933326 S    
C181  H83   1.110285 S    
C198  H119  1.106226 S    
C208  H145  1.105929 S    
N14   O80   1.300991 A    
C242  H230  1.107891 S    
C220  H175  1.107577 S    
C69   N13   1.437432 S    
C185  C186  1.536190 S    
C196  H116  1.105519 S    
C159  C160  1.535096 S    
C89   C97   1.407908 A    
C184  H84   1.105486 S    
O11   C3    1.287258 A    
N18   O87   1.301562 A    
C236  H216  1.110632 S    
C92   N20   1.437543 S    
C209  H152  1.111870 S    
O49   C23   1.271699 A    
C202  H130  1.104416 S    
C221  H182  1.106780 S    
N22   O95   1.301623 A    
N11   O74   1.301080 A    
N12   O76   1.300907 A    
C181  C182  1.531675 S    
C231  H208  1.108585 S    
C242  H231  1.110670 S    
C244  H234  1.111101 S    
C59   N3    1.433342 S    
C230  H201  1.110821 S    
C124  C239  1.527739 S    
Zn10  O22   1.955738 S    
C141  C149  1.385656 A    
C158  H20   1.109612 S    
Zn12  O28   1.941297 S    
C146  C152  1.389062 A    
C89   C103  1.408549 A    
C243  H238  1.107620 S    
C170  H51   1.106360 S    
C90   C104  1.409817 A    
C210  H149  1.104236 S    
Zn14  O34   1.943190 S    
C71   N15   1.433494 S    
Zn10  O2    1.955523 S    
C175  H68   1.113127 S    
C234  H209  1.111125 S    
C214  H159  1.089956 S    
Zn3   O1    1.954678 S    
C247  H247  1.109938 S    
Zn15  O33   1.957571 S    
C201  C202  1.534741 S    
C30   C46   1.399914 A    
C94   N22   1.439002 S    
C168  H44   1.110335 S    
C127  C135  1.418247 A    
C219  C220  1.532837 S    
C120  C231  1.533275 S    
C207  C208  1.535861 S    
C206  H140  1.103615 S    
C96   N24   1.439131 S    
N15   O81   1.300624 A    
Zn8   O46   1.956745 S    
Zn13  O29   1.941640 S    
C153  H12   1.110384 S    
C111  C137  1.407218 A    
C142  H2    1.081250 S    
C215  H168  1.107876 S    
C189  C190  1.536205 S    
O27   C15   1.281574 A    
O29   C17   1.282942 A    
C101  C109  1.415871 A    
C238  H221  1.110660 S    
C197  H122  1.111082 S    
C60   C61   1.418383 A    
C212  H156  1.106627 S    
C241  C242  1.531138 S    
C164  H34   1.110328 S    
O8    C2    1.283692 A    
C181  H82   1.110717 S    
N6    O63   1.301313 A    
C119  C229  1.531809 S    
C105  C117  1.422838 A    
C148  H8    1.081157 S    
C90   N18   1.437548 S    
C231  H207  1.105414 S    
C223  H188  1.107989 S    
N10   O72   1.301061 A    
C219  H178  1.107956 S    
C57   N1    1.433368 S    
C200  H125  1.110642 S    
O16   C6    1.281408 A    
N9    O69   1.300678 A    
O14   C6    1.281567 A    
C164  H35   1.106788 S    
C178  H69   1.106164 S    
C169  H53   1.109565 S    
C126  C243  1.528854 S    
O40   C10   1.282366 A    
C163  C164  1.533047 S    
C114  C219  1.532696 S    
N5    O61   1.301135 A    
C53   C69   1.416839 A    
C24   C50   1.454902 S    
C247  C248  1.530780 S    
C174  H59   1.100954 S    
N20   O92   1.301203 A    
O45   C19   1.268022 A    
C173  H62   1.106040 S    
C62   N6    1.435902 S    
O17   C7    1.282178 A    
C198  H121  1.110369 S    
C118  C227  1.533927 S    
C197  C198  1.538710 S    
C123  C237  1.530603 S    
C155  H18   1.112256 S    
Zn5   O17   1.934899 S    
C225  H192  1.104765 S    
O9    C3    1.279560 A    
C78   C163  1.570019 S    
C36   C85   1.513082 S    
C128  C247  1.528836 S    
C50   C66   1.422150 A    
C124  C132  1.418478 A    
C153  C154  1.532753 S    
C102  C114  1.422170 A    
C6    C150  1.447375 S    
C233  C234  1.530677 S    
C132  C144  1.403095 A    
C87   C213  1.568894 S    
C246  H239  1.111108 S    
C182  H80   1.107722 S    
C85   C209  1.575605 S    
C117  C225  1.530954 S    
C172  H55   1.108362 S    
C237  H223  1.107104 S    
C244  H236  1.110696 S    
Zn9   O27   1.956030 S    
C5    C149  1.445007 S    
C136  C140  1.420084 A    
C224  H186  1.110611 S    
C190  H99   1.107699 S    
C2    C97   1.456311 S    
C235  H218  1.106907 S    
C66   C71   1.408328 A    
C168  H45   1.106812 S    
C170  H49   1.110157 S    
Zn9   O7    1.933145 S    
C218  H170  1.107716 S    
O50   C24   1.267655 A    
Zn10  O8    1.934716 S    
C73   C185  1.575511 S    
Zn11  O5    1.936554 S    
C214  H161  1.107301 S    
C91   C97   1.407860 A    
O5    C1    1.283930 A    
N21   O94   1.301294 A    
C166  H40   1.109261 S    
Zn11  O23   1.942874 S    
C29   C76   1.514234 S    
C194  H111  1.110380 S    
C35   C86   1.505421 S    
C162  H30   1.109442 S    
C237  C238  1.532037 S    
C48   C64   1.422117 A    
Zn4   O44   1.942350 S    
C212  H154  1.104294 S    
C34   C39   1.362330 A    
N14   O79   1.301278 A    
C75   C189  1.575479 S    
N13   O78   1.301368 A    
C191  C192  1.533940 S    
C93   C99   1.407593 A    
C42   C58   1.416152 A    
C94   C100  1.407605 A    
C195  C196  1.537392 S    
C176  H65   1.108974 S    
C88   C183  1.567388 S    
C242  H229  1.111111 S    
C82   C87   1.585879 S    
C167  H48   1.103839 S    
Zn12  O6    1.934990 S    
C163  H38   1.103831 S    
C171  H57   1.106205 S    
C95   C105  1.411196 A    
C106  C112  1.415412 A    
C144  H4    1.081159 S    
C104  C110  1.417081 A    
N23   O98   1.299210 A    
C103  C115  1.421328 A    
C74   C79   1.600562 S    
C10   C48   1.457005 S    
C148  C152  1.388899 A    
C21   C49   1.479137 S    
C203  C204  1.550632 S    
C117  C121  1.407530 A    
N12   O75   1.300696 A    
C136  C148  1.400827 A    
C146  H6    1.081163 S    
Zn1   O1    1.955218 S    
Zn2   O14   1.936740 S    
C115  C221  1.532804 S    
C189  H102  1.105759 S    
Zn1   O39   1.943900 S    
C184  H86   1.108197 S    
Zn2   O40   1.958290 S    
C188  H94   1.106555 S    
C19   C55   1.455763 S    
Zn3   O37   1.942005 S    
C183  H87   1.107202 S    
N6    O64   1.300974 A    
C216  H166  1.109437 S    
C23   C51   1.452211 S    
C199  H127  1.110269 S    
C130  C142  1.402352 A    
C160  H26   1.108708 S    
C145  H5    1.081073 S    
N24   O99   1.300105 A    
C107  C119  1.431038 A    
C232  H204  1.111047 S    
C108  C112  1.417063 A    
C84   C85   1.593622 S    
C228  H194  1.106806 S    
C213  C214  1.554543 S    
C154  H9    1.109019 S    
C103  C109  1.415801 A    
C234  H210  1.108220 S    
O6    C2    1.283744 A    
C246  H241  1.110671 S    
O18   C8    1.281788 A    
C180  H75   1.106730 S    
N16   O84   1.300763 A    
C75   C78   1.604763 S    
C183  C184  1.530917 S    
Zn10  O26   1.943190 S    
C141  H1    1.081361 S    
C129  C137  1.421600 A    
C224  H184  1.111017 S    
C32   C48   1.400307 A    
C190  H101  1.110483 S    
C39   C55   1.391522 A    
C177  H72   1.111018 S    
Zn14  O30   1.955738 S    
C195  H118  1.110230 S    
C27   C78   1.508783 S    
C82   C203  1.565959 S    
C222  H179  1.111001 S    
C238  H220  1.108006 S    
C194  H109  1.106209 S    
C11   C47   1.448622 S    
C32   C73   1.520861 S    
Zn1   O43   1.956453 S    
C31   C47   1.396024 A    
C9    C45   1.449079 S    
C172  H56   1.109460 S    
C219  H177  1.106160 S    
C60   N4    1.433378 S    
C207  H147  1.109947 S    
C126  C134  1.417482 A    
C156  H15   1.110428 S    
Zn5   O47   1.943900 S    
C25   C80   1.508314 S    
C223  C224  1.532802 S    
Zn8   O20   1.933326 S    
Zn6   O48   1.958290 S    
C204  H135  1.107246 S    
C199  C200  1.537424 S    
C179  C180  1.537695 S    
C121  C129  1.413791 A    
O35   C23   1.286885 A    
C201  H132  1.109465 S    
C165  H43   1.109711 S    
C83   C205  1.552968 S    
C154  H11   1.107310 S    
C115  C127  1.412975 A    
N3    O57   1.300548 A    
O32   C20   1.286832 A    
C96   C106  1.409125 A    
C213  H162  1.106097 S    
C113  C125  1.413060 A    
C81   C201  1.579800 S    
C241  H232  1.109896 S    
C197  H123  1.107312 S    
C33   C40   1.358691 A    
C198  H120  1.106405 S    
C232  H206  1.110647 S    
C220  H174  1.111011 S    
C75   C157  1.568744 S    
C192  H106  1.111717 S    
Zn16  O10   1.934990 S    
C196  H115  1.110658 S    
Zn9   O1    1.958593 S    
O12   C4    1.291860 A    
O48   C18   1.270596 A    
N18   O88   1.301202 A    
C87   C181  1.565254 S    
O38   C12   1.283645 A    
N7    O66   1.301341 A    
C86   C211  1.578698 S    
C143  C149  1.389095 A    
C162  H31   1.110408 S    
C217  H173  1.107201 S    
C68   N12   1.432894 S    
Zn14  O4    1.955523 S    
N23   O97   1.300867 A    
C187  C188  1.533972 S    
C179  H78   1.110892 S    
N22   O96   1.300559 A    
N4    O59   1.300670 A    
C188  H96   1.111703 S    
C121  C233  1.528180 S    
C173  C174  1.535862 S    
Zn13  O3    1.958593 S    
C68   C69   1.418894 A    
C33   C88   1.503216 S    
N8    O67   1.301322 A    
C116  C128  1.411833 A    
O21   C9    1.280706 A    
C215  H167  1.084089 S    
C26   C42   1.400279 A    
C51   C67   1.424946 A    
Zn6   O18   1.936740 S    
C52   C68   1.418249 A    
C14   C44   1.454444 S    
C227  H198  1.107680 S    
C160  H24   1.104721 S    
C156  H14   1.104720 S    
C147  C151  1.389210 A    
Zn7   O49   1.958555 S    
C28   C44   1.400144 A    
C210  H150  1.102406 S    
C228  H196  1.110936 S    
O25   C13   1.280498 A    
C174  H60   1.107895 S    
C133  C139  1.420071 A    
C247  H248  1.107631 S    
C171  C172  1.533599 S    
C239  H228  1.107887 S    
C54   C70   1.425550 A    
C193  H113  1.107291 S    
C63   N7    1.439127 S    
C20   C54   1.479901 S    
C13   C41   1.463152 S    
C155  H17   1.103568 S    
C185  H93   1.112123 S    
C15   C43   1.463610 S    
O36   C24   1.293649 A    
C226  H189  1.111110 S    
C65   N9    1.431788 S    
C90   C98   1.407304 A    
C210  H151  1.109610 S    
C37   C84   1.511006 S    
C165  H42   1.110492 S    
Zn11  O1    1.951854 S    
C38   C83   1.507972 S    
C91   C101  1.408641 A    
O37   C11   1.281507 A    
C67   N11   1.432249 S    
C56   C72   1.425447 A    
C222  H181  1.110105 S    
O43   C13   1.280944 A    
C123  C131  1.414046 A    
O28   C16   1.279137 A    
C187  H97   1.110857 S    
C236  H215  1.108015 S    
C248  H244  1.111103 S    
Zn2   O42   1.943582 S    
C186  H89   1.107713 S    
Zn5   O3    1.955218 S    
Zn6   O4    1.951550 S    
C205  H142  1.108460 S    
C38   C54   1.406557 A    
C120  C124  1.412714 A    
C33   C49   1.402004 A    
C157  H22   1.110418 S    
C66   N10   1.433742 S    
C191  H107  1.110850 S    
N1    O54   1.301087 A    
C161  H33   1.109691 S    
C211  H157  1.110798 S    
C240  H226  1.110625 S    
C199  H128  1.110235 S    
C239  C240  1.530483 S    
C243  H237  1.109937 S    
C125  C133  1.418312 A    
C61   N5    1.439306 S    
C169  H52   1.105147 S    
C8    C152  1.447670 S    
C93   C107  1.418692 A    
N2    O55   1.300669 A    
C147  H7    1.081082 S    
C233  H213  1.108529 S    
C113  C217  1.532824 S    
C189  H103  1.112118 S    
C44   C60   1.416519 A    
Zn15  O9    1.936554 S    
C159  H28   1.112252 S    
C165  C166  1.536871 S    
C86   C179  1.571049 S    
C208  H146  1.111692 S    
O13   C5    1.280068 A    
C206  H139  1.108608 S    
C65   C72   1.418076 A    
C161  C162  1.536923 S    
C220  H176  1.110612 S    
C192  H104  1.106472 S    
C205  H143  1.086888 S    
C203  H137  1.107781 S    
C175  C176  1.531655 S    
C79   C197  1.575410 S    
O23   C11   1.278677 A    
C36   C52   1.401584 A    
C178  H71   1.109927 S    
O31   C19   1.293760 A    
C209  H153  1.107066 S    
C67   C70   1.416544 A    
Zn8   O4    1.958287 S    
Zn12  O24   1.957837 S    
C202  H129  1.111681 S    
C55   C71   1.424150 A    
C30   C75   1.520582 S    
Zn2   O2    1.951550 S    
O7    C1    1.283608 A    
C31   C74   1.514249 S    
C58   N2    1.433350 S    
C245  C246  1.531160 S    
O26   C14   1.281721 A    
Zn15  O31   1.942874 S    
C200  H124  1.106675 S    
Zn16  O32   1.957837 S    
C186  H91   1.110483 S    
C246  H240  1.107910 S    
C193  C194  1.538633 S    
C27   C30   1.358259 A    
C64   N8    1.435867 S    
N19   O89   1.300504 A    
C127  C245  1.530531 S    
C47   C63   1.417073 A    
C172  H54   1.108855 S    
C221  H183  1.107224 S    
C244  H235  1.108060 S    
C122  C235  1.529294 S    
C231  C232  1.531501 S    
C45   C61   1.417194 A    
C58   C63   1.418002 A    
C158  H19   1.109087 S    
C224  H185  1.107591 S    
C81   C88   1.586740 S    
C190  H100  1.107696 S    
C156  H16   1.108721 S    
C179  H77   1.108385 S    
O39   C9    1.283986 A    
C170  H50   1.107837 S    
O15   C5    1.281745 A    
C94   C108  1.413989 A    
C72   N16   1.434009 S    
C175  H67   1.099986 S    
O51   C21   1.281485 A    
C131  C143  1.403853 A    
N21   O93   1.301116 A    
C83   C86   1.584716 S    
C81   C169  1.568124 S    
C78   C195  1.575110 S    
O20   C8    1.281392 A    
C73   C80   1.604792 S    
O44   C14   1.284799 A    
C95   N23   1.438002 S    
C230  H200  1.106293 S    
O24   C12   1.278378 A    
C25   C41   1.399630 A    
N13   O77   1.300437 A    
C119  C123  1.416348 A    
C34   C50   1.388711 A    
C159  H27   1.103626 S    
C177  H73   1.109524 S    
C91   N19   1.439578 S    
C134  C140  1.419859 A    
N3    O58   1.301073 A    
C218  H171  1.110143 S    
C171  H58   1.112451 S    
C112  C138  1.405142 A    
C214  H160  1.104243 S    
C76   C191  1.574677 S    
C227  H197  1.106614 S    
C243  C244  1.530784 S    
C223  H187  1.106167 S    
C235  C236  1.530984 S    
C200  H126  1.105516 S    
C240  H224  1.111164 S    
N9    O70   1.300814 A    
C164  H36   1.106205 S    
C107  C111  1.421452 A    
C209  C210  1.535891 S    
C174  H61   1.104074 S    
C135  C139  1.420144 A    
C16   C42   1.453959 S    
C109  C139  1.402324 A    
C167  C168  1.533035 S    
C79   C165  1.565815 S    
N5    O62   1.301341 A    
C95   C99   1.408249 A    
C184  H85   1.109523 S    
N20   O91   1.301576 A    
O42   C16   1.282856 A    
C77   C161  1.565794 S    
C104  C116  1.422146 A    
C208  H144  1.106683 S    
C206  H141  1.109479 S    
C183  H88   1.108556 S    
C133  C145  1.400518 A    
C28   C29   1.373128 A    
Zn9   O21   1.941640 S    
C225  H193  1.109400 S    
C37   C53   1.386794 A    
C216  H165  1.107735 S    
C241  H233  1.106656 S    
C173  H63   1.109215 S    
C101  C113  1.421369 A    
C160  H25   1.110426 S    
N24   O100  1.301301 A    
C41   C57   1.423735 A    
C12   C46   1.457519 S    
Zn8   O52   1.942350 S    
C3    C100  1.457096 S    
N17   O86   1.301115 A    
C43   C59   1.423263 A    
C22   C52   1.459915 S    
C4    C99   1.462904 S    
C154  H10   1.109619 S    
Zn1   O13   1.934899 S    
C29   C45   1.396189 A    
N11   O73   1.300598 A    
Zn3   O41   1.958555 S    
C221  C222  1.532279 S    
C182  H79   1.108038 S    
C180  H74   1.107402 S    
C248  H246  1.110695 S    
C26   C79   1.515199 S    
N15   O82   1.301005 A    
C215  C216  1.550346 S    
C227  C228  1.532004 S    
C132  C138  1.420560 A    
Zn4   O38   1.956745 S    
C163  H37   1.104122 S    
Zn7   O19   1.935173 S    
C158  H21   1.107302 S    
C35   C51   1.382129 A    
O19   C7    1.282254 A    
O33   C21   1.287356 A    
C82   C171  1.563470 S    
C235  H217  1.109885 S    
C168  H46   1.106284 S    
N7    O65   1.301113 A    
C177  C178  1.534376 S    
Zn7   O3    1.954678 S    
C142  C150  1.388206 A    
C245  H243  1.106671 S    
C88   C215  1.550083 S    
C166  H39   1.109475 S    
C222  H180  1.107767 S    
C59   C62   1.415886 A    
C73   C153  1.568558 S    
C27   C43   1.400371 A    
C106  C118  1.422055 A    
C57   C64   1.415708 A    
C144  C150  1.388912 A    
C26   C31   1.373173 A    
C207  H148  1.104903 S    
C229  H203  1.106771 S    
C212  H155  1.111542 S    
C205  C206  1.548924 S    
Zn11  O25   1.957571 S    
C35   C38   1.363152 A    
C70   N14   1.434447 S    
N17   O85   1.300460 A    
C153  H13   1.104745 S    
C204  H134  1.088114 S    
C157  H23   1.104654 S    
C83   C173  1.560515 S    
C129  C141  1.400227 A    
C40   C81   1.504677 S    
C89   N17   1.439612 S    
C76   C159  1.581394 S    
Zn6   O50   1.943582 S    
C176  H66   1.110460 S    
Zn12  O2    1.954982 S    
C167  H47   1.104285 S    
C92   C102  1.410036 A    
C218  H169  1.110998 S    
Zn13  O11   1.933145 S    
Zn14  O12   1.934716 S    
C217  C218  1.532324 S    
C203  H138  1.107200 S    
C34   C87   1.499142 S    
Zn7   O45   1.942005 S    
O30   C18   1.285029 A    
