data_mof_unit_29070.cif
_audit_creation_date              2012-12-10T16:48:46-0500
_audit_creation_method            fapswitch 2.2
_symmetry_space_group_name_H-M    P1
_symmetry_Int_Tables_number       1
_space_group_crystal_system       triclinic
_cell_length_a                    17.297978
_cell_length_b                    8.688707
_cell_length_c                    7.440363
_cell_angle_alpha                 102.911618
_cell_angle_beta                  90.230443
_cell_angle_gamma                 93.002288
_cell_volume                      1088.35226465

loop_
_atom_site_label
_atom_site_type_symbol
_atom_type_description
_atom_site_fract_x
_atom_site_fract_y
_atom_site_fract_z
_atom_type_partial_charge
C1    C     C_R   0.497632 0.199750 0.453660 0.888662
C2    C     C_R   0.502368 0.800250 0.546340 0.888662
C3    C     C_2   0.496506 0.031917 0.427504 -0.371252
C4    C     C_2   0.503494 0.968083 0.572496 -0.371252
C5    C     C_R   0.351293 0.505378 0.526567 0.787275
C6    C     C_R   0.648707 0.494623 0.473433 0.787275
C7    C     C_R   0.267734 0.517905 0.544197 -0.023997
C8    C     C_R   0.732266 0.482096 0.455803 -0.023997
C9    C     C_R   0.224621 0.543499 0.394491 -0.199879
C10   C     C_R   0.775379 0.456502 0.605509 -0.199880
C11   C     C_R   0.145065 0.551651 0.405460 -0.150394
C12   C     C_R   0.854935 0.448350 0.594540 -0.150394
C13   C     C_R   0.107105 0.531721 0.565473 0.193439
C14   C     C_R   0.892895 0.468281 0.434527 0.193439
C15   C     C_R   0.150200 0.513161 0.718401 -0.167839
C16   C     C_R   0.849800 0.486842 0.281599 -0.167839
C17   C     C_R   0.230387 0.505918 0.707878 -0.195427
C18   C     C_R   0.769613 0.494084 0.292123 -0.195427
C19   C     C_2   0.022562 0.528467 0.574910 -0.227907
C20   C     C_2   0.977438 0.471535 0.425090 -0.227907
Cu1   Cu    Cu3+1 0.508700 0.517250 0.683000 0.949654
Cu2   Cu    Cu3+1 0.491300 0.482750 0.317000 0.949654
H1    H     H_    0.252291 0.557555 0.268331 0.153945
H2    H     H_    0.747709 0.442445 0.731668 0.153945
H3    H     H_    0.121603 0.500116 0.843882 0.118465
H4    H     H_    0.878398 0.499888 0.156119 0.118465
H5    H     H_    0.886354 0.426120 0.711431 0.121341
H6    H     H_    0.113646 0.573881 0.288569 0.121341
H7    H     H_    0.489922 0.960517 0.287689 0.179689
H8    H     H_    0.510078 0.039483 0.712311 0.179689
H9    H     H_    0.439177 0.379245 0.958134 0.223707
H10   H     H_    0.560823 0.620755 0.041866 0.223707
N1    N     N_2   0.478180 0.456750 0.041980 -0.219842
N2    N     N_2   0.521820 0.543250 0.958020 -0.219842
O1    O     O_R   0.505650 0.286040 0.618880 -0.584234
O2    O     O_R   0.494350 0.713960 0.381120 -0.584234
O3    O     O_R   0.490960 0.256910 0.309800 -0.584299
O4    O     O_R   0.509040 0.743090 0.690200 -0.584299
O5    O     O_R   0.394600 0.516230 0.672450 -0.593122
O6    O     O_R   0.605400 0.483770 0.327550 -0.593122
O7    O     O_R   0.379910 0.487100 0.363380 -0.588334
O8    O     O_R   0.620090 0.512900 0.636620 -0.588334
H11   H     H_    0.737215 0.511960 0.174249 0.147275
H12   H     H_    0.262785 0.488042 0.825752 0.147275
H13   H     H_    0.002661 0.429867 0.290766 0.143076
H14   H     H_    0.997339 0.570135 0.709234 0.143076

loop_
_geom_bond_atom_site_label_1
_geom_bond_atom_site_label_2
_ccdc_geom_bond_type
C7    C17   A    
C2    C4    S    
H9    N1    S    
C15   C17   A    
Cu1   O1    S    
C14   C20   S    
C8    C18   A    
C11   C13   A    
C2    O4    A    
C19   C20   D    
Cu1   O5    S    
C1    O3    A    
Cu2   O6    S    
C13   C15   A    
N1    N2    D    
C3    C4    D    
C17   H12   S    
C18   H11   S    
C9    C11   A    
C3    H7    S    
C10   C12   A    
C11   H6    S    
C8    C10   A    
C12   C14   A    
C6    O6    A    
C5    O5    A    
C16   H4    S    
C14   C16   A    
C19   H14   S    
Cu2   O7    S    
C15   H3    S    
C13   C19   S    
C12   H5    S    
Cu1   O8    S    
C7    C9    A    
Cu2   O2    S    
C1    O1    A    
C16   C18   A    
C6    O8    A    
C2    O2    A    
C5    C7    S    
Cu2   N1    S    
C5    O7    A    
C9    H1    S    
C6    C8    S    
Cu1   N2    S    
C10   H2    S    
Cu1   Cu2   S    
Cu2   O3    S    
C4    H8    S    
Cu1   O4    S    
C20   H13   S    
C1    C3    S    
H10   N2    S    
