data_mof_unit_51162.cif
_audit_creation_date              2012-12-10T18:13:32-0500
_audit_creation_method            fapswitch 2.2
_symmetry_space_group_name_H-M    P1
_symmetry_Int_Tables_number       1
_space_group_crystal_system       triclinic
_cell_length_a                    12.628235
_cell_length_b                    13.104742
_cell_length_c                    16.692895
_cell_angle_alpha                 91.034523
_cell_angle_beta                  97.940011
_cell_angle_gamma                 97.453679
_cell_volume                      2711.07969945

loop_
_atom_site_label
_atom_site_type_symbol
_atom_type_description
_atom_site_fract_x
_atom_site_fract_y
_atom_site_fract_z
_atom_type_partial_charge
C1    C     C_R   0.560353 0.691278 0.506669 0.849538
C2    C     C_R   0.634222 0.534116 0.244473 -0.225015
C3    C     C_R   0.597955 0.627167 0.855047 -0.159730
C4    C     C_R   0.592867 0.582898 0.778435 -0.202702
C5    C     C_R   0.397598 0.549499 0.767629 -0.197414
C6    C     C_R   0.402920 0.592698 0.845052 -0.160238
C7    C     C_R   0.503290 0.628940 0.889766 0.201298
C8    C     C_2   0.578879 0.605920 0.027630 -0.213901
C9    C     C_2   0.508624 0.650087 0.976460 -0.251897
C10   C     C_R   0.492870 0.542305 0.734752 -0.026222
C11   C     C_R   0.318472 0.067951 0.372038 -0.156588
C12   C     C_R   0.514590 0.500593 0.349293 0.862069
C13   C     C_R   0.406651 0.200308 0.470013 -0.054136
C14   C     C_R   0.689952 0.837705 0.567764 -0.183449
C15   C     C_R   0.715501 0.942492 0.585861 -0.146274
C16   C     C_R   0.646758 0.010219 0.552550 -0.171902
C17   C     C_R   0.553350 0.973917 0.496963 0.089634
C18   C     C_R   0.537836 0.870410 0.469452 0.053236
C19   C     C_R   0.474773 0.036781 0.467915 0.054241
C20   C     C_R   0.393811 0.002320 0.401448 0.119636
C21   C     C_R   0.391686 0.904125 0.365690 0.111880
C22   C     C_R   0.461728 0.838576 0.400697 -0.235656
C23   C     C_R   0.440151 0.308727 0.489734 0.860674
C24   C     C_R   0.474121 0.132931 0.504438 -0.234031
C25   C     C_R   0.326170 0.167354 0.405323 -0.198630
C26   C     C_R   0.599153 0.801014 0.511684 -0.095222
C27   C     C_R   0.895067 0.334452 0.598567 -0.293667
C28   C     C_R   0.208360 0.620656 0.399268 0.045148
C29   C     C_R   0.103826 0.636459 0.370185 -0.228681
C30   C     C_R   0.019032 0.586440 0.405515 -0.209965
C31   C     C_R   0.038711 0.524194 0.472863 0.018541
C32   C     C_R   0.145440 0.503205 0.494766 0.210468
C33   C     C_R   0.956292 0.475768 0.514792 -0.086889
C34   C     C_R   0.488455 0.507914 0.650873 0.840895
C35   C     C_R   0.978805 0.392449 0.565594 0.148866
C36   C     C_R   0.084531 0.368739 0.583108 0.052317
C37   C     C_R   0.166667 0.426719 0.549702 -0.260688
C38   C     C_R   0.852095 0.506367 0.510247 0.210786
C39   C     C_R   0.792017 0.360716 0.583322 -0.035162
C40   C     C_R   0.529713 0.520813 0.265772 -0.066561
C41   C     C_R   0.441920 0.537922 0.209285 -0.198118
C42   C     C_R   0.458148 0.568641 0.132509 -0.163319
C43   C     C_R   0.562913 0.584541 0.111301 0.181082
C44   C     C_R   0.651717 0.566500 0.167585 0.122692
H1    H     H_    0.360574 0.527844 0.224396 0.169134
H2    H     H_    0.329329 0.593200 0.871540 0.129072
H3    H     H_    0.273600 0.219944 0.377729 0.162100
H4    H     H_    0.255925 0.044882 0.321676 0.178580
H5    H     H_    0.529193 0.159722 0.558208 0.134237
H6    H     H_    0.739083 0.785140 0.599537 0.159739
H7    H     H_    0.670199 0.090641 0.569574 0.126484
H8    H     H_    0.786256 0.970924 0.628496 0.143781
H9    H     H_    0.458036 0.763035 0.372335 0.173489
H10   H     H_    0.726123 0.314998 0.606564 0.137167
H11   H     H_    0.667137 0.582266 0.752905 0.159597
H12   H     H_    0.908171 0.268512 0.635010 0.168688
H13   H     H_    0.274934 0.656828 0.371132 0.156496
H14   H     H_    0.939190 0.593227 0.376179 0.137843
H15   H     H_    0.088218 0.684720 0.319096 0.178615
H16   H     H_    0.246286 0.407913 0.565484 0.212276
H17   H     H_    0.319478 0.520947 0.733846 0.150071
H18   H     H_    0.442501 0.683097 0.997570 0.161285
H19   H     H_    0.676050 0.656915 0.888270 0.135269
H20   H     H_    0.702807 0.521968 0.288169 0.147423
H21   H     H_    0.643266 0.571568 0.004977 0.177119
H22   H     H_    0.387747 0.576811 0.089454 0.141928
N1    N     N_R   0.774070 0.445420 0.541180 -0.094348
N2    N     N_R   0.226730 0.554050 0.459240 -0.129023
O1    O     O_R   0.631480 0.627510 0.519670 -0.595624
O2    O     O_R   0.455770 0.662400 0.493360 -0.607977
O3    O     O_R   0.598240 0.480510 0.398910 -0.612083
O4    O     O_R   0.422540 0.515400 0.372600 -0.625877
O5    O     O_R   0.544230 0.337600 0.506640 -0.609021
O6    O     O_R   0.368520 0.372490 0.480330 -0.632566
O7    O     O_R   0.577460 0.484600 0.627400 -0.615394
O8    O     O_R   0.401760 0.519490 0.601090 -0.629733
Zn1   Zn    Zn3+2 0.617320 0.476700 0.517570 0.947582
Zn2   Zn    Zn3+2 0.382680 0.523300 0.482430 0.932900
I1    I     I_    0.286673 0.848317 0.258763 -0.477919
N3    N     N_3   0.108778 0.287184 0.636438 -0.459973
H23   H     H_    0.187906 0.271907 0.635725 0.181984
H24   H     H_    0.104413 0.313299 0.695298 0.180082
N4    N     N_3   0.828552 0.606010 0.485432 -0.422762
H25   H     H_    0.793276 0.602333 0.424919 0.180539
H26   H     H_    0.896152 0.661953 0.497526 0.175721
N5    N     N_3   0.759089 0.581366 0.146311 -0.474226
H27   H     H_    0.779812 0.660253 0.139348 0.188582
H28   H     H_    0.814656 0.560216 0.193439 0.181799

loop_
_geom_bond_atom_site_label_1
_geom_bond_atom_site_label_2
_ccdc_geom_bond_type
C38   N4    S    
O2    Zn2   S    
C41   C42   A    
O1    Zn1   S    
C35   C36   A    
N1    Zn1   S    
C16   H7    S    
C27   H12   S    
C28   H13   S    
C5    C6    A    
C36   C37   A    
C28   N2    A    
O8    Zn2   S    
C3    C7    A    
C30   C31   A    
N5    H28   S    
C39   H10   S    
C11   C25   A    
C15   C16   A    
C13   C23   S    
O4    Zn2   S    
C17   C19   A    
C29   H15   S    
C2    C44   A    
C8    C9    D    
C18   C26   A    
C8    C43   S    
C25   H3    S    
C34   O7    A    
C32   N2    A    
C12   O4    A    
C8    H21   S    
C21   C22   A    
C13   C25   A    
C11   H4    S    
C23   O5    A    
C44   N5    S    
C2    H20   S    
C22   H9    S    
N2    Zn2   S    
C11   C20   A    
C9    H18   S    
C38   N1    A    
N3    H24   S    
C36   N3    S    
C27   C39   A    
N5    H27   S    
C16   C17   A    
C27   C35   A    
C15   H8    S    
C1    O1    A    
C13   C24   A    
C12   C40   S    
C43   C44   A    
C29   C30   A    
N4    H25   S    
C21   I1    S    
C31   C33   A    
C17   C18   A    
C5    H17   S    
C10   C34   S    
C32   C37   A    
C14   C26   A    
O7    Zn1   S    
C40   C41   A    
N4    H26   S    
C12   O3    A    
C4    H11   S    
C1    C26   S    
C42   C43   A    
C23   O6    A    
C4    C10   A    
C3    C4    A    
O3    Zn1   S    
C24   H5    S    
C7    C9    S    
C28   C29   A    
O5    Zn1   S    
C6    H2    S    
C18   C22   A    
C39   N1    A    
C31   C32   A    
C1    O2    A    
N3    H23   S    
C6    C7    A    
C3    H19   S    
C33   C38   A    
C19   C20   A    
C19   C24   A    
C5    C10   A    
C14   H6    S    
C30   H14   S    
C33   C35   A    
C37   H16   S    
C2    C40   A    
C20   C21   A    
O6    Zn2   S    
C42   H22   S    
C41   H1    S    
C14   C15   A    
C34   O8    A    
