data_mof_unit_57774.cif
_audit_creation_date              2012-12-11T14:45:30-0500
_audit_creation_method            fapswitch 2.2
_symmetry_space_group_name_H-M    P1
_symmetry_Int_Tables_number       1
_space_group_crystal_system       triclinic
_cell_length_a                    24.485282
_cell_length_b                    7.182807
_cell_length_c                    15.211272
_cell_angle_alpha                 89.999404
_cell_angle_beta                  101.464858
_cell_angle_gamma                 89.99944
_cell_volume                      2621.87302383

loop_
_atom_site_label
_atom_site_type_symbol
_atom_type_description
_atom_site_fract_x
_atom_site_fract_y
_atom_site_fract_z
_atom_type_partial_charge
O1    O     O_R   0.319150 0.364170 0.330530 -0.548907
O2    O     O_R   0.680850 0.635830 0.669470 -0.539891
O3    O     O_R   0.180850 0.864170 0.169470 -0.548909
O4    O     O_R   0.819150 0.135830 0.830530 -0.539894
O5    O     O_R   0.210330 0.696850 0.354180 -0.540422
O6    O     O_R   0.789670 0.303150 0.645820 -0.553634
O7    O     O_R   0.289670 0.196850 0.145820 -0.540425
O8    O     O_R   0.710330 0.803150 0.854180 -0.553633
C1    C     C_R   0.198534 0.524414 0.378628 0.739982
C2    C     C_R   0.801377 0.474600 0.621210 0.743422
C3    C     C_R   0.301466 0.024414 0.121373 0.739987
C4    C     C_R   0.698623 0.974599 0.878790 0.743422
O9    O     O_R   0.320550 0.694110 0.341970 -0.547431
O10   O     O_R   0.679450 0.305890 0.658030 -0.555999
O11   O     O_R   0.179450 0.194110 0.158030 -0.547438
O12   O     O_R   0.820550 0.805890 0.841970 -0.556006
O13   O     O_R   0.291860 0.861000 0.157170 -0.548364
O14   O     O_R   0.708140 0.139000 0.842830 -0.538100
O15   O     O_R   0.208140 0.361000 0.342830 -0.548362
O16   O     O_R   0.791860 0.639000 0.657170 -0.538115
C5    C     C_R   0.341792 0.526625 0.362073 0.680959
C6    C     C_R   0.658027 0.473291 0.638265 0.683972
C7    C     C_R   0.158208 0.026628 0.137927 0.680960
C8    C     C_R   0.841973 0.973289 0.861736 0.683965
O17   O     O_3   0.240460 0.529330 0.189380 -0.391268
O18   O     O_3   0.759540 0.470670 0.810620 -0.391578
O19   O     O_3   0.259540 0.029330 0.310620 -0.391263
O20   O     O_3   0.740460 0.970670 0.689380 -0.391580
V1    V     V_3+5 0.251770 0.805510 0.261240 1.387123
V2    V     V_3+5 0.748230 0.194490 0.738760 1.388750
V3    V     V_3+5 0.248230 0.305510 0.238760 1.387115
V4    V     V_3+5 0.751770 0.694490 0.761240 1.388736
C9    C     C_R   0.103084 0.029806 0.074521 -0.065158
C10   C     C_R   0.897519 0.969243 0.924261 -0.049036
C11   C     C_R   0.396914 0.529790 0.425482 -0.065171
C12   C     C_R   0.602481 0.469256 0.575737 -0.049037
C13   C     C_R   0.965124 0.791487 0.033001 -0.171489
C14   C     C_R   0.035877 0.206347 0.964694 -0.178263
C15   C     C_R   0.534887 0.291542 0.466966 -0.171465
C16   C     C_R   0.464110 0.706287 0.535344 -0.178226
C17   C     C_R   0.911506 0.814454 0.981672 -0.144104
C18   C     C_R   0.089591 0.182704 0.015846 -0.126918
C19   C     C_R   0.588503 0.314504 0.518303 -0.144062
C20   C     C_R   0.410398 0.682647 0.484185 -0.126915
C21   C     C_R   0.939122 0.102383 0.920224 -0.225277
C22   C     C_R   0.061454 0.897090 0.078631 -0.235155
C23   C     C_R   0.560872 0.602360 0.579796 -0.225281
C24   C     C_R   0.438552 0.397112 0.421349 -0.235140
C25   C     C_R   0.993807 0.077896 0.970754 0.148820
C26   C     C_R   0.006944 0.921058 0.027603 0.151120
C27   C     C_R   0.506188 0.577874 0.529261 0.148802
C28   C     C_R   0.493060 0.421077 0.472384 0.151099
H1    H     H_    0.070779 0.779659 0.123902 0.121746
H2    H     H_    0.929655 0.220378 0.875345 0.119339
H3    H     H_    0.429233 0.279716 0.376055 0.121740
H4    H     H_    0.570332 0.720323 0.624696 0.119335
H5    H     H_    0.120545 0.287521 0.010732 0.132580
H6    H     H_    0.881139 0.707069 0.985692 0.115093
H7    H     H_    0.379437 0.787431 0.489317 0.132583
H8    H     H_    0.618874 0.207141 0.514269 0.115066
H9    H     H_    0.974067 0.670217 0.075849 0.122841
H10   H     H_    0.027122 0.326759 0.921237 0.120841
H11   H     H_    0.525951 0.170304 0.424096 0.122844
H12   H     H_    0.472857 0.826665 0.578824 0.120844
C29   C     C_R   0.667271 0.977201 0.951071 -0.192923
C30   C     C_R   0.332680 0.010731 0.049217 -0.196163
C31   C     C_R   0.832729 0.477203 0.548930 -0.192890
C32   C     C_R   0.167321 0.510732 0.450784 -0.196177
C33   C     C_R   0.659908 0.923780 0.106080 0.389164
C34   C     C_R   0.338556 0.966525 0.892927 0.393766
C35   C     C_R   0.840093 0.423784 0.393922 0.389144
C36   C     C_R   0.161445 0.466532 0.607075 0.393773
C37   C     C_R   0.692622 0.932150 0.039747 0.281502
C38   C     C_R   0.306233 0.975688 0.959936 0.283604
C39   C     C_R   0.807379 0.432150 0.460255 0.281490
C40   C     C_R   0.193768 0.475691 0.540065 0.283607
C41   C     C_R   0.609837 0.001271 0.927664 -0.277977
C42   C     C_R   0.390487 0.018955 0.072663 -0.274782
C43   C     C_R   0.890164 0.501280 0.572338 -0.277982
C44   C     C_R   0.109514 0.518961 0.427339 -0.274778
C45   C     C_R   0.575432 0.976623 0.990820 0.030199
C46   C     C_R   0.424043 0.991717 0.008579 0.029896
C47   C     C_R   0.924569 0.476635 0.509182 0.030197
C48   C     C_R   0.075958 0.491727 0.491423 0.029897
C49   C     C_R   0.601151 0.945099 0.081717 -0.058695
C50   C     C_R   0.397626 0.975964 0.917112 -0.061847
C51   C     C_R   0.898850 0.445109 0.418285 -0.058687
C52   C     C_R   0.102375 0.475975 0.582890 -0.061853
C53   C     C_R   0.516092 0.980819 0.965843 0.109816
C54   C     C_R   0.483232 0.979804 0.033223 0.110054
C55   C     C_R   0.983909 0.480833 0.534158 0.109814
C56   C     C_R   0.016769 0.479817 0.466778 0.110054
C57   C     C_R   0.510223 0.954375 0.122940 -0.222705
C58   C     C_R   0.488549 0.974395 0.875499 -0.220552
C59   C     C_R   0.989778 0.454388 0.377062 -0.222704
C60   C     C_R   0.011452 0.474413 0.624503 -0.220548
C61   C     C_R   0.567343 0.933549 0.146129 -0.069066
C62   C     C_R   0.431068 0.967853 0.852042 -0.069957
C63   C     C_R   0.932658 0.433562 0.353873 -0.069058
C64   C     C_R   0.068933 0.467869 0.647960 -0.069955
H13   H     H_    0.583865 0.906524 0.216034 0.208644
H14   H     H_    0.413928 0.955502 0.781340 0.205567
H15   H     H_    0.916137 0.406538 0.283969 0.208647
H16   H     H_    0.086072 0.455519 0.718663 0.205570
H17   H     H_    0.408225 0.049283 0.141957 0.131633
H18   H     H_    0.593153 0.038431 0.858865 0.134085
H19   H     H_    0.091776 0.549289 0.358044 0.131635
H20   H     H_    0.906846 0.538441 0.641136 0.134084
H21   H     H_    0.487927 0.937723 0.176837 0.123803
H22   H     H_    0.510291 0.962356 0.820737 0.120480
H23   H     H_    0.012074 0.437737 0.323165 0.123804
H24   H     H_    0.989710 0.462376 0.679265 0.120485
O21   O     O_3   0.248594 0.966782 0.935414 -0.536786
C65   C     C_3   0.225967 0.798748 0.962543 0.181192
H25   H     H_    0.184326 0.781187 0.918670 0.197019
H26   H     H_    0.217309 0.813453 0.030378 0.103539
C66   C     C_3   0.260494 0.621061 0.956485 -0.354139
H27   H     H_    0.273603 0.618080 0.891007 0.268139
H28   H     H_    0.298625 0.621486 0.010133 0.172688
C67   C     C_3   0.227429 0.445204 0.966961 -0.663007
H29   H     H_    0.217172 0.438892 0.034256 0.227067
H30   H     H_    0.252754 0.322032 0.957637 0.251571
H31   H     H_    0.187731 0.439868 0.917388 0.273593
O22   O     O_3   0.750119 0.919527 0.064985 -0.538283
C68   C     C_3   0.771896 0.746282 0.042566 0.186105
H32   H     H_    0.812412 0.727435 0.089131 0.200835
H33   H     H_    0.783045 0.754794 0.976409 0.108248
C69   C     C_3   0.735451 0.572954 0.048002 -0.360123
H34   H     H_    0.723174 0.569685 0.114091 0.274854
H35   H     H_    0.696878 0.578603 0.995354 0.173750
C70   C     C_3   0.766276 0.393715 0.034840 -0.663968
H36   H     H_    0.773807 0.384589 0.965906 0.231337
H37   H     H_    0.740461 0.273969 0.046827 0.245825
H38   H     H_    0.807163 0.384633 0.081253 0.280592
O23   O     O_3   0.251406 0.466778 0.564588 -0.536784
C71   C     C_3   0.274033 0.298745 0.537458 0.181197
H39   H     H_    0.315673 0.281174 0.581333 0.197026
H40   H     H_    0.282693 0.313456 0.469624 0.103534
C72   C     C_3   0.239504 0.121060 0.543511 -0.354137
H41   H     H_    0.226394 0.118073 0.608988 0.268125
H42   H     H_    0.201375 0.121497 0.489860 0.172696
C73   C     C_3   0.272568 0.945201 0.533032 -0.663032
H43   H     H_    0.282840 0.938922 0.465747 0.227060
H44   H     H_    0.247236 0.822031 0.542330 0.251555
H45   H     H_    0.312259 0.939833 0.582623 0.273617
O24   O     O_3   0.749883 0.419519 0.435019 -0.538287
C74   C     C_3   0.728111 0.246265 0.457434 0.186090
H46   H     H_    0.687593 0.227423 0.410871 0.200825
H47   H     H_    0.716964 0.254754 0.523594 0.108265
C75   C     C_3   0.764557 0.072946 0.451984 -0.360126
H48   H     H_    0.776828 0.069699 0.385890 0.274885
H49   H     H_    0.803134 0.078588 0.504625 0.173731
C76   C     C_3   0.733737 0.893696 0.465143 -0.663904
H50   H     H_    0.726252 0.884483 0.534102 0.231357
H51   H     H_    0.759535 0.773961 0.453077 0.245846
H52   H     H_    0.692829 0.884683 0.418781 0.280525
S1    S     S_3+6 0.692410 0.887397 0.219705 -0.010935
O25   O     O_2   0.675639 0.045865 0.272641 -0.375683
O26   O     O_2   0.671177 0.708335 0.251603 -0.332799
O27   O     O_3   0.762248 0.879139 0.236290 -0.419992
H53   H     H_    0.774000 0.809912 0.293142 0.392149
S2    S     S_3+6 0.305378 0.940536 0.778924 -0.001839
O28   O     O_2   0.322450 0.102609 0.728427 -0.370430
O29   O     O_2   0.325675 0.763730 0.743371 -0.332198
O30   O     O_3   0.235583 0.934614 0.763267 -0.411194
H54   H     H_    0.223234 0.872618 0.704576 0.389734
S3    S     S_3+6 0.807593 0.387398 0.280297 -0.010960
O31   O     O_2   0.824361 0.545872 0.227362 -0.375696
O32   O     O_2   0.828831 0.208342 0.248402 -0.332817
O33   O     O_3   0.737755 0.379125 0.263710 -0.419989
H55   H     H_    0.726005 0.309916 0.206852 0.392158
S4    S     S_3+6 0.194623 0.440540 0.721078 -0.001829
O34   O     O_2   0.177551 0.602615 0.771574 -0.370428
O35   O     O_2   0.174326 0.263736 0.756633 -0.332189
O36   O     O_3   0.264418 0.434612 0.736735 -0.411193
H56   H     H_    0.276768 0.372614 0.795426 0.389730

loop_
_geom_bond_atom_site_label_1
_geom_bond_atom_site_label_2
_ccdc_geom_bond_type
O17   V3    S    
C24   H3    S    
C63   H15   S    
O1    C5    A    
O30   H54   S    
O19   V1    S    
O13   V1    S    
O3    C7    A    
C74   H46   S    
C64   H16   S    
C44   C48   A    
C70   H38   S    
O15   V3    S    
C69   H34   S    
C65   H25   S    
O23   C71   S    
S3    O32   D    
C14   C25   A    
C2    C31   S    
C67   H29   S    
O7    C3    A    
C60   H24   S    
C44   H19   S    
S1    O25   D    
C42   H17   S    
C9    C18   A    
C36   S4    S    
O9    V1    S    
C41   H18   S    
C74   H47   S    
C17   H6    S    
C14   C18   A    
C66   H28   S    
O4    C8    A    
C72   C73   S    
C59   C63   A    
O33   H55   S    
C58   C62   A    
C20   H7    S    
C30   C38   A    
O1    V3    S    
C29   C37   A    
C12   C23   A    
O2    V4    S    
C53   C58   A    
O3    V1    S    
C55   C60   A    
C1    O15   A    
S4    O35   D    
C7    C9    S    
C75   C76   S    
C34   C38   A    
C68   C69   S    
C33   S1    S    
C33   C37   A    
O14   V2    S    
C21   C25   A    
C76   H51   S    
C16   C20   A    
C51   C63   A    
C67   H31   S    
C36   C40   A    
C45   C53   A    
O11   C7    A    
C15   C28   A    
O12   C8    A    
C35   S3    S    
C9    C22   A    
C73   H45   S    
C10   C17   A    
O10   V2    S    
C71   C72   S    
C11   C24   A    
C34   S2    S    
C18   H5    S    
C36   C52   A    
C40   O23   S    
C67   H30   S    
C45   C49   A    
S3    O33   S    
O5    V1    S    
C39   O24   S    
C30   C42   A    
O7    V3    S    
O24   C74   S    
C27   C28   A    
O8    V4    S    
C74   C75   S    
C31   C43   A    
C71   H40   S    
C66   C67   S    
C2    O16   A    
C55   C56   A    
O18   V4    S    
C23   C27   A    
C46   C50   A    
C38   O21   S    
C58   H22   S    
C56   C59   A    
C8    C10   S    
C65   H26   S    
O5    C1    A    
S2    O30   S    
C42   C46   A    
C13   H9    S    
O36   H56   S    
C41   C45   A    
O8    C4    A    
C37   O22   S    
O9    C5    A    
C10   C21   A    
C32   C40   A    
C76   H52   S    
C11   C20   A    
C52   C64   A    
C19   H8    S    
C35   C51   A    
O6    V2    S    
C21   H2    S    
S1    O27   S    
C68   H32   S    
C73   H44   S    
C31   C39   A    
C32   C44   A    
C34   C50   A    
C69   C70   S    
C57   C61   A    
S3    O31   D    
C33   C49   A    
S4    O34   D    
C54   C57   A    
O21   C65   S    
O16   V4    S    
C3    O13   A    
C29   C41   A    
C73   H43   S    
C6    C12   S    
C48   C52   A    
C71   H39   S    
C70   H37   S    
C69   H35   S    
C47   C51   A    
O6    C2    A    
C15   C19   A    
C72   H41   S    
S4    O36   S    
O11   V3    S    
S2    O28   D    
C5    C11   S    
O12   V4    S    
C16   C27   A    
C15   H11   S    
C4    C29   S    
C22   C26   A    
C46   C54   A    
O27   H53   S    
O10   C6    A    
O20   V2    S    
C53   C54   A    
C1    C32   S    
S2    O29   D    
C62   H14   S    
O2    C6    A    
C35   C39   A    
C13   C26   A    
C72   H42   S    
C16   H12   S    
C60   C64   A    
C22   H1    S    
C43   H20   S    
C75   H49   S    
C47   C55   A    
C13   C17   A    
C50   C62   A    
O4    V2    S    
C65   C66   S    
C49   C61   A    
C43   C47   A    
C24   C28   A    
S1    O26   D    
C25   C26   A    
C4    O14   A    
C68   H33   S    
C75   H48   S    
C23   H4    S    
C12   C19   A    
C59   H23   S    
C48   C56   A    
C76   H50   S    
C66   H27   S    
C61   H13   S    
C70   H36   S    
C57   H21   S    
O22   C68   S    
C14   H10   S    
C3    C30   S    
