data_mof_unit_16849.cif
_audit_creation_date              2012-12-11T14:08:05-0500
_audit_creation_method            fapswitch 2.2
_symmetry_space_group_name_H-M    P1
_symmetry_Int_Tables_number       1
_space_group_crystal_system       triclinic
_cell_length_a                    11.164536
_cell_length_b                    10.933208
_cell_length_c                    18.67602
_cell_angle_alpha                 89.595365
_cell_angle_beta                  89.468366
_cell_angle_gamma                 59.723972
_cell_volume                      1968.64860436

loop_
_atom_site_label
_atom_site_type_symbol
_atom_type_description
_atom_site_fract_x
_atom_site_fract_y
_atom_site_fract_z
_atom_type_partial_charge
C1    C     C_R   0.302692 0.616411 0.614762 0.555721
C2    C     C_3   0.720012 0.543900 0.796059 0.068181
C3    C     C_3   0.723453 0.687715 0.806874 0.066971
C4    C     C_3   0.684633 0.648713 0.673033 0.019222
C5    C     C_3   0.787433 0.705518 0.675031 0.081980
C6    C     C_3   0.748582 0.501868 0.716667 0.083605
C7    C     C_2   0.661914 0.168891 0.673757 -0.142882
C8    C     C_2   0.678942 0.176777 0.830707 -0.107367
C9    C     C_2   0.784577 0.142099 0.786468 -0.139720
C10   C     C_2   0.763037 0.171874 0.709420 -0.182414
C11   C     C_2   0.283016 0.622897 0.694242 -0.154875
C12   C     C_R   0.654889 0.622242 0.600445 0.551064
C13   C     C_2   0.240555 0.645256 0.853949 0.140107
C14   C     C_2   0.288318 0.521301 0.817665 0.209825
C15   C     C_2   0.330742 0.509610 0.738956 -0.109340
C16   C     C_2   0.684177 0.691087 0.338828 -0.126417
C17   C     C_2   0.712545 0.700094 0.180711 0.126452
C18   C     C_2   0.820663 0.625644 0.226100 0.117433
C19   C     C_2   0.799922 0.606134 0.301748 -0.105674
C20   C     C_2   0.577358 0.309102 0.313675 -0.107026
C21   C     C_2   0.652720 0.162590 0.175546 0.134479
C22   C     C_2   0.522502 0.246629 0.199179 -0.134406
C23   C     C_R   0.625108 0.230330 0.602362 0.536492
C24   C     C_2   0.494535 0.280419 0.274751 -0.159523
C25   C     C_2   0.271100 0.628531 0.317715 -0.096722
C26   C     C_2   0.192341 0.653922 0.169595 -0.118714
C27   C     C_2   0.231529 0.740020 0.201094 0.119111
C28   C     C_2   0.234773 0.746210 0.278662 0.121471
C29   C     C_R   0.701063 0.104616 0.898946 0.523146
C30   C     C_R   0.749058 0.706727 0.882654 0.577717
C31   C     C_R   0.126109 0.702501 0.909585 0.557106
C32   C     C_R   0.676206 0.105930 0.104123 0.539257
C33   C     C_R   0.734892 0.717755 0.105007 0.593565
C34   C     C_R   0.291808 0.620317 0.393616 0.571982
C35   C     C_R   0.106098 0.703457 0.107212 0.568223
C36   C     C_R   0.647450 0.629893 0.398448 0.528241
C37   C     C_R   0.574346 0.305475 0.390809 0.559872
C38   C     C_3   0.578579 0.809263 0.781145 -0.325473
C39   C     C_3   0.546650 0.767441 0.708403 -0.338900
C40   C     C_3   0.834502 0.697772 0.755760 0.279326
Cr1   Cr    Cr6+3 0.393010 0.398050 0.501480 1.001005
Cr2   Cr    Cr6+3 0.398820 0.707980 0.501630 0.984874
Cr3   Cr    Cr6+3 0.708140 0.393940 0.496850 1.005962
Cr4   Cr    Cr6+3 0.937950 0.938450 0.008940 1.031830
Cr5   Cr    Cr6+3 0.626180 0.937030 0.994750 1.009168
Cr6   Cr    Cr6+3 0.937790 0.625760 0.001410 1.055765
H1    H     H_    0.578572 0.910771 0.775947 0.147456
H2    H     H_    0.889289 0.084420 0.806952 0.139489
H3    H     H_    0.836073 0.187505 0.679089 0.166393
H4    H     H_    0.574033 0.240242 0.811384 0.123561
H5    H     H_    0.593875 0.138495 0.700506 0.109258
H6    H     H_    0.391508 0.405371 0.715542 0.125954
H7    H     H_    0.493180 0.830669 0.818664 0.151587
H8    H     H_    0.228511 0.728130 0.716759 0.102740
H9    H     H_    0.877984 0.505976 0.324743 0.190324
H10   H     H_    0.610468 0.796838 0.320273 0.113767
H11   H     H_    0.434554 0.277110 0.164174 0.141336
H12   H     H_    0.410094 0.272058 0.298982 0.164429
H13   H     H_    0.654208 0.328529 0.288284 0.137112
H14   H     H_    0.472225 0.728874 0.715632 0.142941
H15   H     H_    0.194001 0.566442 0.197168 0.122018
H16   H     H_    0.299456 0.529588 0.292763 0.050074
H17   H     H_    0.495132 0.863895 0.674042 0.142759
H18   H     H_    0.726073 0.820286 0.660520 0.135238
H19   H     H_    0.610481 0.570809 0.803820 0.126623
H20   H     H_    0.690390 0.447262 0.703233 0.128138
O1    O     O_R   0.507110 0.256280 0.580300 -0.524012
O2    O     O_R   0.524640 0.695370 0.425100 -0.530841
O3    O     O_R   0.735890 0.504390 0.415980 -0.520050
O4    O     O_R   0.690560 0.277820 0.422350 -0.480964
O5    O     O_3   0.499990 0.499990 0.499980 -0.321363
O6    O     O_R   0.089190 0.825870 0.932320 -0.518451
O7    O     O_R   0.819070 0.053960 0.931440 -0.509016
O8    O     O_R   0.607070 0.076440 0.916460 -0.526707
O9    O     O_R   0.647110 0.806550 0.917690 -0.528292
O10   O     O_R   0.837080 0.593860 0.915300 -0.486489
O11   O     O_R   0.064770 0.636080 0.932550 -0.482933
O12   O     O_R   0.280830 0.527190 0.577940 -0.483081
O13   O     O_R   0.068250 0.829200 0.092940 -0.453538
O14   O     O_R   0.799650 0.057040 0.080330 -0.494324
O15   O     O_R   0.586130 0.079760 0.077080 -0.523910
O16   O     O_R   0.627700 0.809630 0.066580 -0.485553
O17   O     O_R   0.816140 0.597180 0.075920 -0.470611
O18   O     O_R   0.045360 0.639170 0.081440 -0.485642
O19   O     O_3   0.833980 0.833750 0.001700 -0.304359
O20   O     O_R   0.261360 0.738990 0.584270 -0.515675
O21   O     O_R   0.532590 0.694780 0.574370 -0.530276
O22   O     O_R   0.744470 0.503750 0.577000 -0.512989
O23   O     O_R   0.698520 0.277230 0.571620 -0.494713
O24   O     O_R   0.498530 0.256920 0.419280 -0.517851
O25   O     O_R   0.272880 0.527780 0.428680 -0.511241
O26   O     O_R   0.252780 0.739630 0.423250 -0.467334
N1    N     N_2   0.897501 0.406211 0.697687 -0.446861
H21   H     H_    0.930286 0.412688 0.647227 0.309777
C41   C     C_3   0.993309 0.266626 0.726316 -0.300191
H22   H     H_    0.031058 0.186306 0.682969 0.106872
H23   H     H_    0.949890 0.233649 0.769391 0.164081
H24   H     H_    0.086915 0.264187 0.746737 0.170903
Br1   Br    Br    0.013939 0.538944 0.779719 -0.600338
N2    N     N_2   0.900210 0.637994 0.622262 -0.528972
H25   H     H_    0.001008 0.578332 0.639239 0.299024
C42   C     C_3   0.885442 0.712541 0.555501 -0.287458
H26   H     H_    0.961048 0.638194 0.515627 0.178250
H27   H     H_    0.906412 0.800343 0.563958 0.146916
H28   H     H_    0.779517 0.755887 0.533512 0.149565
N3    N     N_2   0.303136 0.399976 0.856078 -0.496489
H29   H     H_    0.300068 0.401808 0.911286 0.258497
C43   C     C_3   0.307436 0.279335 0.821362 -0.276421
H30   H     H_    0.225865 0.261781 0.845176 0.164107
H31   H     H_    0.408052 0.182240 0.830901 0.146302
H32   H     H_    0.290210 0.294188 0.762908 0.163131
N4    N     N_2   0.315888 0.718155 0.846377 -0.572908
H33   H     H_    0.259825 0.815780 0.821970 0.237791
C44   C     C_3   0.381782 0.724742 0.912116 -0.275549
H34   H     H_    0.377193 0.656769 0.955466 0.147053
H35   H     H_    0.331840 0.835570 0.931806 0.173041
H36   H     H_    0.492363 0.686475 0.902454 0.148654
Br2   Br    Br    0.002678 0.482853 0.194981 -0.553666
N5    N     N_2   0.579682 0.725684 0.200802 -0.547663
H37   H     H_    0.500586 0.820202 0.182296 0.305139
C45   C     C_3   0.562612 0.603161 0.193194 -0.262752
H38   H     H_    0.506904 0.595270 0.240596 0.138503
H39   H     H_    0.663742 0.502181 0.190518 0.166511
H40   H     H_    0.504938 0.612085 0.143516 0.175264
N6    N     N_2   0.768545 0.103965 0.223143 -0.519486
H41   H     H_    0.854274 0.105257 0.203050 0.282567
C46   C     C_3   0.803475 0.967383 0.252921 -0.269695
H42   H     H_    0.883857 0.936789 0.294625 0.160086
H43   H     H_    0.844801 0.885447 0.210335 0.146929
H44   H     H_    0.710840 0.971948 0.278247 0.159376
Br3   Br    Br    0.247977 0.889706 0.151235 -0.550340
N7    N     N_2   0.182440 0.882654 0.310798 -0.453901
H45   H     H_    0.090792 0.961237 0.289224 0.272105
C47   C     C_3   0.281983 0.928080 0.323482 -0.221081
H46   H     H_    0.259063 0.020622 0.289098 0.164324
H47   H     H_    0.388914 0.842117 0.311901 0.172868
H48   H     H_    0.275178 0.960342 0.380241 0.160072
N8    N     N_2   0.845243 0.823134 0.770062 -0.526540
H49   H     H_    0.857571 0.838593 0.823209 0.267357
C48   C     C_3   0.941165 0.840794 0.723738 -0.273909
H50   H     H_    0.997748 0.882377 0.753805 0.117950
H51   H     H_    0.885610 0.909236 0.677782 0.157146
H52   H     H_    0.020695 0.740432 0.700472 0.193000
N9    N     N_2   0.799923 0.424754 0.844454 -0.498033
H53   H     H_    0.903242 0.391026 0.851910 0.316806
C49   C     C_3   0.728993 0.407221 0.905959 -0.289645
H54   H     H_    0.797327 0.302962 0.931303 0.163230
H55   H     H_    0.630894 0.413364 0.889647 0.136482
H56   H     H_    0.702932 0.489772 0.946892 0.181543

loop_
_geom_bond_atom_site_label_1
_geom_bond_atom_site_label_2
_ccdc_geom_bond_type
C7    C10   D    
N1    H21   S    
C30   O9    A    
C41   H22   S    
C2    N9    S    
Cr5   O16   S    
C1    C11   S    
C48   H52   S    
C2    H19   S    
C22   H11   S    
Cr6   O10   S    
C44   H34   S    
C41   H24   S    
Cr1   O1    S    
C25   C28   D    
C32   O15   A    
C26   C27   D    
Cr3   O23   S    
C37   O24   A    
Cr3   O22   S    
C26   H15   S    
C48   H51   S    
C13   N4    S    
C38   C39   S    
C29   O7    A    
N3    H29   S    
Cr4   O7    S    
C27   Br3   S    
C43   H30   S    
C42   H28   S    
C18   C19   S    
C23   O1    A    
C34   O25   A    
N2    H25   S    
C45   H40   S    
C11   C15   D    
C20   C24   D    
C3    C38   S    
C8    C9    D    
C40   N8    S    
C23   O23   A    
Cr2   O20   S    
C4    C12   S    
C33   O16   A    
C18   Br2   S    
C25   C34   S    
Cr1   O5    S    
Cr6   O19   S    
Cr1   O24   S    
N1    C41   S    
C13   C14   D    
Cr2   O2    S    
C1    O12   A    
C2    C6    S    
C17   C33   S    
C16   H10   S    
C47   H48   S    
C40   Br1   S    
N4    C44   S    
N4    H33   S    
C31   O11   A    
C49   H55   S    
N5    C45   S    
C21   C32   S    
C12   O22   A    
Cr4   O14   S    
C48   H50   S    
N9    C49   S    
Cr1   O12   S    
N7    H45   S    
C47   H47   S    
C29   O8    A    
C5    H18   S    
Cr5   O8    S    
C28   N7    S    
C3    C30   S    
Cr5   O19   S    
C46   H43   S    
C32   O14   A    
C49   H56   S    
C30   O10   A    
C4    C39   S    
C6    H20   S    
N5    H37   S    
C6    N1    S    
N2    C42   S    
C17   C18   D    
C45   H38   S    
C15   H6    S    
C20   H13   S    
C42   H27   S    
C33   O17   A    
C38   H1    S    
C11   H8    S    
N8    C48   S    
N7    C47   S    
Cr6   O18   S    
C4    C6    S    
C31   O6    A    
Cr1   O25   S    
C3    C40   S    
Cr3   O4    S    
N6    H41   S    
C22   C24   S    
C8    C29   S    
C21   N6    S    
C46   H42   S    
C8    H4    S    
C36   O3    A    
C49   H54   S    
C9    C10   S    
C5    N2    S    
C19   H9    S    
C1    O20   A    
C41   H23   S    
Cr3   O5    S    
C12   O21   A    
C13   C31   S    
Cr4   O13   S    
Cr5   O15   S    
Cr3   O3    S    
C4    C5    S    
Cr6   O11   S    
C44   H35   S    
C35   O18   A    
C36   O2    A    
C47   H46   S    
C39   H17   S    
C43   H32   S    
Cr5   O9    S    
N9    H53   S    
C37   O4    A    
C2    C3    S    
C46   H44   S    
C7    H5    S    
C16   C36   S    
C20   C37   S    
C38   H7    S    
N3    C43   S    
C16   C19   D    
C7    C23   S    
C39   H14   S    
C35   O13   A    
Cr2   O5    S    
C43   H31   S    
Cr4   O6    S    
Cr2   O26   S    
C25   H16   S    
C42   H26   S    
C34   O26   A    
C45   H39   S    
C44   H36   S    
N8    H49   S    
C17   N5    S    
Cr6   O17   S    
C26   C35   S    
C14   N3    S    
C9    H2    S    
C24   H12   S    
C5    C40   S    
C27   C28   S    
N6    C46   S    
C14   C15   S    
Cr2   O21   S    
C21   C22   D    
C10   H3    S    
Cr4   O19   S    
