data_mof_unit_52745.cif
_audit_creation_date              2012-12-10T17:22:39-0500
_audit_creation_method            fapswitch 2.2
_symmetry_space_group_name_H-M    P1
_symmetry_Int_Tables_number       1
_space_group_crystal_system       triclinic
_cell_length_a                    10.625082
_cell_length_b                    10.860675
_cell_length_c                    9.590636
_cell_angle_alpha                 90.07749
_cell_angle_beta                  90.014257
_cell_angle_gamma                 92.563711
_cell_volume                      1105.60805915

loop_
_atom_site_label
_atom_site_type_symbol
_atom_type_description
_atom_site_fract_x
_atom_site_fract_y
_atom_site_fract_z
_atom_type_partial_charge
C1    C     C_R   0.509357 0.262955 0.500770 0.803578
C2    C     C_3   0.962832 0.607755 0.447243 -0.176874
C3    C     C_3   0.041156 0.513705 0.367833 -0.132319
C4    C     C_3   0.122315 0.500384 0.498868 0.023770
C5    C     C_R   0.568422 0.119238 0.759304 -0.119845
C6    C     C_R   0.547646 0.059933 0.886474 -0.132985
C7    C     C_R   0.484779 0.945205 0.889631 -0.137998
C8    C     C_R   0.454336 0.884624 0.765126 -0.163762
C9    C     C_R   0.487843 0.938064 0.634505 0.089206
C10   C     C_R   0.526183 0.063843 0.632590 0.096393
C11   C     C_R   0.519277 0.128883 0.504403 -0.127062
C12   C     C_R   0.259360 0.499866 0.499766 0.792386
C13   C     C_R   0.504755 0.063542 0.379101 -0.218160
C14   C     C_R   0.493793 0.936317 0.379704 -0.219220
C15   C     C_R   0.485602 0.871868 0.505966 -0.113521
C16   C     C_R   0.666398 0.664935 0.144292 -0.123801
C17   C     C_R   0.747599 0.745654 0.072170 -0.229483
C18   C     C_R   0.747910 0.745334 0.928520 -0.198431
C19   C     C_R   0.666955 0.664368 0.856180 -0.109664
C20   C     C_R   0.581757 0.581038 0.925344 0.092918
C21   C     C_R   0.581457 0.581281 0.074877 0.187640
C22   C     C_R   0.423300 0.421962 0.074422 -0.185563
C23   C     C_R   0.492160 0.737373 0.501155 0.769677
C24   C     C_R   0.420528 0.423178 0.925285 0.572892
C25   C     C_R   0.740580 0.500416 0.500142 0.750133
C26   C     C_3   0.036793 0.393247 0.551796 -0.177379
C27   C     C_3   0.953418 0.406600 0.421086 -0.163070
C28   C     C_3   0.877493 0.500579 0.500507 0.038365
C29   C     C_3   0.958651 0.487280 0.631436 -0.148709
C30   C     C_3   0.046302 0.594530 0.578117 -0.169964
Cu1   Cu    Cu3+1 0.499990 0.499990 0.640660 0.953790
Cu2   Cu    Cu3+1 0.500010 0.500010 0.359340 0.923125
H1    H     H_    0.912263 0.329745 0.356915 0.126653
H2    H     H_    0.462113 0.901698 0.988552 0.133695
H3    H     H_    0.401066 0.798051 0.773869 0.161393
H4    H     H_    0.490170 0.888499 0.280457 0.164462
H5    H     H_    0.363951 0.356531 0.131866 0.153584
H6    H     H_    0.675130 0.672074 0.254173 0.196236
H7    H     H_    0.811183 0.808590 0.128501 0.143053
H8    H     H_    0.811506 0.808224 0.872364 0.144011
H9    H     H_    0.069340 0.304407 0.591908 0.125014
H10   H     H_    0.087407 0.671358 0.642375 0.123554
H11   H     H_    0.929197 0.695348 0.404419 0.116187
H12   H     H_    0.077412 0.524473 0.259759 0.133401
H13   H     H_    0.620639 0.206838 0.762028 0.149749
H14   H     H_    0.577369 0.104541 0.982768 0.126536
N1    N     N_R   0.501210 0.501210 0.147910 -0.219378
N2    N     N_R   0.501250 0.501290 0.852040 -0.244912
O1    O     O_R   0.499990 0.319640 0.618810 -0.540245
O2    O     O_R   0.500000 0.319660 0.381240 -0.584440
O3    O     O_R   0.316850 0.499960 0.618770 -0.546288
O4    O     O_R   0.316860 0.499980 0.381190 -0.586979
O5    O     O_R   0.500000 0.680340 0.618760 -0.616485
O6    O     O_R   0.500010 0.680360 0.381190 -0.599230
O7    O     O_R   0.683140 0.500020 0.618810 -0.612487
O8    O     O_R   0.683150 0.500040 0.381230 -0.595777
H15   H     H_    0.675318 0.671728 0.746314 0.199929
O9    O     O_3   0.343878 0.339553 0.851566 -0.538951
C31   C     C_3   0.217144 0.347161 0.893669 -0.336314
H16   H     H_    0.156551 0.297497 0.816225 0.184800
H17   H     H_    0.187467 0.444247 0.897626 0.152675
H18   H     H_    0.199829 0.300266 0.995065 0.141079
H19   H     H_    0.922477 0.476487 0.739543 0.136314
H20   H     H_    0.502314 0.110679 0.279705 0.163096

loop_
_geom_bond_atom_site_label_1
_geom_bond_atom_site_label_2
_ccdc_geom_bond_type
C17   C18   A    
C4    C26   S    
C29   H19   S    
C16   C21   A    
C1    O2    A    
Cu1   O3    S    
C26   C29   S    
C4    C12   S    
C9    C10   A    
C19   C20   A    
C1    C11   S    
C25   O8    A    
C2    H11   S    
C2    C30   S    
C15   C23   S    
C3    C27   S    
C22   N1    A    
C9    C15   A    
C4    C30   S    
C31   H16   S    
C20   N2    A    
C13   C14   A    
Cu1   O5    S    
C25   C28   S    
C11   C13   A    
Cu2   O2    S    
C26   C27   S    
C29   C30   S    
C13   H20   S    
C5    H13   S    
Cu1   O1    S    
C19   H15   S    
Cu2   O6    S    
C28   C29   S    
C12   O4    A    
C25   O7    A    
C23   O5    A    
C6    C7    A    
C2    C3    S    
Cu1   N2    S    
C14   H4    S    
C5    C6    A    
C7    H2    S    
C22   C24   A    
C3    H12   S    
C31   H17   S    
C16   C17   A    
C10   C11   A    
C5    C10   A    
C3    C4    S    
C24   N2    A    
Cu2   O4    S    
C7    C8    A    
C12   O3    A    
C20   C21   A    
C23   O6    A    
C24   O9    S    
C18   C19   A    
C17   H7    S    
C16   H6    S    
C27   C28   S    
C18   H8    S    
C14   C15   A    
C30   H10   S    
C31   H18   S    
C2    C28   S    
C6    H14   S    
Cu1   O7    S    
O9    C31   S    
C22   H5    S    
C1    O1    A    
Cu2   O8    S    
C27   H1    S    
Cu1   Cu2   S    
C26   H9    S    
Cu2   N1    S    
C8    C9    A    
C21   N1    A    
C8    H3    S    
