data_mof_unit_39703.cif
_audit_creation_date              2012-12-11T16:34:31-0500
_audit_creation_method            fapswitch 2.2
_symmetry_space_group_name_H-M    P1
_symmetry_Int_Tables_number       1
_space_group_crystal_system       triclinic
_cell_length_a                    8.382027
_cell_length_b                    17.451524
_cell_length_c                    27.158921
_cell_angle_alpha                 95.659931
_cell_angle_beta                  92.796146
_cell_angle_gamma                 83.37462
_cell_volume                      3924.20127404

loop_
_atom_site_label
_atom_site_type_symbol
_atom_type_description
_atom_site_fract_x
_atom_site_fract_y
_atom_site_fract_z
_atom_type_partial_charge
Ba1   Ba    Ba6+2 0.856110 0.463800 0.523550 1.800439
Ba2   Ba    Ba6+2 0.333710 0.536130 0.476450 1.771760
C1    C     C_3   0.771203 0.195716 0.687722 0.574431
C2    C     C_R   0.883318 0.571346 0.172392 0.609281
C3    C     C_2   0.752815 0.547289 0.269987 0.043372
C4    C     C_3   0.238200 0.243799 0.651038 0.226385
C5    C     C_3   0.735152 0.566278 0.324813 0.045829
C6    C     C_1   0.980130 0.480412 0.339357 0.063045
C7    C     C_2   0.021833 0.484476 0.292480 -0.018363
C8    C     C_2   0.898187 0.514463 0.253455 0.256447
C9    C     C_R   0.005721 0.501812 0.098595 -0.083014
C10   C     C_R   0.050872 0.438092 0.126301 -0.039825
C11   C     C_R   0.132572 0.370988 0.102557 -0.047343
C12   C     C_3   0.702472 0.262898 0.658594 0.869162
C13   C     C_R   0.921511 0.568735 0.122001 -0.046490
C14   C     C_2   0.832047 0.505466 0.352273 -0.158540
C15   C     C_2   0.338335 0.465520 0.638435 0.307940
C16   C     C_3   0.217832 0.220395 0.702611 0.525734
C17   C     C_R   0.152376 0.424889 0.971736 0.018370
C18   C     C_R   0.048063 0.562589 0.970229 0.019835
C19   C     C_R   0.119057 0.492171 0.945663 0.054479
C20   C     C_R   0.214135 0.355155 0.944739 -0.095758
C21   C     C_R   0.246204 0.352198 0.894660 -0.034735
C22   C     C_R   0.219979 0.418706 0.869020 -0.045317
C23   C     C_3   0.507853 0.635706 0.625639 0.305565
C24   C     C_R   0.156916 0.488937 0.894445 -0.077178
C25   C     C_R   0.131277 0.555806 0.868609 -0.040455
C26   C     C_R   0.172744 0.551970 0.818209 0.599589
C27   C     C_R   0.254709 0.415887 0.818319 0.606164
C28   C     C_3   0.205794 0.302133 0.419405 0.310707
C29   C     C_2   0.422877 0.442024 0.726797 -0.144300
C30   C     C_3   0.449600 0.419411 0.672405 -0.109560
C31   C     C_1   0.205431 0.506818 0.655038 -0.000267
C32   C     C_2   0.163182 0.510288 0.702122 -0.141121
C33   C     C_2   0.278826 0.478531 0.741425 0.208982
C34   C     C_3   0.495865 0.650085 0.681735 0.274011
C35   C     C_R   0.121674 0.429172 0.023453 0.019531
C36   C     C_R   0.043821 0.498543 0.047382 0.053983
C37   C     C_R   0.003197 0.564673 0.020617 0.019810
C38   C     C_R   0.166843 0.366443 0.052473 -0.095621
C39   C     C_R   0.876975 0.632411 0.094631 -0.058083
C40   C     C_3   0.236404 0.215147 0.405741 -0.392667
C41   C     C_R   0.025388 0.628835 0.943331 -0.097645
C42   C     C_R   0.066484 0.625441 0.893906 -0.057184
C43   C     C_R   0.917118 0.630667 0.045331 -0.100520
C44   C     C_R   0.415774 0.280389 0.521634 -0.234743
C45   C     C_3   0.046542 0.714214 0.340548 1.228923
C46   C     C_R   0.557469 0.256037 0.497019 0.126353
C47   C     C_R   0.614826 0.176673 0.491918 -0.051033
C48   C     C_R   0.528768 0.122091 0.510902 0.017707
C49   C     C_R   0.382663 0.147517 0.533902 -0.124499
C50   C     C_R   0.325249 0.226681 0.538490 -0.051611
C51   C     C_R   0.594376 0.836484 0.514672 -0.148099
C52   C     C_3   0.013721 0.705785 0.588919 0.338993
C53   C     C_R   0.648671 0.757105 0.511716 -0.013671
C54   C     C_R   0.879572 0.779907 0.466269 0.056638
C55   C     C_R   0.824732 0.859454 0.468927 -0.030932
C56   C     C_3   0.049983 0.746534 0.290049 0.847062
C57   C     C_R   0.682939 0.888245 0.493762 0.069762
C58   C     C_1   0.630350 0.970929 0.499230 0.031537
C59   C     C_1   0.585053 0.039836 0.504406 -0.014822
C60   C     C_R   0.791582 0.729583 0.488128 0.150151
C61   C     C_3   0.040441 0.790081 0.604051 0.812412
C62   C     C_3   0.663416 0.354832 0.370639 0.238124
C63   C     C_3   0.615196 0.332264 0.316856 0.434598
C64   C     C_3   0.966228 0.896695 0.658918 0.232800
C65   C     C_3   0.393133 0.773275 0.713744 0.237844
C66   C     C_3   0.191125 0.664501 0.228881 0.305514
C67   C     C_3   0.503314 0.742907 0.367604 0.320074
C68   C     C_3   0.520139 0.951012 0.366681 0.140142
C69   C     C_3   0.808474 0.610116 0.447325 0.384216
C70   C     C_3   0.465050 0.824362 0.351255 0.245473
C71   C     C_R   0.013822 0.442622 0.177159 0.600916
F1    F     F_    0.725091 0.242095 0.608681 -0.743131
F2    F     F_    0.010614 0.832235 0.563398 -0.782431
F3    F     F_    0.645246 0.388949 0.287562 -0.734661
F4    F     F_    0.757220 0.216470 0.737943 -0.667106
F5    F     F_    0.361460 0.222259 0.729742 -0.654581
F6    F     F_    0.149698 0.646691 0.341154 -0.694941
F7    F     F_    0.892630 0.697823 0.346584 -0.842186
F8    F     F_    0.180339 0.788226 0.287693 -0.781621
F9    F     F_    0.358941 0.448182 0.589222 -0.720476
H1    H     H_    0.322711 0.202841 0.375444 0.122050
H2    H     H_    0.684816 0.276704 0.303451 0.041216
H3    H     H_    0.484917 0.325226 0.313625 0.047670
H4    H     H_    0.571752 0.272489 0.665219 -0.095691
H5    H     H_    0.704263 0.144912 0.676968 -0.023249
H6    H     H_    0.392336 0.617922 0.609375 0.004403
H7    H     H_    0.605031 0.587994 0.617460 0.034594
H8    H     H_    0.486678 0.593946 0.696668 -0.017176
H9    H     H_    0.609646 0.670763 0.698317 0.030838
H10   H     H_    0.940994 0.788573 0.286217 0.001449
H11   H     H_    0.634699 0.732981 0.373366 0.052899
H12   H     H_    0.287046 0.185260 0.437947 0.046494
H13   H     H_    0.445791 0.740776 0.403357 0.050395
H14   H     H_    0.335227 0.843213 0.356418 0.127158
H15   H     H_    0.265936 0.304733 0.654413 -0.001866
H16   H     H_    0.492982 0.822738 0.311445 0.104064
H17   H     H_    0.144024 0.464725 0.282004 0.119859
H18   H     H_    0.170714 0.321083 0.122739 0.127634
H19   H     H_    0.510961 0.419065 0.753748 0.145232
H20   H     H_    0.293010 0.296988 0.876030 0.147607
H21   H     H_    0.236079 0.300894 0.960980 0.077126
H22   H     H_    0.232357 0.313004 0.037832 0.074415
H23   H     H_    0.121880 0.191773 0.393281 0.128569
H24   H     H_    0.654951 0.566119 0.244798 0.085341
H25   H     H_    0.810724 0.684696 0.111401 0.127285
H26   H     H_    0.979008 0.685191 0.959741 0.071803
H27   H     H_    0.340085 0.204699 0.634686 -0.007576
H28   H     H_    0.046718 0.678181 0.875434 0.123586
H29   H     H_    0.043450 0.535279 0.712420 0.140129
H30   H     H_    0.875367 0.681884 0.027280 0.072207
H31   H     H_    0.783133 0.486456 0.384211 -0.083644
H32   H     H_    0.485894 0.857949 0.534065 0.091821
H33   H     H_    0.312067 0.105999 0.547068 0.074365
H34   H     H_    0.883859 0.702072 0.581335 0.010216
H35   H     H_    0.893876 0.898752 0.452822 0.069084
H36   H     H_    0.722715 0.157320 0.471739 0.067858
H37   H     H_    0.368049 0.340703 0.523547 0.127245
H38   H     H_    0.123260 0.260825 0.721700 0.081272
H39   H     H_    0.183455 0.160528 0.700085 0.006148
H40   H     H_    0.321178 0.325043 0.430107 -0.010232
H41   H     H_    0.123340 0.313182 0.450726 0.053034
H42   H     H_    0.093728 0.899476 0.671719 -0.009779
H43   H     H_    0.890289 0.917356 0.690935 0.060480
H44   H     H_    0.932866 0.936528 0.629625 0.092054
H45   H     H_    0.083510 0.685339 0.555525 0.028609
H46   H     H_    0.464511 0.769189 0.749200 0.037010
H47   H     H_    0.279825 0.810878 0.721848 0.067056
H48   H     H_    0.458552 0.801059 0.686898 0.051174
H49   H     H_    0.180441 0.613673 0.201598 -0.002087
H50   H     H_    0.286402 0.646591 0.256404 0.122555
H51   H     H_    0.225909 0.711796 0.208451 0.081447
H52   H     H_    0.393687 0.973098 0.375212 0.047095
H53   H     H_    0.541331 0.954236 0.326843 0.051772
H54   H     H_    0.599219 0.989566 0.388547 0.070789
H55   H     H_    0.906902 0.571529 0.434230 0.078589
H56   H     H_    0.168748 0.791636 0.616623 -0.001447
H57   H     H_    0.768033 0.644207 0.415979 -0.104836
H58   H     H_    0.737206 0.564195 0.454060 0.093329
H59   H     H_    0.794267 0.359689 0.373237 0.012525
H60   H     H_    0.590321 0.410039 0.382810 0.057184
H61   H     H_    0.899266 0.178942 0.679619 -0.018131
N1    N     N_R   0.932496 0.509324 0.200340 -0.431266
N2    N     N_R   0.234611 0.482412 0.793394 -0.424566
O1    O     O_2   0.910880 0.540430 0.617910 -0.470348
O2    O     O_2   0.211136 0.772488 0.467831 -0.469418
O3    O     O_3   0.091283 0.769830 0.378295 -0.666223
O4    O     O_3   0.142880 0.540370 0.557740 -0.416538
O5    O     O_3   0.562610 0.408580 0.475460 -0.480480
O6    O     O_2   0.365880 0.685750 0.523280 -0.465063
O7    O     O_3   0.543096 0.703513 0.606686 -0.653945
O8    O     O_2   0.406216 0.539287 0.323150 -0.416602
O9    O     O_3   0.447996 0.687355 0.331401 -0.584157
O10   O     O_2   0.051748 0.386417 0.200403 -0.577936
O11   O     O_2   0.301655 0.353633 0.796235 -0.519659
O12   O     O_3   0.633819 0.295848 0.398641 -0.702672
O13   O     O_2   0.808465 0.630063 0.191497 -0.568211
O14   O     O_2   0.155489 0.610864 0.796736 -0.573236
O15   O     O_3   0.675650 0.402220 0.588450 -0.374094
O16   O     O_2   0.747721 0.480384 0.675100 -0.521499
O17   O     O_3   0.064040 0.662628 0.628501 -0.644248
O18   O     O_3   0.780203 0.329075 0.674366 -0.591181
O19   O     O_2   0.823810 0.314230 0.476690 -0.460936
O20   O     O_3   0.086630 0.363340 0.564170 -0.432246
O21   O     O_2   0.992763 0.226241 0.530356 -0.438511
O22   O     O_3   0.936106 0.820345 0.642341 -0.648144
O23   O     O_3   0.095993 0.236551 0.622274 -0.599561
O24   O     O_3   0.354638 0.699726 0.693811 -0.619294
O25   O     O_3   0.041738 0.686461 0.251083 -0.646599
O26   O     O_3   0.559151 0.875066 0.380382 -0.685160
O27   O     O_3   0.854651 0.653571 0.490827 -0.692391
O28   O     O_2   0.278810 0.459550 0.382060 -0.450697
O29   O     O_3   0.046820 0.459570 0.442260 -0.520179
O30   O     O_3   0.514050 0.597710 0.411540 -0.516025
O31   O     O_3   0.136978 0.336018 0.377873 -0.630881
O32   O     O_3   0.627090 0.591350 0.524530 -0.461747
O33   O     O_3   0.103080 0.636600 0.435820 -0.416627
P1    P     P_3+3 0.078810 0.562990 0.610370 1.077580
P2    P     P_3+3 0.645380 0.325580 0.462150 0.987215
P3    P     P_3+3 0.126217 0.262242 0.563045 1.031800
P4    P     P_3+3 0.110900 0.436950 0.389630 1.009983
P5    P     P_3+3 0.070688 0.739047 0.437196 1.086808
P6    P     P_3+3 0.663217 0.409819 0.653141 1.062617
P7    P     P_3+3 0.546390 0.687176 0.542124 0.990062
P8    P     P_3+3 0.525653 0.594661 0.347083 1.033694

loop_
_geom_bond_atom_site_label_1
_geom_bond_atom_site_label_2
_ccdc_geom_bond_type
Ba2   O5    S    
C19   C24   A    
C31   P1    S    
C5    P8    S    
C45   F6    S    
C41   C42   A    
C14   H31   S    
O29   P4    S    
C56   H10   S    
C51   C57   A    
C43   H30   S    
C69   H55   S    
C70   H16   S    
C65   O24   S    
O31   P4    S    
O9    P8    S    
C34   O24   S    
C63   F3    S    
C61   F2    S    
C64   O22   S    
C23   O7    S    
O16   P6    D    
C12   F1    S    
C55   H35   S    
C66   H51   S    
C17   C19   A    
C22   C24   A    
Ba1   Ba2   S    
C35   C38   A    
C67   H11   S    
Ba2   O28   S    
Ba2   P4    S    
C36   C37   A    
Ba1   P2    S    
C29   H19   S    
C55   C57   A    
C21   H20   S    
C52   C61   S    
O2    P5    D    
C53   C60   A    
C44   C50   A    
O4    P1    S    
O32   P7    S    
C54   C55   A    
C32   C33   S    
C33   N2    S    
C12   O18   S    
C66   H50   S    
C22   C27   A    
C11   C38   A    
C17   C35   A    
C9    C13   A    
C25   C42   A    
C2    O13   D    
C28   H40   S    
Ba1   O19   S    
C6    C7    D    
C52   H34   S    
C62   O12   S    
O1    P1    D    
C21   C22   A    
Ba1   O4    S    
Ba2   O32   S    
C7    C8    S    
O33   P5    S    
O19   P2    D    
C16   F5    S    
C37   C43   A    
C54   C60   A    
Ba2   O4    S    
C61   O22   S    
C57   C58   S    
C6    C14   D    
C10   C71   A    
C68   H54   S    
C32   H29   S    
Ba1   O1    S    
C65   H47   S    
O21   P3    D    
C15   C31   D    
C45   F7    S    
C69   O27   S    
C28   O31   S    
C31   C32   D    
C4    O23   S    
C3    H24   S    
C51   C53   A    
C4    C16   S    
C44   C46   A    
Ba1   O29   S    
C1    H5    S    
C49   C50   A    
C70   O26   S    
C17   C20   A    
C1    H61   S    
C50   P3    S    
C12   H4    S    
C53   P7    S    
C56   F8    S    
C66   O25   S    
C3    C5    S    
C18   C37   A    
C63   H2    S    
C69   H57   S    
C16   H39   S    
C26   O14   D    
C49   H33   S    
C20   H21   S    
C64   H44   S    
C58   C59   T    
O12   P2    S    
C66   H49   S    
C68   O26   S    
C4    H15   S    
C35   C36   A    
C6    P4    S    
Ba2   O30   S    
C38   H22   S    
C47   H36   S    
Ba1   O20   S    
C15   F9    S    
C71   O10   D    
C48   C49   A    
C26   N2    Am   
Ba1   O5    S    
C8    N1    S    
C18   C19   A    
C28   H41   S    
C13   C39   A    
O17   P1    S    
C1    C12   S    
C27   O11   D    
C34   H9    S    
C5    C14   S    
O28   P4    D    
O23   P3    S    
C24   C25   A    
C68   H53   S    
C15   C30   S    
C61   H56   S    
C64   H42   S    
C65   H48   S    
C1    F4    S    
C16   H38   S    
C46   P2    S    
C67   C70   S    
C51   H32   S    
O5    P2    S    
C34   H8    S    
Ba2   O6    S    
O6    P7    D    
C45   O3    S    
C46   C47   A    
C39   H25   S    
C56   O25   S    
O18   P6    S    
C40   H12   S    
C30   P6    S    
C29   C30   S    
C40   H1    S    
O7    P7    S    
C67   H13   S    
C2    N1    Am   
C9    C10   A    
C63   H3    S    
C69   H58   S    
C54   P5    S    
C52   O17   S    
C60   O27   S    
C52   H45   S    
C23   H7    S    
C67   O9    S    
C64   H43   S    
O20   P3    S    
C62   C63   S    
C11   H18   S    
C3    C8    D    
C65   H46   S    
Ba2   O29   S    
O30   P8    S    
C27   N2    Am   
Ba1   P1    S    
Ba1   O15   S    
C62   H60   S    
C2    C13   A    
O3    P5    S    
C62   H59   S    
C4    H27   S    
C44   H37   S    
C29   C33   D    
C41   H26   S    
C23   H6    S    
C40   H23   S    
C18   C41   A    
C23   C34   S    
C70   H14   S    
C10   C11   A    
C7    H17   S    
C47   C48   A    
O8    P8    D    
C25   C26   A    
C68   H52   S    
C48   C59   S    
C39   C43   A    
C20   C21   A    
C28   C40   S    
C9    C36   A    
Ba2   O33   S    
Ba1   O32   S    
O15   P6    S    
C45   C56   S    
C71   N1    Am   
C42   H28   S    
