data_mof_unit_21173.cif
_audit_creation_date              2012-12-10T17:34:22-0500
_audit_creation_method            fapswitch 2.2
_symmetry_space_group_name_H-M    P1
_symmetry_Int_Tables_number       1
_space_group_crystal_system       triclinic
_cell_length_a                    12.486787
_cell_length_b                    13.251059
_cell_length_c                    14.315527
_cell_angle_alpha                 75.680488
_cell_angle_beta                  101.333592
_cell_angle_gamma                 117.309593
_cell_volume                      2029.77995559

loop_
_atom_site_label
_atom_site_type_symbol
_atom_type_description
_atom_site_fract_x
_atom_site_fract_y
_atom_site_fract_z
_atom_type_partial_charge
C1    C     C_R   0.854823 0.286619 0.507280 0.792501
C2    C     C_1   0.997092 0.500133 0.228560 -0.119082
C3    C     C_R   0.278555 0.023874 0.367962 -0.078946
C4    C     C_R   0.228176 0.836160 0.468578 -0.035859
C5    C     C_R   0.811283 0.080857 0.567084 -0.134678
C6    C     C_R   0.730370 0.965404 0.587232 -0.131297
C7    C     C_R   0.608127 0.930326 0.555597 -0.111129
C8    C     C_R   0.564576 0.010170 0.498371 0.085927
C9    C     C_R   0.649921 0.125192 0.468831 -0.012945
C10   C     C_R   0.439591 0.978746 0.467789 0.034420
C11   C     C_R   0.402941 0.057480 0.398400 0.021563
C12   C     C_R   0.000597 0.499358 0.668706 0.822734
C13   C     C_R   0.491468 0.166078 0.359416 0.402778
C14   C     C_R   0.612726 0.198372 0.395100 -0.257615
C15   C     C_R   0.349646 0.870431 0.504283 -0.123875
C16   C     C_R   0.192390 0.914189 0.402284 -0.210975
C17   C     C_R   0.771817 0.162787 0.511371 -0.099135
C18   C     C_R   0.344193 0.323415 0.649215 -0.244564
C19   C     C_R   0.754033 0.626527 0.360382 0.088185
C20   C     C_R   0.644970 0.610494 0.305756 -0.189806
C21   C     C_R   0.538337 0.539049 0.348980 0.075534
C22   C     C_R   0.539431 0.500829 0.449944 0.031993
C23   C     C_R   0.144885 0.713509 0.488696 0.816392
C24   C     C_R   0.649441 0.496573 0.494855 0.198416
C25   C     C_R   0.435860 0.453211 0.505455 -0.140113
C26   C     C_R   0.438115 0.372188 0.591079 -0.086770
C27   C     C_R   0.538740 0.345440 0.621317 0.350797
C28   C     C_R   0.644943 0.414295 0.577792 -0.247214
C29   C     C_R   0.336564 0.487663 0.485661 0.489009
C30   C     C_R   0.252262 0.358236 0.632570 0.488466
C31   C     C_R   0.998858 0.500033 0.331326 0.823284
C32   C     C_1   0.001761 0.498656 0.771513 -0.106423
C33   C     C_1   0.001295 0.498512 0.857003 0.059001
C34   C     C_1   0.999931 0.498798 0.957489 0.059868
C35   C     C_1   0.998610 0.499250 0.042700 0.054987
C36   C     C_1   0.997334 0.499826 0.143134 0.047905
Cu1   Cu    Cu3+1 0.098280 0.475420 0.520190 1.079091
Cu2   Cu    Cu3+1 0.901720 0.524580 0.479810 0.952125
H1    H     H_    0.098577 0.888666 0.373292 0.159472
H2    H     H_    0.347577 0.263548 0.714528 0.264736
H3    H     H_    0.837092 0.675569 0.325663 0.135099
H4    H     H_    0.457396 0.512484 0.301615 0.227499
H5    H     H_    0.642708 0.646699 0.229213 0.172044
H6    H     H_    0.721262 0.397221 0.607707 0.230096
H7    H     H_    0.246045 0.079768 0.315142 0.213318
H8    H     H_    0.371480 0.809388 0.559831 0.140884
H9    H     H_    0.904594 0.106039 0.596955 0.206536
H10   H     H_    0.551078 0.839306 0.574232 0.144358
H11   H     H_    0.762073 0.902898 0.630010 0.160688
H12   H     H_    0.679024 0.279746 0.361088 0.209178
N1    N     N_R   0.246290 0.438200 0.550780 -0.290699
N2    N     N_R   0.754310 0.561180 0.449760 -0.198342
O1    O     O_R   0.972510 0.318130 0.525390 -0.530794
O2    O     O_R   0.806530 0.359650 0.491290 -0.598321
O3    O     O_R   0.083010 0.479240 0.641000 -0.485540
O4    O     O_R   0.917030 0.520750 0.606900 -0.589085
O5    O     O_R   0.193470 0.640350 0.508710 -0.516499
O6    O     O_R   0.027490 0.681870 0.474610 -0.594066
O7    O     O_R   0.082970 0.479250 0.393100 -0.487344
O8    O     O_R   0.916990 0.520760 0.359000 -0.583816
S1    S     S_3+6 0.539756 0.230662 0.717066 0.024109
O9    O     O_2   0.543661 0.261848 0.812122 -0.208609
O10   O     O_2   0.426931 0.121824 0.704471 -0.277914
O11   O     O_3   0.661423 0.206562 0.719332 -0.519231
H13   H     H_    0.644006 0.168066 0.663402 0.348777
S2    S     S_3+6 0.337698 0.596924 0.377003 0.008777
O12   O     O_2   0.465720 0.687586 0.367720 -0.330796
O13   O     O_2   0.291274 0.535145 0.292206 -0.338540
O14   O     O_3   0.260277 0.675967 0.357585 -0.511222
H14   H     H_    0.277413 0.724052 0.292384 0.369437
S3    S     S_3+6 0.454548 0.262463 0.263649 -0.009105
O15   O     O_2   0.565443 0.371746 0.236448 -0.292758
O16   O     O_2   0.397917 0.204299 0.177010 -0.249114
O17   O     O_3   0.354669 0.294682 0.298650 -0.576630
H15   H     H_    0.318356 0.326667 0.237870 0.388471
S4    S     S_3+6 0.164647 0.308506 0.734038 0.045597
O18   O     O_2   0.184899 0.211129 0.802365 -0.260126
O19   O     O_2   0.208509 0.406396 0.788124 -0.276957
O20   O     O_3   0.014648 0.259003 0.705466 -0.540872
H16   H     H_    0.980455 0.242996 0.767223 0.372752

loop_
_geom_bond_atom_site_label_1
_geom_bond_atom_site_label_2
_ccdc_geom_bond_type
C24   N2    A    
C23   O6    A    
S2    O13   D    
C30   N1    A    
C19   C20   A    
C18   C26   A    
S4    O20   S    
C9    C14   A    
C7    C8    A    
C5    H9    S    
C26   C27   A    
S4    O19   D    
C10   C15   A    
C5    C6    A    
Cu1   N1    S    
S2    O14   S    
C5    C17   A    
C34   C35   T    
C31   O7    A    
S1    O10   D    
C1    O1    A    
C18   H2    S    
C27   S1    S    
Cu2   O6    S    
C19   N2    A    
C35   C36   S    
C8    C9    A    
C22   C25   A    
C18   C30   A    
Cu1   O1    S    
S2    O12   D    
C21   C22   A    
C12   C32   S    
O14   H14   S    
C25   C29   A    
O17   H15   S    
S4    O18   D    
S3    O16   D    
C4    C23   S    
C13   S3    S    
C25   C26   A    
C28   H6    S    
O20   H16   S    
C2    C31   S    
C31   O8    A    
C4    C16   A    
S1    O11   S    
C1    O2    A    
Cu1   Cu2   S    
C30   S4    S    
Cu2   O2    S    
C33   C34   S    
C12   O4    A    
Cu1   O7    S    
Cu2   O8    S    
C9    C17   A    
C22   C24   A    
C20   H5    S    
C29   N1    A    
C2    C36   T    
C23   O5    A    
C21   H4    S    
C24   C28   A    
S3    O17   S    
C6    C7    A    
C1    C17   S    
C7    H10   S    
C4    C15   A    
S3    O15   D    
C32   C33   T    
C11   C13   A    
C14   H12   S    
O11   H13   S    
C3    H7    S    
C6    H11   S    
S1    O9    D    
C12   O3    A    
C3    C11   A    
C10   C11   A    
C16   H1    S    
C29   S2    S    
Cu1   O3    S    
Cu2   O4    S    
C20   C21   A    
C8    C10   A    
C27   C28   A    
Cu2   N2    S    
C15   H8    S    
C13   C14   A    
Cu1   O5    S    
C3    C16   A    
C19   H3    S    
