data_mof_unit_67486.cif
_audit_creation_date              2012-10-26T21:06:57-0400
_audit_creation_method            fapswitch 2.2
_symmetry_space_group_name_H-M    P1
_symmetry_Int_Tables_number       1
_space_group_crystal_system       triclinic
_cell_length_a                    10.804387
_cell_length_b                    8.677011
_cell_length_c                    7.536259
_cell_angle_alpha                 102.031718
_cell_angle_beta                  95.728948
_cell_angle_gamma                 93.498893
_cell_volume                      685.115120903

loop_
_atom_site_label
_atom_site_type_symbol
_atom_type_description
_atom_site_fract_x
_atom_site_fract_y
_atom_site_fract_z
_atom_type_partial_charge
C1    C     C_R   0.487439 0.200706 0.454914 0.551634
C2    C     C_3   0.077987 0.418179 0.651116 0.086176
C3    C     C_3   0.933596 0.414636 0.646420 0.152663
C4    C     C_3   0.085959 0.675724 0.525646 0.209783
C5    C     C_3   0.049710 0.383035 0.311804 -0.106119
C6    C     C_3   0.121863 0.494948 0.492690 -0.054976
C7    C     C_2   0.867772 0.494438 0.146737 0.242653
C8    C     C_2   0.119492 0.761953 0.377096 0.408446
C9    C     C_2   0.871941 0.792924 0.458233 0.262037
C10   C     C_2   0.573987 0.699628 0.054842 0.426942
C11   C     C_2   0.101836 0.366754 0.129261 0.263292
C12   C     C_3   0.877641 0.501846 0.496812 -0.014249
C13   C     C_3   0.941012 0.679418 0.554901 0.114626
C14   C     C_3   0.907522 0.409867 0.299714 0.172710
C15   C     C_2   0.462004 0.033363 0.434604 0.208748
C16   C     C_2   0.512343 0.967369 0.566311 -0.031645
C17   C     C_R   0.260110 0.493197 0.498000 0.586614
C18   C     C_R   0.503319 0.799573 0.545257 0.580950
C19   C     C_R   0.739472 0.499900 0.499599 0.559740
Cu1   Cu    Cu3+1 0.514070 0.517380 0.684380 1.093585
Cu2   Cu    Cu3+1 0.485930 0.482620 0.315620 1.083497
H1    H     H_    0.119003 0.489818 0.785238 0.122328
H2    H     H_    0.505469 0.779199 0.099894 0.166885
H3    H     H_    0.201289 0.272372 0.704237 0.374037
H4    H     H_    0.891483 0.226711 0.738487 0.384595
H5    H     H_    0.148802 0.728813 0.792405 0.379383
H6    H     H_    0.845028 0.751353 0.764074 0.371636
H7    H     H_    0.113330 0.465747 0.066197 0.195075
H8    H     H_    0.872027 0.180003 0.303011 0.405301
H9    H     H_    0.567095 0.037360 0.688770 0.120713
H10   H     H_    0.913374 0.478629 0.782775 0.177366
H11   H     H_    0.059014 0.261620 0.333796 0.220249
H12   H     H_    0.783900 0.448891 0.054092 0.196629
H13   H     H_    0.096608 0.882891 0.385812 0.205130
H14   H     H_    0.793273 0.751389 0.356326 0.158746
H15   H     H_    0.344811 0.017899 0.215917 0.351162
H16   H     H_    0.372693 0.262835 0.008599 0.364059
N1    N     N_2   0.464720 0.456420 0.038520 -0.005826
N2    N     N_2   0.535280 0.543580 0.961480 -0.105739
O1    O     O_R   0.509140 0.286130 0.619770 -0.468666
O2    O     O_2   0.181461 0.707600 0.256578 -0.482000
O3    O     O_2   0.899275 0.935191 0.504312 -0.429064
O4    O     O_3   0.380713 0.946029 0.290000 -0.674594
O5    O     O_3   0.414235 0.321130 0.928439 -0.571621
O6    O     O_2   0.681264 0.752491 0.056352 -0.515389
O7    O     O_3   0.116157 0.263773 0.638461 -0.638830
O8    O     O_3   0.877222 0.259992 0.620170 -0.616092
O9    O     O_3   0.160603 0.768461 0.681232 -0.635141
O10   O     O_3   0.933490 0.738507 0.743371 -0.638918
O11   O     O_2   0.129799 0.238613 0.048503 -0.486725
O12   O     O_R   0.485380 0.256770 0.308360 -0.512922
O13   O     O_3   0.834502 0.262427 0.247578 -0.657712
O14   O     O_R   0.329570 0.514650 0.655700 -0.491513
O15   O     O_R   0.305810 0.485300 0.344290 -0.478322
O16   O     O_R   0.514620 0.743230 0.691640 -0.514874
O17   O     O_R   0.490860 0.713870 0.380230 -0.497723
O18   O     O_R   0.694190 0.514700 0.655710 -0.507070
O19   O     O_R   0.670430 0.485350 0.344300 -0.513783
O20   O     O_2   0.926366 0.611195 0.122419 -0.547877

loop_
_geom_bond_atom_site_label_1
_geom_bond_atom_site_label_2
_ccdc_geom_bond_type
C2    H1    S    
Cu2   O17   S    
N1    O5    S    
C1    C15   S    
H5    O9    S    
C10   H2    S    
C7    H12   S    
H4    O8    S    
C18   O17   A    
C4    C8    S    
C5    H11   S    
H3    O7    S    
C10   O6    D    
C2    C3    S    
C9    O3    D    
C15   O4    S    
Cu2   O19   S    
C11   O11   D    
C8    H13   S    
C2    O7    S    
C3    H10   S    
C12   C13   S    
C1    O12   A    
C5    C14   S    
C2    C6    S    
C11   H7    S    
H16   O5    S    
Cu1   O16   S    
C13   O10   S    
C5    C6    S    
C18   O16   A    
C12   C19   S    
C7    O20   D    
C12   C14   S    
C5    C11   S    
C7    C14   S    
C19   O19   A    
Cu2   O15   S    
Cu1   O1    S    
C16   H9    S    
C15   C16   D    
C6    C17   S    
C17   O14   A    
Cu2   O12   S    
N1    N2    D    
Cu1   Cu2   S    
C4    C6    S    
C4    O9    S    
C3    O8    S    
C4    C13   S    
C9    H14   S    
Cu1   N2    S    
C9    C13   S    
Cu1   O14   S    
H15   O4    S    
C3    C12   S    
C1    O1    A    
C8    O2    D    
Cu1   O18   S    
C17   O15   A    
C19   O18   A    
C16   C18   S    
C14   O13   S    
Cu2   N1    S    
H6    O10   S    
C10   N2    S    
H8    O13   S    
