data_mof_unit_12607.cif
_audit_creation_date              2013-03-05T16:44:34-0500
_audit_creation_method            fapswitch 2.2
_symmetry_space_group_name_H-M    P1
_symmetry_Int_Tables_number       1
_space_group_crystal_system       triclinic
_cell_length_a                    27.253872
_cell_length_b                    10.657717
_cell_length_c                    9.868498
_cell_angle_alpha                 89.760937
_cell_angle_beta                  90.750424
_cell_angle_gamma                 89.875755
_cell_volume                      2866.166059

loop_
_atom_site_label
_atom_site_type_symbol
_atom_site_description
_atom_site_fract_x
_atom_site_fract_y
_atom_site_fract_z
_atom_type_partial_charge
O1    O     O_R   0.500010 0.316790 0.614690 -0.627510
O2    O     O_R   0.500000 0.316760 0.385350 -0.573268
C1    C     C_R   0.500043 0.260360 0.500339 0.889927
O3    O     O_R   0.428760 0.500040 0.614660 -0.605450
O4    O     O_R   0.428750 0.500000 0.385310 -0.611934
C2    C     C_R   0.405685 0.499265 0.499316 0.851496
Zn1   Zn    Zn3+2 0.500000 0.500020 0.653130 0.943839
Zn2   Zn    Zn3+2 0.500000 0.499980 0.346870 0.962937
O5    O     O_R   0.500000 0.683240 0.614650 -0.622576
O6    O     O_R   0.499990 0.683210 0.385310 -0.613970
O7    O     O_R   0.571250 0.500000 0.614690 -0.610608
O8    O     O_R   0.571240 0.499960 0.385340 -0.618216
C3    C     C_R   0.500856 0.739402 0.499708 0.907741
C4    C     C_R   0.594437 0.500759 0.500883 0.878304
C5    C     C_R   0.182619 0.306572 0.589342 0.559397
O9    O     O_2   0.209296 0.285932 0.703402 -0.474311
N1    N     N_R   0.204868 0.357613 0.478564 -0.365801
C6    C     C_R   0.180707 0.370389 0.357136 0.547040
C7    C     C_R   0.267962 0.508486 0.560353 0.216802
C8    C     C_R   0.318057 0.544365 0.567764 0.159321
C9    C     C_R   0.338662 0.365521 0.425843 -0.280401
C10   C     C_R   0.290317 0.327720 0.423284 -0.132257
C11   C     C_R   0.254816 0.398046 0.489017 0.252182
C12   C     C_R   0.105563 0.307653 0.465017 -0.146388
C13   C     C_R   0.132010 0.279208 0.584885 -0.096905
C14   C     C_R   0.107392 0.222704 0.694196 0.479341
C15   C     C_R   0.130659 0.344168 0.347762 -0.037152
C16   C     C_R   0.353141 0.472391 0.497159 -0.062055
H1    H     H_    0.365274 0.308816 0.374401 0.151226
H2    H     H_    0.280148 0.243502 0.368720 0.163592
C17   C     C_R   0.648065 0.488336 0.501471 -0.091630
C18   C     C_R   0.977557 0.294258 0.588458 0.052557
C19   C     C_R   0.977820 0.376110 0.354047 0.013504
C20   C     C_R   0.952264 0.346674 0.475041 -0.009102
C21   C     C_R   0.952704 0.286785 0.712336 -0.200736
C22   C     C_R   0.902309 0.308218 0.721970 0.173946
C23   C     C_R   0.875654 0.349154 0.605381 -0.022427
C24   C     C_R   0.901668 0.376236 0.485252 -0.093385
C25   C     C_R   0.877357 0.436630 0.376333 -0.072268
C26   C     C_R   0.827395 0.463935 0.385423 0.624585
N2    N     N_R   0.801642 0.426046 0.495830 -0.335383
C27   C     C_R   0.824290 0.369346 0.604494 0.519964
C28   C     C_R   0.729203 0.522357 0.597821 -0.183176
C29   C     C_R   0.678473 0.542035 0.603054 0.162224
C30   C     C_R   0.669033 0.416148 0.398549 -0.394321
C31   C     C_R   0.719421 0.391740 0.397915 0.526889
C32   C     C_R   0.749595 0.446663 0.497314 0.218489
O10   O     O_2   0.796739 0.330740 0.709071 -0.559616
C33   C     C_R   0.028583 0.267288 0.580522 0.028193
C34   C     C_R   0.053877 0.304944 0.463336 -0.049144
C35   C     C_R   0.028036 0.342325 0.344493 0.037087
C36   C     C_R   0.055976 0.204213 0.684668 0.034447
H3    H     H_    0.753241 0.564558 0.673078 0.171815
H4    H     H_    0.972790 0.269371 0.805267 0.189773
O11   O     O_2   0.204784 0.412147 0.247157 -0.541016
C37   C     C_R   0.105184 0.352284 0.224185 -0.264454
H5    H     H_    0.124943 0.364631 0.130498 0.195562
C38   C     C_R   0.953977 0.452491 0.254494 0.493628
C39   C     C_R   0.903663 0.475504 0.263483 -0.280162
O12   O     O_2   0.804510 0.528173 0.284556 -0.538480
C40   C     C_R   0.053911 0.343046 0.220634 0.522363
H6    H     H_    0.645931 0.375231 0.320359 0.171027
H7    H     H_    0.885591 0.529742 0.184164 0.188555
C41   C     C_R   0.466260 0.063211 0.562977 0.014856
C42   C     C_R   0.504099 0.128519 0.502652 -0.110830
C43   C     C_R   0.546493 0.066064 0.455410 0.197669
C44   C     C_R   0.546071 0.933680 0.452048 0.143176
C45   C     C_R   0.504090 0.871140 0.500418 -0.134413
C46   C     C_R   0.466335 0.935482 0.562086 0.067063
C47   C     C_3   0.411920 0.928573 0.537818 -0.033064
C48   C     C_3   0.412094 0.070776 0.535922 -0.486172
H8    H     H_    0.392345 0.889741 0.626530 0.173216
H9    H     H_    0.402971 0.113033 0.435874 0.197259
H10   H     H_    0.391137 0.110482 0.620926 0.191765
C49   C     C_R   0.467863 0.425972 0.070258 0.090358
N3    N     N_R   0.499670 0.499140 0.142800 -0.107033
C50   C     C_R   0.528828 0.580333 0.072638 -0.113134
H11   H     H_    0.552893 0.643300 0.127466 0.149020
C51   C     C_R   0.528890 0.580207 0.928703 -0.126431
H12   H     H_    0.552965 0.643181 0.875010 0.152713
N4    N     N_R   0.499670 0.499180 0.857150 -0.110019
C52   C     C_R   0.467259 0.428082 0.927498 0.122187
C53   C     C_3   0.461325 0.289810 0.915050 -0.143024
C54   C     C_3   0.464904 0.284522 0.070612 0.527985
H13   H     H_    0.492688 0.243944 0.863802 0.193938
C55   C     C_3   0.229127 0.589194 0.625694 -0.824005
H14   H     H_    0.234998 0.590415 0.737182 0.259267
H15   H     H_    0.231117 0.686424 0.585529 0.238466
H16   H     H_    0.191254 0.556294 0.605214 0.231695
O13   O     O_3   0.981006 0.516533 0.158873 -0.723117
H17   H     H_    0.958828 0.566154 0.098738 0.333371
O14   O     O_3   0.740037 0.313644 0.302748 -0.735290
H18   H     H_    0.713860 0.282304 0.240970 0.335264
O15   O     O_3   0.029070 0.325587 0.099085 -0.742836
H19   H     H_    0.052809 0.326536 0.023751 0.323831
C56   C     C_3   0.590945 0.138247 0.408130 -0.846134
H20   H     H_    0.596813 0.121230 0.298606 0.257689
H21   H     H_    0.587503 0.240419 0.422863 0.230762
H22   H     H_    0.623889 0.108569 0.467470 0.235158
C57   C     C_3   0.588350 0.858150 0.395325 -0.852520
H23   H     H_    0.575904 0.808054 0.302830 0.246225
H24   H     H_    0.620560 0.914950 0.367015 0.249065
H25   H     H_    0.601142 0.788333 0.471567 0.215070
C58   C     C_3   0.396204 0.870458 0.402182 -0.840967
H26   H     H_    0.356879 0.891639 0.381975 0.248251
H27   H     H_    0.418309 0.908087 0.317328 0.260017
H28   H     H_    0.400730 0.767107 0.406853 0.241252
C59   C     C_3   0.411682 0.257869 0.849389 -0.847877
H29   H     H_    0.412567 0.283378 0.740568 0.267838
H30   H     H_    0.404638 0.155758 0.859282 0.242211
H31   H     H_    0.381028 0.311104 0.895180 0.253094
C60   C     C_3   0.420234 0.233222 0.145044 -0.753948
H32   H     H_    0.412517 0.135630 0.112310 0.230158
H33   H     H_    0.428444 0.230976 0.254755 0.234163
H34   H     H_    0.387167 0.292474 0.127694 0.199158
O16   O     O_3   0.508433 0.225895 0.117423 -0.730124
H35   H     H_    0.536921 0.266498 0.073431 0.314098
O17   O     O_3   0.134442 0.179360 0.804441 -0.701180
H36   H     H_    0.112568 0.167675 0.882733 0.335377
C61   C     C_3   0.658198 0.620814 0.715971 -0.846987
H37   H     H_    0.687894 0.665708 0.776661 0.238713
H38   H     H_    0.634444 0.696545 0.674025 0.225622
H39   H     H_    0.636732 0.560961 0.785682 0.254787
C62   C     C_3   0.879611 0.294228 0.860333 -0.742136
H40   H     H_    0.907412 0.273470 0.940745 0.223675
H41   H     H_    0.861044 0.382848 0.889210 0.257324
H42   H     H_    0.853231 0.215059 0.860063 0.273274
C63   C     C_3   0.033852 0.097791 0.765841 -0.906202
H43   H     H_    0.058219 0.014218 0.761897 0.267496
H44   H     H_    0.029476 0.124916 0.873494 0.244553
H45   H     H_    0.997981 0.067366 0.722954 0.259811
C64   C     C_3   0.332800 0.659554 0.647593 -0.911360
H46   H     H_    0.321873 0.648248 0.754895 0.259879
H47   H     H_    0.372698 0.677404 0.647409 0.241781
H48   H     H_    0.314578 0.743937 0.603821 0.245552

loop_
_geom_bond_atom_site_label_1
_geom_bond_atom_site_label_2
_geom_bond_distance
_ccdc_geom_bond_type
C19   C38   1.422819 A    
C26   O12   1.350848 S    
N2    C27   1.368118 A    
C7    C8    1.419658 A    
C35   C40   1.419112 A    
C12   C15   1.405818 A    
C4    C17   1.467198 S    
C28   C29   1.399610 A    
C7    C55   1.514727 S    
C63   H43   1.110986 S    
C60   H33   1.102837 S    
N4    C52   1.360493 A    
C36   C63   1.516496 S    
C50   H11   1.081163 S    
C53   C59   1.532025 S    
Zn1   O7    1.983415 S    
C54   C60   1.530885 S    
C43   C56   1.514291 S    
C22   C23   1.419299 A    
C22   C62   1.513326 S    
O4    C2    1.295944 A    
O7    C4    1.295887 A    
C47   C58   1.533549 S    
C49   C54   1.509854 S    
C5    C13   1.410549 A    
C31   O14   1.381586 S    
C29   C61   1.507952 S    
C5    O9    1.348990 S    
C56   H22   1.110205 S    
C30   H6    1.083178 S    
Zn2   N3    2.013824 S    
C59   H29   1.107254 S    
Zn1   O5    1.987731 S    
C41   C48   1.498676 S    
C23   C27   1.415777 A    
O5    C3    1.280842 A    
O17   H36   0.989662 S    
C60   H32   1.110130 S    
C28   H3    1.083679 S    
C2    C16   1.460897 S    
C21   C22   1.396359 A    
C59   H30   1.109610 S    
C64   H46   1.109885 S    
C40   O15   1.383089 S    
C56   H21   1.103142 S    
C47   C48   1.515613 S    
C61   H39   1.109481 S    
C43   C44   1.411509 A    
C54   O16   1.411100 S    
O1    Zn1   1.990872 S    
C9    C10   1.378563 A    
C21   H4    1.077110 S    
C1    C42   1.409295 S    
C8    C64   1.513640 S    
O3    Zn1   1.973448 S    
C58   H27   1.111946 S    
C58   H26   1.110131 S    
C61   H38   1.108978 S    
C34   C35   1.415427 A    
C50   C51   1.420451 A    
C12   C34   1.408870 A    
C17   C29   1.415757 A    
C44   C45   1.412849 A    
C18   C21   1.407378 A    
N3    C50   1.368249 A    
O3    C2    1.293291 A    
C25   C26   1.395891 A    
C48   H9    1.108532 S    
C15   C37   1.397644 A    
C45   C46   1.384264 A    
C27   O10   1.347676 S    
C8    C16   1.416653 A    
C38   C39   1.396520 A    
C30   C31   1.397237 A    
C9    H1    1.076715 S    
O6    C3    1.280119 A    
C57   H25   1.108439 S    
O1    C1    1.280952 A    
C18   C20   1.418752 A    
C7    C11   1.418272 A    
C49   N3    1.365043 A    
C23   C24   1.418240 A    
C14   C36   1.417440 A    
O4    Zn2   1.983417 S    
C53   C54   1.537770 S    
Zn2   O8    1.973448 S    
C33   C36   1.427431 A    
C25   C39   1.394365 A    
C56   H20   1.110281 S    
C57   H24   1.105628 S    
N1    C6    1.365905 A    
N2    C32   1.435184 S    
O15   H19   0.991943 S    
N1    C11   1.431303 S    
C41   C46   1.361358 A    
C12   C13   1.408710 A    
C38   O13   1.383460 S    
C44   C57   1.518458 S    
C62   H42   1.109706 S    
C6    O11   1.350004 S    
C64   H47   1.104318 S    
C26   N2    1.363966 A    
C53   H13   1.112185 S    
C9    C16   1.396305 A    
O8    C4    1.296585 A    
C42   C43   1.417291 A    
C37   H5    1.083719 S    
C63   H45   1.109819 S    
C61   H37   1.110859 S    
C55   H14   1.109850 S    
C62   H41   1.110533 S    
C5    N1    1.368415 A    
C31   C32   1.402458 A    
C10   H2    1.083338 S    
Zn1   N4    2.013491 S    
C20   C24   1.418762 A    
C10   C11   1.391432 A    
O2    Zn2   1.987732 S    
C6    C15   1.394892 A    
C14   O17   1.383429 S    
C55   H16   1.107206 S    
C63   H44   1.110035 S    
C48   H10   1.106087 S    
C47   H8    1.110168 S    
C51   N4    1.368158 A    
C49   C52   1.408795 A    
C19   C35   1.418831 A    
C39   H7    1.083668 S    
C59   H31   1.110879 S    
C41   C42   1.384961 A    
O2    C1    1.281910 A    
C13   C14   1.411303 A    
O13   H17   0.991861 S    
C24   C25   1.407972 A    
C64   H48   1.109592 S    
O14   H18   0.991763 S    
C19   C20   1.424379 A    
O16   H35   0.993624 S    
C55   H15   1.109619 S    
C58   H28   1.108805 S    
C46   C47   1.501163 S    
C18   C33   1.422669 A    
C51   H12   1.081571 S    
Zn2   O6    1.990871 S    
C33   C34   1.411341 A    
C17   C30   1.403535 A    
C37   C40   1.401072 A    
C57   H23   1.109073 S    
C52   C53   1.488275 S    
C28   C32   1.400931 A    
C60   H34   1.110337 S    
C62   H40   1.111214 S    
C3    C45   1.407031 S    
