data_mof_unit_54204.cif
_audit_creation_date              2012-12-10T17:49:40-0500
_audit_creation_method            fapswitch 2.2
_symmetry_space_group_name_H-M    P1
_symmetry_Int_Tables_number       1
_space_group_crystal_system       triclinic
_cell_length_a                    10.530916
_cell_length_b                    10.691853
_cell_length_c                    9.957613
_cell_angle_alpha                 89.638188
_cell_angle_beta                  88.024068
_cell_angle_gamma                 94.298085
_cell_volume                      1117.31501396

loop_
_atom_site_label
_atom_site_type_symbol
_atom_type_description
_atom_site_fract_x
_atom_site_fract_y
_atom_site_fract_z
_atom_type_partial_charge
C1    C     C_R   0.496918 0.258220 0.500088 0.979272
C2    C     C_R   0.494130 0.051648 0.619129 -0.070257
C3    C     C_R   0.506362 0.122825 0.498566 -0.234429
C4    C     C_R   0.257672 0.500866 0.501989 0.987837
C5    C     C_R   0.549221 0.065959 0.379339 0.680025
C6    C     C_R   0.567223 0.939324 0.379862 -0.229124
C7    C     C_R   0.557885 0.872888 0.501052 -0.198621
C8    C     C_R   0.311161 0.355850 0.149299 -0.084256
C9    C     C_R   0.204796 0.301928 0.087693 -0.194259
C10   C     C_R   0.196072 0.309196 0.948830 -0.043873
C11   C     C_R   0.298756 0.368140 0.872946 -0.194290
C12   C     C_3   0.969727 0.525204 0.371274 -0.109628
C13   C     C_R   0.401917 0.434533 0.933247 0.135930
C14   C     C_R   0.404762 0.431505 0.076910 0.205187
C15   C     C_R   0.594386 0.561328 0.067415 -0.059662
C16   C     C_R   0.524111 0.738541 0.499370 0.945749
C17   C     C_R   0.595093 0.560575 0.924602 -0.054898
C18   C     C_R   0.742511 0.505371 0.497728 0.923629
C19   C     C_3   0.031748 0.491862 0.628572 -0.176171
C20   C     C_3   0.946022 0.401103 0.545857 0.731723
C21   C     C_3   0.877796 0.511024 0.493410 -0.164773
C22   C     C_3   0.961873 0.603745 0.575224 -0.300457
C23   C     C_3   0.038686 0.413056 0.423144 -0.284042
C24   C     C_3   0.055373 0.617297 0.452161 -0.050674
C25   C     C_2   0.533893 0.860763 0.992556 0.945260
C26   C     C_2   0.084578 0.245448 0.883482 1.013855
C27   C     C_2   0.113624 0.742555 0.403097 0.976341
C28   C     C_2   0.938727 0.545717 0.227363 0.964553
C29   C     C_2   0.336341 0.039634 0.966754 1.013410
C30   C     C_3   0.123027 0.506109 0.504745 -0.159477
C31   C     C_R   0.417389 0.080724 0.730978 0.596866
C32   C     C_R   0.426091 0.017423 0.854231 -0.155466
C33   C     C_R   0.516296 0.927406 0.865322 -0.088475
C34   C     C_R   0.577451 0.887307 0.748189 -0.160560
C35   C     C_R   0.549933 0.938267 0.622754 0.028345
F1    F     F_    0.881003 0.290974 0.591084 -0.653135
F2    F     F_    0.568976 0.130140 0.261475 -0.589431
F3    F     F_    0.320227 0.152858 0.712240 -0.672541
H1    H     H_    0.638445 0.810361 0.753609 0.161265
H2    H     H_    0.072436 0.333459 0.364445 0.179668
H3    H     H_    0.450690 0.764514 0.151470 0.356911
H4    H     H_    0.015526 0.162337 0.717771 0.402243
H5    H     H_    0.272791 0.854172 0.360093 0.354688
H6    H     H_    0.891468 0.667505 0.085624 0.346196
H7    H     H_    0.154596 0.021851 0.038441 0.355386
H8    H     H_    0.585409 0.892894 0.285946 0.219006
H9    H     H_    0.670129 0.612937 0.118001 0.190633
H10   H     H_    0.319880 0.332413 0.252756 0.197974
H11   H     H_    0.132700 0.247753 0.148140 0.193430
H12   H     H_    0.298670 0.356145 0.768004 0.267733
H13   H     H_    0.672805 0.610664 0.868380 0.141662
H14   H     H_    0.059915 0.478307 0.733678 0.175028
H15   H     H_    0.926700 0.681771 0.635720 0.188397
N1    N     N_R   0.498800 0.498800 0.142780 -0.135511
N2    N     N_R   0.498760 0.498720 0.857170 -0.125415
O1    O     O_R   0.500000 0.316780 0.614690 -0.590646
O2    O     O_R   0.427406 0.812047 0.068915 -0.789784
O3    O     O_2   0.988481 0.211428 0.950535 -0.553571
O4    O     O_R   0.089875 0.220725 0.746021 -0.731833
O5    O     O_2   0.044388 0.824136 0.372386 -0.557312
O6    O     O_R   0.245729 0.766283 0.394112 -0.795980
O7    O     O_2   0.949372 0.461742 0.146007 -0.602492
O8    O     O_R   0.901547 0.662214 0.186351 -0.762124
O9    O     O_2   0.376412 0.077263 0.074059 -0.580224
O10   O     O_R   0.206158 0.010083 0.952188 -0.747377
O11   O     O_R   0.499990 0.316750 0.385360 -0.582502
O12   O     O_R   0.313960 0.499980 0.614650 -0.643533
O13   O     O_R   0.313940 0.499960 0.385310 -0.635188
O14   O     O_R   0.500010 0.683250 0.614640 -0.626014
O15   O     O_R   0.500000 0.683220 0.385310 -0.607438
O16   O     O_R   0.686060 0.500040 0.614690 -0.615684
O17   O     O_R   0.686040 0.500020 0.385350 -0.616488
O18   O     O_2   0.641482 0.845976 0.028882 -0.625531
Zn1   Zn    Zn3+2 0.500010 0.500020 0.653130 0.986022
Zn2   Zn    Zn3+2 0.499990 0.499980 0.346870 1.008928

loop_
_geom_bond_atom_site_label_1
_geom_bond_atom_site_label_2
_ccdc_geom_bond_type
C2    C35   A    
C5    F2    S    
C18   C21   S    
C19   C20   S    
C24   C27   S    
C15   H9    S    
C17   H13   S    
O13   Zn2   S    
C12   C23   S    
C12   C28   S    
C1    O1    A    
C29   C32   S    
C27   O5    D    
C5    C6    A    
C23   H2    S    
C23   C30   S    
C34   C35   A    
C27   O6    S    
N2    Zn1   S    
C19   H14   S    
C8    C9    A    
C26   O4    S    
C17   N2    A    
C10   C26   S    
C29   O9    D    
C13   C14   A    
C25   O2    S    
O17   Zn2   S    
C33   C34   A    
C22   H15   S    
H6    O8    S    
C18   O17   A    
O1    Zn1   S    
C34   H1    S    
C15   N1    A    
C19   C22   S    
C9    H11   S    
C4    O13   A    
C12   C21   S    
C2    C31   A    
C1    C3    S    
C8    H10   S    
C4    O12   A    
C31   C32   A    
C20   C23   S    
C1    O11   A    
C16   O15   A    
O14   Zn1   S    
O12   Zn1   S    
C26   O3    D    
C29   O10   S    
C7    C16   S    
C14   N1    A    
H7    O10   S    
C22   C24   S    
H5    O6    S    
C9    C10   A    
C18   O16   A    
C15   C17   A    
C8    C14   A    
C6    H8    S    
C7    C35   A    
C16   O14   A    
C3    C5    A    
H4    O4    S    
O16   Zn1   S    
C6    C7    A    
C12   C24   S    
C31   F3    S    
C32   C33   A    
C2    C3    A    
H3    O2    S    
C11   H12   S    
C11   C13   A    
O11   Zn2   S    
C25   O18   D    
C24   C30   S    
C10   C11   A    
N1    Zn2   S    
C20   F1    S    
C28   O8    S    
C20   C21   S    
O15   Zn2   S    
C21   C22   S    
C19   C30   S    
C4    C30   S    
C25   C33   S    
C13   N2    A    
C28   O7    D    
