data_mof_unit_53739.cif
_audit_creation_date              2012-12-11T15:33:42-0500
_audit_creation_method            fapswitch 2.2
_symmetry_space_group_name_H-M    P1
_symmetry_Int_Tables_number       1
_space_group_crystal_system       triclinic
_cell_length_a                    26.994652
_cell_length_b                    7.206812
_cell_length_c                    22.733027
_cell_angle_alpha                 89.989928
_cell_angle_beta                  101.287315
_cell_angle_gamma                 90.117008
_cell_volume                      4337.05430093

loop_
_atom_site_label
_atom_site_type_symbol
_atom_type_description
_atom_site_fract_x
_atom_site_fract_y
_atom_site_fract_z
_atom_type_partial_charge
O1    O     O_R   0.207310 0.594030 0.676830 -0.529048
O2    O     O_R   0.792690 0.405970 0.323170 -0.529048
O3    O     O_R   0.292690 0.094030 0.823170 -0.530892
O4    O     O_R   0.707310 0.905970 0.176830 -0.530891
O5    O     O_R   0.197320 0.262370 0.795700 -0.541788
O6    O     O_R   0.802680 0.737630 0.204300 -0.541788
O7    O     O_R   0.302680 0.762370 0.704300 -0.536713
O8    O     O_R   0.697320 0.237630 0.295700 -0.536712
C1    C     C_R   0.184959 0.432251 0.812315 0.709578
C2    C     C_R   0.815040 0.567749 0.187685 0.709579
C3    C     C_R   0.315155 0.932550 0.687874 0.711936
C4    C     C_R   0.684845 0.067450 0.312126 0.711937
O9    O     O_R   0.201410 0.264250 0.675590 -0.534650
O10   O     O_R   0.798590 0.735750 0.324410 -0.534650
O11   O     O_R   0.298590 0.764250 0.824410 -0.534139
O12   O     O_R   0.701410 0.235750 0.175590 -0.534138
O13   O     O_R   0.296810 0.094940 0.702210 -0.541064
O14   O     O_R   0.703190 0.905060 0.297790 -0.541065
O15   O     O_R   0.203190 0.594940 0.797790 -0.537932
O16   O     O_R   0.796810 0.405060 0.202210 -0.537931
C5    C     C_R   0.189722 0.432474 0.653290 0.684589
C6    C     C_R   0.810278 0.567526 0.346710 0.684589
C7    C     C_R   0.310251 0.932729 0.846692 0.688700
C8    C     C_R   0.689749 0.067270 0.153308 0.688699
O17   O     O_3   0.281300 0.427390 0.758870 -0.372719
O18   O     O_3   0.718700 0.572610 0.241130 -0.372719
O19   O     O_3   0.218700 0.927390 0.741130 -0.372893
O20   O     O_3   0.781300 0.072610 0.258870 -0.372893
V1    V     V_3+5 0.244190 0.152150 0.748350 1.445374
V2    V     V_3+5 0.755810 0.847850 0.251650 1.445375
V3    V     V_3+5 0.255810 0.652150 0.751650 1.453368
V4    V     V_3+5 0.744190 0.347850 0.248350 1.453369
C9    C     C_R   0.656081 0.060907 0.093360 -0.171507
C10   C     C_R   0.343918 0.939093 0.906640 -0.171505
C11   C     C_R   0.844021 0.562441 0.406665 -0.170627
C12   C     C_R   0.155978 0.437559 0.593335 -0.170628
C13   C     C_R   0.641545 0.103963 0.984971 0.459780
C14   C     C_R   0.358454 0.896037 0.015029 0.459780
C15   C     C_R   0.859275 0.617983 0.514516 0.462714
C16   C     C_R   0.140725 0.382019 0.485483 0.462715
C17   C     C_R   0.675115 0.097995 0.041193 -0.130996
C18   C     C_R   0.324885 0.902005 0.958807 -0.130999
C19   C     C_R   0.825504 0.608114 0.458525 -0.159822
C20   C     C_R   0.174496 0.391887 0.541475 -0.159822
C21   C     C_R   0.604569 0.022675 0.088907 -0.167362
C22   C     C_R   0.395431 0.977325 0.911093 -0.167361
C23   C     C_R   0.895260 0.519646 0.411339 -0.160257
C24   C     C_R   0.104740 0.480353 0.588661 -0.160257
C25   C     C_R   0.569915 0.029990 0.033142 0.019004
C26   C     C_R   0.430084 0.970010 0.966858 0.019004
C27   C     C_R   0.930167 0.531276 0.466862 0.019548
C28   C     C_R   0.069833 0.468724 0.533138 0.019548
C29   C     C_R   0.588366 0.088732 0.981566 -0.091034
C30   C     C_R   0.411633 0.911268 0.018434 -0.091035
C31   C     C_R   0.912299 0.598482 0.517827 -0.088192
C32   C     C_R   0.087701 0.401519 0.482173 -0.088192
C33   C     C_R   0.517242 0.984975 0.027598 0.024095
C34   C     C_R   0.482758 0.015025 0.972402 0.024095
C35   C     C_R   0.982572 0.482683 0.472682 0.024316
C36   C     C_R   0.017428 0.517316 0.527318 0.024316
C37   C     C_R   0.501539 0.097230 0.925106 -0.202055
C38   C     C_R   0.498461 0.902770 0.074894 -0.202055
C39   C     C_R   0.999311 0.607350 0.573702 -0.199782
C40   C     C_R   0.000689 0.392649 0.426298 -0.199783
C41   C     C_R   0.552762 0.133388 0.928891 0.431066
C42   C     C_R   0.447237 0.866612 0.071109 0.431066
C43   C     C_R   0.948317 0.647195 0.569756 0.429440
C44   C     C_R   0.051683 0.352806 0.430244 0.429441
H1    H     H_    0.407773 0.003037 0.869484 0.121819
H2    H     H_    0.592227 0.996962 0.130516 0.121820
H3    H     H_    0.092713 0.512296 0.630038 0.121957
H4    H     H_    0.907287 0.487702 0.369962 0.121957
H5    H     H_    0.476627 0.142730 0.884727 0.160817
H6    H     H_    0.523373 0.857271 0.115274 0.160817
H7    H     H_    0.024618 0.656182 0.613368 0.160796
H8    H     H_    0.975382 0.343817 0.386632 0.160796
C45   C     C_R   0.644281 0.897584 0.386867 -0.069892
C46   C     C_R   0.355719 0.102415 0.613133 -0.069894
C47   C     C_R   0.855587 0.396826 0.113253 -0.168630
C48   C     C_R   0.144412 0.603176 0.886746 -0.168627
H9    H     H_    0.670841 0.786084 0.385714 0.159919
H10   H     H_    0.329159 0.213916 0.614286 0.159919
H11   H     H_    0.829684 0.283173 0.115334 0.123950
H12   H     H_    0.170315 0.716830 0.884665 0.123949
C49   C     C_R   0.608495 0.880974 0.424155 -0.076321
C50   C     C_R   0.391505 0.119025 0.575845 -0.076320
C51   C     C_R   0.889716 0.383156 0.073990 -0.083541
C52   C     C_R   0.110284 0.616844 0.926010 -0.083540
C53   C     C_R   0.572951 0.025333 0.425000 -0.124239
C54   C     C_R   0.427049 0.974667 0.575001 -0.124239
C55   C     C_R   0.924457 0.530086 0.071349 -0.070371
C56   C     C_R   0.075544 0.469912 0.928652 -0.070368
C57   C     C_R   0.574478 0.182614 0.388115 0.455703
C58   C     C_R   0.425522 0.817385 0.611885 0.455703
C59   C     C_R   0.921987 0.690530 0.106583 0.390927
C60   C     C_R   0.078014 0.309467 0.893418 0.390924
C61   C     C_R   0.611260 0.197793 0.352393 -0.154149
C62   C     C_R   0.388740 0.802207 0.647607 -0.154148
C63   C     C_R   0.886114 0.703868 0.143565 -0.197461
C64   C     C_R   0.113887 0.296130 0.856436 -0.197462
H13   H     H_    0.611812 0.320293 0.324906 0.160557
H14   H     H_    0.388188 0.679707 0.675094 0.160557
H15   H     H_    0.885133 0.828154 0.170101 0.156660
H16   H     H_    0.114868 0.171844 0.829900 0.156659
C65   C     C_R   0.646359 0.055314 0.351052 -0.152350
C66   C     C_R   0.353641 0.944686 0.648948 -0.152350
C67   C     C_R   0.852925 0.556627 0.147920 -0.094002
C68   C     C_R   0.147075 0.443373 0.852080 -0.094001
N1    N     N_R   0.484610 0.020932 0.440392 -0.167009
N2    N     N_R   0.515390 0.979067 0.559608 -0.167009
N3    N     N_R   0.967970 0.644794 0.992009 -0.164348
N4    N     N_R   0.032032 0.355205 0.007993 -0.164345
N5    N     N_R   0.450491 0.007631 0.475476 -0.237833
N6    N     N_R   0.549509 0.992367 0.524524 -0.237833
N7    N     N_R   0.003150 0.629974 0.958415 -0.173587
N8    N     N_R   0.996851 0.370025 0.041587 -0.173576
C69   C     C_R   0.465178 0.986450 0.535801 0.523232
C70   C     C_R   0.534822 0.013549 0.464200 0.523232
C71   C     C_R   0.035927 0.484950 0.965740 0.609812
C72   C     C_R   0.964074 0.515049 0.034262 0.609815
Cl1   Cl    Cl    0.567332 0.265286 0.868962 -0.447208
Cl2   Cl    Cl    0.432668 0.734715 0.131038 -0.447207
Cl3   Cl    Cl    0.934688 0.788290 0.628109 -0.449071
Cl4   Cl    Cl    0.065312 0.211711 0.371891 -0.449070
C73   C     C_2   0.269550 0.872145 0.953659 0.508417
H17   H     H_    0.242995 0.937176 0.917572 -0.022982
O21   O     O_2   0.253054 0.769713 0.988079 -0.474542
C74   C     C_2   0.730449 0.127855 0.046341 0.508412
H18   H     H_    0.757005 0.062824 0.082428 -0.022981
O22   O     O_2   0.746946 0.230288 0.011920 -0.474546
C75   C     C_2   0.229545 0.357070 0.546652 0.556227
H19   H     H_    0.256641 0.425032 0.581605 0.006589
O23   O     O_2   0.245139 0.247493 0.513609 -0.453896
C76   C     C_2   0.770455 0.642934 0.453347 0.556227
H20   H     H_    0.743359 0.574970 0.418396 0.006590
O24   O     O_2   0.754861 0.752514 0.486390 -0.453898
Cl5   Cl    Cl    0.667796 0.090974 0.919387 -0.364990
Cl6   Cl    Cl    0.332204 0.909026 0.080613 -0.364987
Cl7   Cl    Cl    0.833240 0.615774 0.580379 -0.356076
Cl8   Cl    Cl    0.166760 0.384231 0.419621 -0.356074
C77   C     C_2   0.607759 0.708811 0.460114 0.567365
H21   H     H_    0.577409 0.682119 0.483915 0.100738
O25   O     O_2   0.641006 0.592471 0.463166 -0.495489
C78   C     C_2   0.392241 0.291188 0.539887 0.567365
H22   H     H_    0.422592 0.317881 0.516085 0.100737
O26   O     O_2   0.358994 0.407528 0.536834 -0.495487
C79   C     C_2   0.885696 0.215361 0.035304 0.615550
H23   H     H_    0.865496 0.094251 0.046701 0.045360
O27   O     O_2   0.902698 0.211635 0.989369 -0.458012
C80   C     C_2   0.114303 0.784640 0.964695 0.615556
H24   H     H_    0.134496 0.905762 0.953293 0.045361
O28   O     O_2   0.097309 0.788353 0.010635 -0.458010
Cl9   Cl    Cl    0.531241 0.366368 0.386194 -0.560415
Cl10  Cl    Cl    0.468759 0.633631 0.613806 -0.560415
Cl11  Cl    Cl    0.965197 0.874982 0.108158 -0.520030
Cl12  Cl    Cl    0.034804 0.125015 0.891844 -0.520042

loop_
_geom_bond_atom_site_label_1
_geom_bond_atom_site_label_2
_ccdc_geom_bond_type
O17   V3    S    
C63   H15   S    
O1    C5    A    
C51   C55   A    
O19   V1    S    
C9    C21   A    
O3    C7    A    
C79   H23   S    
C10   C18   A    
C56   C60   A    
C48   H12   S    
C11   C23   A    
C74   H18   S    
C44   Cl4   S    
C47   C51   A    
C25   C33   A    
C33   C38   A    
C5    C12   S    
C20   C75   S    
O7    C3    A    
C6    C11   S    
C35   C40   A    
C26   C30   A    
C51   C79   S    
C36   C39   A    
C40   C44   A    
O9    V1    S    
C79   O27   D    
C56   C71   S    
C14   C18   A    
C77   O25   D    
C4    C65   S    
O4    C8    A    
C59   C63   A    
C58   C62   A    
C16   Cl8   S    
O1    V3    S    
O13   V1    S    
O2    V4    S    
O3    V1    S    
C22   H1    S    
C28   C36   A    
C18   C73   S    
C1    O15   A    
C64   H16   S    
C15   C31   A    
C52   C56   A    
C2    O16   A    
C16   C32   A    
O2    C6    A    
C42   Cl2   S    
C12   C24   A    
C10   C22   A    
C41   Cl1   S    
C11   C19   A    
N2    N6    A    
C16   C20   A    
C27   C31   A    
N1    N5    A    
C13   C29   A    
C46   C50   A    
C34   C37   A    
O11   C7    A    
O15   V3    S    
C35   C36   A    
O12   C8    A    
C13   Cl5   S    
C53   C57   A    
C17   C74   S    
C2    C67   S    
O10   V2    S    
N2    C69   A    
N1    C70   A    
C54   C58   A    
O5    V1    S    
C14   Cl6   S    
C39   C43   A    
C64   C68   A    
O7    V3    S    
C38   C42   A    
C47   C67   A    
O8    V4    S    
C54   C69   S    
C78   O26   D    
C50   C54   A    
C49   C77   S    
C49   C53   A    
O18   V4    S    
C15   C19   A    
C37   H5    S    
C62   H14   S    
C55   C59   A    
N8    C72   A    
C43   Cl3   S    
N3    C72   A    
C1    C68   S    
C26   C34   A    
C19   C76   S    
O5    C1    A    
C23   C27   A    
C46   H10   S    
C31   C43   A    
C14   C30   A    
C45   H9    S    
O8    C4    A    
C7    C10   S    
C3    C66   S    
C21   C25   A    
C40   H8    S    
O9    C5    A    
N6    C70   A    
N5    C69   A    
O6    V2    S    
N7    C71   A    
C73   H17   S    
C80   O28   D    
C12   C20   A    
C27   C35   A    
C24   H3    S    
C75   H19   S    
C57   C61   A    
N4    N8    A    
C29   C41   A    
O16   V4    S    
C48   C68   A    
C3    O13   A    
C21   H2    S    
C80   H24   S    
C52   C80   S    
C78   H22   S    
C75   O23   D    
C74   O22   D    
O6    C2    A    
N4    C71   A    
C76   O24   D    
O11   V3    S    
C76   H20   S    
C30   C42   A    
O12   V4    S    
C63   C67   A    
C22   C26   A    
C8    C9    S    
C62   C66   A    
C46   C66   A    
C9    C17   A    
O10   C6    A    
C57   Cl9   S    
C61   C65   A    
C48   C52   A    
C32   C44   A    
C77   H21   S    
C47   H11   S    
C58   Cl10  S    
C33   C34   A    
C60   Cl12  S    
C39   H7    S    
C25   C29   A    
C60   C64   A    
O20   V2    S    
C50   C78   S    
C59   Cl11  S    
C13   C17   A    
C45   C65   A    
O4    V2    S    
C23   H4    S    
O14   V2    S    
C45   C49   A    
C37   C41   A    
C24   C28   A    
C53   C70   S    
C4    O14   A    
C73   O21   D    
C55   C72   S    
C38   H6    S    
N3    N7    A    
C15   Cl7   S    
C61   H13   S    
C28   C32   A    
