data_mof_unit_68179.cif
_audit_creation_date              2013-03-05T16:02:50-0500
_audit_creation_method            fapswitch 2.2
_symmetry_space_group_name_H-M    P1
_symmetry_Int_Tables_number       1
_space_group_crystal_system       triclinic
_cell_length_a                    7.114252
_cell_length_b                    14.177527
_cell_length_c                    16.598995
_cell_angle_alpha                 89.999255
_cell_angle_beta                  90.753615
_cell_angle_gamma                 89.998327
_cell_volume                      1674.07130907

loop_
_atom_site_label
_atom_site_type_symbol
_atom_site_description
_atom_site_fract_x
_atom_site_fract_y
_atom_site_fract_z
_atom_type_partial_charge
O1    O     O_R   0.611670 0.415650 0.164070 -0.571955
O2    O     O_R   0.388330 0.915650 0.835930 -0.571964
O3    O     O_R   0.940950 0.405490 0.337780 -0.546025
O4    O     O_R   0.059050 0.905490 0.662220 -0.546034
O5    O     O_R   0.111350 0.584350 0.338470 -0.595239
O6    O     O_R   0.888650 0.084350 0.661530 -0.595230
C1    C     C_R   0.772262 0.383606 0.367287 1.027638
C2    C     C_R   0.227736 0.883618 0.632704 1.027644
O7    O     O_R   0.941380 0.404630 0.164680 -0.563831
O8    O     O_R   0.058620 0.904630 0.835320 -0.563833
O9    O     O_R   0.111780 0.583470 0.164130 -0.582094
O10   O     O_R   0.888220 0.083470 0.835870 -0.582094
C3    C     C_R   0.773701 0.376461 0.140365 0.954046
C4    C     C_R   0.226304 0.876467 0.859639 0.954058
O11   O     O_R   0.611240 0.416530 0.338400 -0.559273
O12   O     O_R   0.388760 0.916530 0.661600 -0.559249
O13   O     O_3   0.778020 0.558680 0.251290 -0.276814
O14   O     O_3   0.221980 0.058680 0.748710 -0.276801
V1    V     V_3+5 0.052840 0.489110 0.251260 1.295291
V2    V     V_3+5 0.947160 0.989110 0.748740 1.295291
O15   O     O_R   0.441500 0.594510 0.164760 -0.590265
O16   O     O_R   0.558500 0.094510 0.835240 -0.590251
C5    C     C_R   0.272591 0.619111 0.139263 0.883239
C6    C     C_R   0.727406 0.119105 0.860744 0.883243
O17   O     O_R   0.441080 0.595370 0.337860 -0.576220
O18   O     O_R   0.558920 0.095370 0.662140 -0.576203
C7    C     C_R   0.274023 0.620152 0.364231 0.970484
C8    C     C_R   0.725972 0.120136 0.635755 0.970565
V3    V     V_3+5 0.552850 0.510890 0.251270 1.275545
V4    V     V_3+5 0.447150 0.010890 0.748730 1.275576
O19   O     O_3   0.277800 0.441320 0.251250 -0.211628
O20   O     O_3   0.722200 0.941320 0.748750 -0.211648
C9    C     C_3   0.067696 0.699102 0.464910 -0.459992
C10   C     C_3   0.932318 0.199101 0.535082 -0.460050
C11   C     C_3   0.060025 0.759607 0.541727 0.302686
C12   C     C_3   0.940039 0.259625 0.458277 0.302775
H1    H     H_    0.228847 0.815330 0.354968 0.158990
H2    H     H_    0.770989 0.315308 0.645008 0.158944
C13   C     C_3   0.321239 0.795663 0.406868 0.149603
C14   C     C_3   0.678644 0.295624 0.593098 0.149601
C15   C     C_3   0.400958 0.662743 0.504853 -0.382103
C16   C     C_3   0.599102 0.162688 0.495109 -0.382163
C17   C     C_3   0.269594 0.692912 0.433181 -0.197069
C18   C     C_3   0.730397 0.192883 0.566794 -0.197074
C19   C     C_3   0.243931 0.813459 0.559935 -0.423120
C20   C     C_3   0.756068 0.313434 0.440045 -0.423060
C21   C     C_3   0.290027 0.867141 0.478532 0.065823
C22   C     C_3   0.709836 0.367108 0.521439 0.065715
C23   C     C_3   0.402909 0.738193 0.573885 0.616198
C24   C     C_3   0.597140 0.238141 0.426078 0.616231
C25   C     C_R   0.345181 0.937529 0.017593 -0.262554
C26   C     C_R   0.654866 0.437521 0.982412 -0.262521
C27   C     C_R   0.405311 0.971350 0.092157 0.363582
C28   C     C_R   0.594781 0.471351 0.907845 0.363581
C29   C     C_R   0.431046 0.910477 0.156801 0.007683
C30   C     C_R   0.569091 0.410486 0.843195 0.007601
C31   C     C_R   0.387363 0.815537 0.148411 -0.154372
C32   C     C_R   0.612735 0.315540 0.851588 -0.154335
C33   C     C_R   0.319397 0.779359 0.074292 0.137673
C34   C     C_R   0.680645 0.279354 0.925712 0.137688
C35   C     C_R   0.301899 0.841086 0.006339 0.125625
C36   C     C_R   0.698137 0.341078 0.993667 0.125600
C37   C     C_R   0.263676 0.684121 0.068290 -0.168813
C38   C     C_R   0.736327 0.184116 0.931716 -0.168852
C39   C     C_R   0.194497 0.649753 0.994239 0.093476
C40   C     C_R   0.805535 0.149755 0.005764 0.093472
C41   C     C_R   0.159071 0.711769 0.927490 -0.003204
C42   C     C_R   0.840984 0.211771 0.072512 -0.003239
C43   C     C_R   0.227898 0.808276 0.931082 -0.168274
C44   C     C_R   0.772126 0.308267 0.068925 -0.168257
C45   C     C_R   0.170961 0.551393 0.984862 -0.290266
C46   C     C_R   0.829083 0.051400 0.015141 -0.290278
C47   C     C_R   0.113070 0.512877 0.912667 0.232050
C48   C     C_R   0.887031 0.012886 0.087332 0.232034
C49   C     C_R   0.049471 0.571998 0.851314 0.361772
C50   C     C_R   0.950676 0.072005 0.148676 0.361800
C51   C     C_R   0.058695 0.671463 0.860722 0.243028
C52   C     C_R   0.941408 0.171471 0.139270 0.243059
H3    H     H_    0.479004 0.937414 0.214551 0.217251
H4    H     H_    0.521174 0.437431 0.785441 0.217204
H5    H     H_    0.973352 0.730228 0.417868 0.220128
H6    H     H_    0.026611 0.230224 0.582138 0.220147
Br1   Br    Br    0.633332 0.805213 0.575544 -0.463855
Br2   Br    Br    0.366648 0.305119 0.424386 -0.463723
Br3   Br    Br    0.576135 0.806177 0.365127 -0.506321
Br4   Br    Br    0.423697 0.306097 0.634811 -0.506291
H7    H     H_    0.414968 0.913093 0.486084 0.197238
H8    H     H_    0.584842 0.413042 0.513871 0.197242
Br5   Br    Br    0.936031 0.512240 0.759313 -0.301762
Br6   Br    Br    0.064225 0.012241 0.240658 -0.301831
H9    H     H_    0.323712 0.989013 0.970337 0.156803
H10   H     H_    0.676306 0.489003 0.029672 0.156813
Br7   Br    Br    0.437026 0.102636 0.107022 -0.504339
Br8   Br    Br    0.562998 0.602635 0.893005 -0.504401
H11   H     H_    0.402759 0.771438 0.201174 0.144450
H12   H     H_    0.597354 0.271444 0.798824 0.144392
H13   H     H_    0.211238 0.501991 0.031665 0.183551
H14   H     H_    0.788776 0.001997 0.968344 0.183531
Br9   Br    Br    0.118707 0.377767 0.902580 -0.525490
Br10  Br    Br    0.881398 0.877777 0.097428 -0.525532
H15   H     H_    0.012097 0.627345 0.475839 0.254412
H16   H     H_    0.987963 0.127362 0.524141 0.254429
Br11  Br    Br    0.866851 0.741702 0.805651 -0.285582
Br12  Br    Br    0.133162 0.241732 0.194352 -0.285567
Br13  Br    Br    0.980554 0.678704 0.627244 -0.314896
Br14  Br    Br    0.019677 0.178752 0.372753 -0.314837
H17   H     H_    0.957758 0.814649 0.530131 0.197349
H18   H     H_    0.042257 0.314702 0.469928 0.197310
Br15  Br    Br    0.097207 0.958407 0.449303 -0.462976
Br16  Br    Br    0.902591 0.458412 0.550693 -0.462970
H19   H     H_    0.545997 0.649497 0.483500 0.222929
H20   H     H_    0.454052 0.149413 0.516446 0.222924
H21   H     H_    0.349924 0.594164 0.528698 0.217714
H22   H     H_    0.650215 0.094119 0.471270 0.217763
Br17  Br    Br    0.413003 0.676592 0.679508 -0.327935
Br18  Br    Br    0.587072 0.176549 0.320459 -0.327937

loop_
_geom_bond_atom_site_label_1
_geom_bond_atom_site_label_2
_geom_bond_distance
_ccdc_geom_bond_type
C40   C42   1.434179 A    
C37   C39   1.405211 A    
O6    C8    1.329212 A    
C12   H18   1.082731 S    
O13   V3    1.739325 S    
C22   Br16  1.942812 S    
C25   C35   1.413426 A    
O4    C2    1.338594 A    
V1    O19   1.737918 S    
C24   Br2   1.894744 S    
C46   H14   1.081832 S    
C45   H13   1.081815 S    
O9    V1    2.018205 S    
C10   H16   1.107270 S    
C48   C50   1.390073 A    
C9    H15   1.107368 S    
C50   C52   1.420230 A    
O3    C1    1.338596 A    
C5    C37   1.496455 S    
C31   C33   1.412400 A    
C3    C44   1.529947 S    
O12   V4    2.009534 S    
C47   Br9   1.923303 S    
C36   C44   1.427118 A    
C34   C36   1.431761 A    
O7    V1    2.024549 S    
C14   Br4   1.955554 S    
C32   H12   1.080471 S    
C2    C19   1.570138 S    
O7    C3    1.316358 A    
C25   H9    1.080856 S    
O5    C7    1.329226 A    
C16   H22   1.112500 S    
C40   C46   1.412810 A    
O8    V2    2.024499 S    
C39   C41   1.434149 A    
C41   C51   1.429687 A    
C22   H8    1.107998 S    
O3    V1    2.032658 S    
O14   V4    1.739288 S    
V4    O20   2.191276 S    
O14   V2    2.189875 S    
C19   C21   1.588762 S    
C2    O12   1.321243 A    
C42   C52   1.429658 A    
C15   C17   1.562831 S    
C16   C18   1.562827 S    
C48   Br10  1.923287 S    
C15   C23   1.567495 S    
C26   C28   1.389539 A    
O11   V3    2.009492 S    
C20   C22   1.588800 S    
C27   C29   1.387269 A    
O17   V3    2.040271 S    
C28   C30   1.387262 A    
C33   C35   1.431759 A    
C52   Br12  1.912203 S    
C9    C17   1.538856 S    
C1    C20   1.570102 S    
C10   C18   1.538946 S    
C46   C48   1.375131 A    
O8    C4    1.316362 A    
C45   C47   1.375107 A    
O13   V1    2.189825 S    
C16   H20   1.111462 S    
C1    O11   1.321216 A    
C21   Br15  1.942615 S    
C12   Br14  1.916286 S    
C8    C18   1.541404 S    
C41   C43   1.454180 A    
C38   C40   1.405172 A    
C11   Br13  1.916073 S    
C29   H3    1.082856 S    
C19   C23   1.569872 S    
V3    O19   2.191327 S    
O10   V2    2.018213 S    
C24   Br18  1.959084 S    
O1    V3    2.027151 S    
C12   C20   1.541457 S    
C49   C51   1.420214 A    
C16   C24   1.567495 S    
C23   Br17  1.959184 S    
C9    H5    1.114065 S    
O18   V4    2.040276 S    
O15   C5    1.315809 A    
C15   H19   1.111404 S    
C4    C43   1.529940 S    
O16   C6    1.315820 A    
C26   H10   1.080856 S    
O1    C3    1.343206 A    
C47   C49   1.390060 A    
C11   C19   1.541336 S    
C13   C21   1.580588 S    
V2    O20   1.737955 S    
C35   C43   1.427142 A    
C14   C22   1.580549 S    
O10   C6    1.321746 A    
O16   V4    2.016239 S    
C33   C37   1.410400 A    
C15   H21   1.112477 S    
C13   C17   1.565923 S    
O5    V1    2.018977 S    
O17   C7    1.319555 A    
O6    V2    2.018936 S    
C20   C24   1.569962 S    
O18   C8    1.319557 A    
C30   H4    1.082839 S    
O2    V4    2.027145 S    
C34   C38   1.410308 A    
C23   Br1   1.894665 S    
C29   C31   1.388024 A    
H1    C13   1.112220 S    
C39   C45   1.412877 A    
H2    C14   1.112224 S    
O15   V3    2.016188 S    
O9    C5    1.321744 A    
C9    C11   1.538344 S    
C30   C32   1.388030 A    
C6    C38   1.496485 S    
C10   C12   1.538322 S    
O2    C4    1.343183 A    
C28   Br8   1.890674 S    
C11   H17   1.082412 S    
C49   Br5   1.915421 S    
O4    V2    2.032652 S    
C7    C17   1.541419 S    
C14   C18   1.565922 S    
C42   C44   1.454081 A    
C31   H11   1.080466 S    
C51   Br11  1.912353 S    
C13   Br3   1.955440 S    
C26   C36   1.413399 A    
C10   H6    1.114026 S    
C25   C27   1.389568 A    
C32   C34   1.412361 A    
C27   Br7   1.890722 S    
C50   Br6   1.915492 S    
C21   H7    1.107850 S    
