data_mof_unit_16225.cif
_audit_creation_date              2012-12-10T20:44:50-0500
_audit_creation_method            fapswitch 2.2
_symmetry_space_group_name_H-M    P1
_symmetry_Int_Tables_number       1
_space_group_crystal_system       triclinic
_cell_length_a                    9.961384
_cell_length_b                    10.803658
_cell_length_c                    16.79276
_cell_angle_alpha                 86.916426
_cell_angle_beta                  94.379143
_cell_angle_gamma                 90.779626
_cell_volume                      1799.25964534

loop_
_atom_site_label
_atom_site_type_symbol
_atom_type_description
_atom_site_fract_x
_atom_site_fract_y
_atom_site_fract_z
_atom_type_partial_charge
C1    C     C_R   0.499000 0.260193 0.502139 0.905524
C2    C     C_R   0.495457 0.127780 0.502074 -0.196845
C3    C     C_R   0.380875 0.057930 0.522416 0.385090
C4    C     C_R   0.517655 0.505024 0.652948 0.869263
C5    C     C_R   0.384408 0.930189 0.522635 -0.266973
C6    C     C_R   0.501276 0.870910 0.504794 -0.179094
C7    C     C_R   0.612187 0.940312 0.482980 0.104426
C8    C     C_3   0.754077 0.938488 0.519818 -0.136235
C9    C     C_3   0.750669 0.078868 0.513735 -0.421552
C10   C     C_R   0.076769 0.426403 0.554332 0.174561
C11   C     C_R   0.065580 0.564053 0.442032 0.338070
C12   C     C_R   0.652024 0.566137 0.775780 -0.244252
C13   C     C_R   0.922261 0.560162 0.440064 0.308383
C14   C     C_R   0.934885 0.425659 0.553919 -0.006064
C15   C     C_3   0.937507 0.425902 0.642835 -0.210555
C16   C     C_R   0.501045 0.739241 0.502296 0.909127
C17   C     C_3   0.091265 0.433221 0.643259 0.200201
C18   C     C_R   0.482511 0.501942 0.347116 0.871238
C19   C     C_R   0.528399 0.530611 0.737600 -0.020290
C20   C     C_R   0.412688 0.528131 0.779731 -0.184387
C21   C     C_R   0.421398 0.551172 0.859960 -0.163555
C22   C     C_R   0.547103 0.578287 0.899690 0.326658
C23   C     C_R   0.538676 0.470120 0.131392 -0.174997
C24   C     C_R   0.661760 0.587236 0.856949 -0.192832
C25   C     C_3   0.618953 0.326775 0.246792 -0.432917
C26   C     C_3   0.770856 0.343817 0.239545 -0.265997
C27   C     C_3   0.851190 0.245418 0.290378 -0.874059
C28   C     C_3   0.848960 0.878552 0.465982 -0.315764
C29   C     C_3   0.997194 0.917946 0.480058 -0.342278
C30   C     C_3   0.050059 0.980230 0.404483 -0.714596
C31   C     C_3   0.874562 0.305614 0.677968 -0.274100
C32   C     C_3   0.880965 0.300282 0.769712 -0.344859
C33   C     C_3   0.804234 0.187477 0.801874 -0.854516
C34   C     C_R   0.542703 0.440963 0.213347 0.066716
C35   C     C_R   0.467083 0.573870 0.097503 0.294052
C36   C     C_R   0.472096 0.517482 0.260975 -0.035930
C37   C     C_R   0.397355 0.618181 0.226333 -0.186155
C38   C     C_R   0.393660 0.645304 0.144725 -0.188708
C39   C     C_R   0.608358 0.067441 0.479880 0.022873
Cl1   Cl    Cl    0.143892 0.660764 0.371679 -0.596847
Cl2   Cl    Cl    0.830900 0.637192 0.358508 -0.605182
Cl3   Cl    Cl    0.183908 0.305761 0.691293 -0.577859
Cl4   Cl    Cl    0.234904 0.121765 0.555233 -0.600539
H1    H     H_    0.297103 0.877299 0.539815 0.197389
H2    H     H_    0.345268 0.678442 0.262843 0.209320
H3    H     H_    0.330496 0.542334 0.891390 0.155228
H4    H     H_    0.335641 0.723259 0.118371 0.158637
H5    H     H_    0.315267 0.507228 0.751382 0.192700
H6    H     H_    0.838535 0.256923 0.354648 0.264492
H7    H     H_    0.817090 0.151058 0.274242 0.262915
H8    H     H_    0.959733 0.256180 0.280372 0.259122
H9    H     H_    0.793472 0.337991 0.176067 0.207757
H10   H     H_    0.804221 0.436342 0.259305 0.285070
H11   H     H_    0.599133 0.303876 0.310062 0.209079
H12   H     H_    0.762150 0.899232 0.582687 0.160242
H13   H     H_    0.582387 0.245617 0.213017 0.193807
H14   H     H_    0.028258 0.921853 0.352500 0.286108
H15   H     H_    0.002809 0.072032 0.391452 0.244081
H16   H     H_    0.160541 0.993487 0.412496 0.267545
H17   H     H_    0.010371 0.980987 0.530041 0.271304
H18   H     H_    0.059047 0.834646 0.497631 0.222509
H19   H     H_    0.843052 0.778480 0.481976 0.226810
H20   H     H_    0.812092 0.893843 0.401936 0.251899
H21   H     H_    0.696318 0.192365 0.779776 0.267486
H22   H     H_    0.847930 0.100865 0.782654 0.267225
H23   H     H_    0.758422 0.119571 0.573163 0.179659
H24   H     H_    0.811256 0.185190 0.868248 0.256929
H25   H     H_    0.986807 0.295421 0.795287 0.272020
H26   H     H_    0.836605 0.384773 0.790776 0.219329
H27   H     H_    0.767205 0.301646 0.654833 0.213071
H28   H     H_    0.924375 0.222763 0.657522 0.241262
H29   H     H_    0.816246 0.123463 0.469813 0.216226
H30   H     H_    0.893486 0.511843 0.662469 0.142304
H31   H     H_    0.131651 0.524872 0.661037 0.065959
H32   H     H_    0.589314 0.410560 0.093530 0.148156
H33   H     H_    0.758934 0.608121 0.886923 0.144083
H34   H     H_    0.741195 0.576861 0.743355 0.148658
N1    N     N_2   0.563427 0.578867 0.983672 -0.194749
N2    N     N_2   0.456738 0.599234 0.014496 -0.198712
N3    N     N_R   0.142860 0.499130 0.500540 -0.184272
N4    N     N_R   0.857210 0.499170 0.500530 -0.168340
O1    O     O_R   0.614690 0.316790 0.499990 -0.635249
O2    O     O_R   0.385350 0.316760 0.500000 -0.537203
O3    O     O_R   0.627460 0.498860 0.616130 -0.643819
O4    O     O_R   0.398120 0.498820 0.616130 -0.596349
O5    O     O_R   0.614650 0.683240 0.500000 -0.613965
O6    O     O_R   0.385310 0.683210 0.500010 -0.595664
O7    O     O_R   0.601880 0.501180 0.383870 -0.551479
O8    O     O_R   0.372540 0.501140 0.383870 -0.570025
Zn1   Zn    Zn3+2 0.653130 0.500020 0.499990 0.969799
Zn2   Zn    Zn3+2 0.346870 0.499980 0.500010 1.043403

loop_
_geom_bond_atom_site_label_1
_geom_bond_atom_site_label_2
_ccdc_geom_bond_type
O6    Zn2   S    
C19   C20   A    
C9    H29   S    
C13   Cl2   S    
O4    Zn2   S    
C33   H22   S    
C7    C8    S    
C3    Cl4   S    
C26   C27   S    
C29   C30   S    
C36   C37   A    
C5    C6    A    
C10   C17   S    
C30   H14   S    
C13   N4    A    
C9    C39   S    
C1    C2    S    
C17   Cl3   S    
C9    H23   S    
C4    C19   S    
C2    C39   A    
C31   H27   S    
C8    C9    S    
C16   O6    A    
C25   H13   S    
O8    Zn2   S    
C27   H7    S    
C25   C34   S    
C32   H25   S    
C31   H28   S    
C21   C22   A    
C12   H34   S    
C16   O5    A    
O3    Zn1   S    
C8    H12   S    
C27   H8    S    
C6    C7    A    
C29   H18   S    
C35   C38   A    
C25   H11   S    
C22   N1    S    
O5    Zn1   S    
C10   N3    A    
N1    N2    D    
C24   H33   S    
C4    O4    A    
C1    O1    A    
C18   O7    A    
C37   C38   A    
C26   H9    S    
C31   C32   S    
C4    O3    A    
C29   H17   S    
C23   C34   A    
C30   H16   S    
C38   H4    S    
C20   H5    S    
N4    Zn1   S    
C15   H30   S    
C5    H1    S    
O7    Zn1   S    
C23   C35   A    
C10   C14   A    
C17   H31   S    
C8    C28   S    
C22   C24   A    
C37   H2    S    
C26   H10   S    
C33   H24   S    
C21   H3    S    
C15   C17   S    
C28   C29   S    
C18   O8    A    
C23   H32   S    
C3    C5    A    
C15   C31   S    
C32   H26   S    
C1    O2    A    
O2    Zn2   S    
C12   C24   A    
O1    Zn1   S    
C32   C33   S    
N3    Zn2   S    
C2    C3    A    
C25   C26   S    
C11   C13   A    
C33   H21   S    
C30   H15   S    
C12   C19   A    
C35   N2    S    
C34   C36   A    
C11   Cl1   S    
C11   N3    A    
C6    C16   S    
C28   H20   S    
C20   C21   A    
C7    C39   A    
C14   C15   S    
C14   N4    A    
C18   C36   S    
C27   H6    S    
C28   H19   S    
