data_mof_unit_23723.cif
_audit_creation_date              2013-03-05T15:57:39-0500
_audit_creation_method            fapswitch 2.2
_symmetry_space_group_name_H-M    P1
_symmetry_Int_Tables_number       1
_space_group_crystal_system       triclinic
_cell_length_a                    19.285135
_cell_length_b                    17.793359
_cell_length_c                    12.662327
_cell_angle_alpha                 89.637261
_cell_angle_beta                  100.283465
_cell_angle_gamma                 90.002819
_cell_volume                      4275.1592622

loop_
_atom_site_label
_atom_site_type_symbol
_atom_site_description
_atom_site_fract_x
_atom_site_fract_y
_atom_site_fract_z
_atom_type_partial_charge
O1    O     O_R   0.448200 0.076800 0.373930 -0.625471
O2    O     O_R   0.448200 0.923200 0.373930 -0.612115
O3    O     O_R   0.948200 0.576800 0.373930 -0.627194
O4    O     O_R   0.948200 0.423200 0.373930 -0.617318
O5    O     O_R   0.414750 0.076790 0.542400 -0.583784
O6    O     O_R   0.414750 0.923210 0.542400 -0.599673
O7    O     O_R   0.914750 0.576790 0.542400 -0.600393
O8    O     O_R   0.914750 0.423210 0.542400 -0.605957
C1    C     C_R   0.411690 0.103334 0.443953 0.852607
C2    C     C_R   0.412900 0.895467 0.445379 0.850654
C3    C     C_R   0.911578 0.603187 0.443876 0.833768
C4    C     C_R   0.909947 0.398659 0.442650 0.843404
Zn1   Zn    Zn3+2 0.522330 0.000000 0.387520 0.933306
Zn2   Zn    Zn3+2 0.022330 0.500000 0.387520 0.925223
Zn3   Zn    Zn3+2 0.477660 0.000000 0.612480 0.932309
Zn4   Zn    Zn3+2 0.977660 0.500000 0.612480 0.932517
O9    O     O_R   0.585240 0.923200 0.457600 -0.609932
O10   O     O_R   0.585240 0.076800 0.457600 -0.602224
O11   O     O_R   0.085240 0.423200 0.457600 -0.608064
O12   O     O_R   0.085240 0.576800 0.457600 -0.610075
O13   O     O_R   0.551780 0.923190 0.626070 -0.635702
O14   O     O_R   0.551780 0.076810 0.626070 -0.644916
O15   O     O_R   0.051780 0.423190 0.626070 -0.623704
O16   O     O_R   0.051780 0.576810 0.626070 -0.641843
C5    C     C_R   0.590717 0.899409 0.557726 0.839988
C6    C     C_R   0.589356 0.101911 0.556325 0.841470
C7    C     C_R   0.090795 0.399482 0.557754 0.858645
C8    C     C_R   0.090893 0.600372 0.557615 0.846294
C9    C     C_R   0.634359 0.301116 0.618375 -0.203402
C10   C     C_R   0.753918 0.821481 0.725726 -0.202613
C11   C     C_R   0.248274 0.685005 0.733090 -0.205251
C12   C     C_R   0.254221 0.321966 0.726021 -0.201772
H1    H     H_    0.560135 0.224973 0.667922 0.144519
H2    H     H_    0.667588 0.886708 0.761319 0.154343
H3    H     H_    0.159676 0.621821 0.765408 0.150759
H4    H     H_    0.167668 0.386849 0.761491 0.154443
H5    H     H_    0.375906 0.748377 0.762915 0.153089
H6    H     H_    0.383215 0.263115 0.748152 0.147336
H7    H     H_    0.687212 0.431221 0.564453 0.143758
H8    H     H_    0.883050 0.763211 0.747331 0.147873
H9    H     H_    0.612015 0.349404 0.651955 0.136255
H10   H     H_    0.783577 0.826189 0.806584 0.135762
H11   H     H_    0.273699 0.685246 0.816639 0.132932
H12   H     H_    0.283721 0.326524 0.807000 0.135812
C13   C     C_R   0.632194 0.168194 0.582297 -0.042376
C14   C     C_R   0.649296 0.849595 0.596120 -0.047022
C15   C     C_R   0.149742 0.649594 0.596386 -0.047710
C16   C     C_R   0.149648 0.349986 0.596178 -0.047327
C17   C     C_R   0.341507 0.817268 0.305745 -0.189427
C18   C     C_R   0.329827 0.168698 0.300913 -0.190268
C19   C     C_R   0.889466 0.275707 0.354873 -0.196137
C20   C     C_R   0.828821 0.667211 0.300787 -0.197077
C21   C     C_R   0.288557 0.765075 0.274962 -0.151604
C22   C     C_R   0.272530 0.215901 0.269528 -0.146344
C23   C     C_R   0.854797 0.207027 0.345859 -0.149694
C24   C     C_R   0.771078 0.713806 0.269428 -0.147166
C25   C     C_R   0.257619 0.729335 0.352447 -0.191441
C26   C     C_R   0.244135 0.254999 0.346502 -0.192636
C27   C     C_R   0.797260 0.195739 0.396710 -0.186404
C28   C     C_R   0.742768 0.753092 0.346332 -0.193188
C29   C     C_R   0.282315 0.742666 0.463000 0.087262
C30   C     C_R   0.275300 0.250155 0.456625 0.083847
C31   C     C_R   0.770969 0.255203 0.452612 0.089828
C32   C     C_R   0.774392 0.749012 0.456349 0.081188
C33   C     C_R   0.343698 0.785713 0.493584 0.080655
C34   C     C_R   0.339705 0.211617 0.485418 0.089622
C35   C     C_R   0.800213 0.327321 0.447012 0.097163
C36   C     C_R   0.839123 0.711049 0.484945 0.086492
C37   C     C_R   0.716976 0.246053 0.514051 0.084210
C38   C     C_R   0.744103 0.781536 0.538944 0.077068
C39   C     C_R   0.248086 0.714363 0.544192 0.077637
C40   C     C_R   0.244823 0.282449 0.539158 0.078424
C41   C     C_R   0.688040 0.309900 0.557727 0.179380
C42   C     C_R   0.783242 0.786459 0.644893 0.173373
C43   C     C_R   0.281669 0.716287 0.653327 0.174479
C44   C     C_R   0.283720 0.287069 0.645268 0.175307
C45   C     C_R   0.348239 0.748475 0.680496 -0.263514
C46   C     C_R   0.351801 0.258053 0.668524 -0.258525
C47   C     C_R   0.711198 0.381715 0.536756 -0.254419
C48   C     C_R   0.851467 0.757823 0.667875 -0.247625
C49   C     C_R   0.378985 0.782984 0.601610 -0.204057
C50   C     C_R   0.379521 0.220647 0.589666 -0.193890
C51   C     C_R   0.765933 0.390258 0.480061 -0.225994
C52   C     C_R   0.879230 0.720629 0.588899 -0.181329
C53   C     C_R   0.690557 0.175302 0.532963 -0.250122
C54   C     C_R   0.675337 0.808497 0.519129 -0.256003
C55   C     C_R   0.180103 0.686180 0.519315 -0.262641
C56   C     C_R   0.176013 0.309252 0.519134 -0.255095
C57   C     C_R   0.605825 0.230273 0.629641 -0.199690
C58   C     C_R   0.687403 0.854425 0.700839 -0.206283
C59   C     C_R   0.182838 0.650264 0.704369 -0.205068
C60   C     C_R   0.187651 0.354794 0.700980 -0.201511
C61   C     C_R   0.367444 0.830454 0.414805 -0.116877
C62   C     C_R   0.362118 0.164257 0.409219 -0.110651
C63   C     C_R   0.863769 0.335106 0.409075 -0.105176
C64   C     C_R   0.861589 0.663618 0.408907 -0.109375
H13   H     H_    0.711077 0.124598 0.503853 0.133454
H14   H     H_    0.641529 0.801148 0.442270 0.149024
H15   H     H_    0.150077 0.690427 0.438923 0.153748
H16   H     H_    0.142380 0.301877 0.442112 0.147133
H17   H     H_    0.360957 0.848105 0.243908 0.147834
H18   H     H_    0.347394 0.134009 0.240880 0.151880
H19   H     H_    0.938012 0.281387 0.323685 0.153421
H20   H     H_    0.846367 0.632245 0.240980 0.152695
H21   H     H_    0.773953 0.140561 0.388979 0.126158
H22   H     H_    0.697359 0.787641 0.317075 0.135902
H23   H     H_    0.216048 0.689865 0.324025 0.132957
H24   H     H_    0.199074 0.290074 0.317306 0.136369
H25   H     H_    0.269460 0.754546 0.190653 0.138648
H26   H     H_    0.248158 0.219797 0.185745 0.142869
H27   H     H_    0.874606 0.161215 0.303783 0.140676
H28   H     H_    0.746309 0.717071 0.185769 0.142713
H29   H     H_    0.431244 0.805997 0.625959 0.179670
H30   H     H_    0.432844 0.199736 0.610842 0.162527
H31   H     H_    0.781364 0.446390 0.460623 0.137566
H32   H     H_    0.932827 0.700293 0.609760 0.170420
C65   C     C_R   0.645881 0.001499 0.138090 -0.315627
C66   C     C_R   0.145489 0.500446 0.137369 -0.320007
H33   H     H_    0.659466 0.011208 0.309177 0.140860
H34   H     H_    0.159360 0.513867 0.307914 0.149712
H35   H     H_    0.674421 0.006444 0.940705 0.152456
H36   H     H_    0.174262 0.501777 0.940365 0.149204
H37   H     H_    0.701547 0.008529 0.136796 0.150047
H38   H     H_    0.201071 0.507734 0.135614 0.152004
N1    N     N_R   0.552340 0.000000 0.237260 -0.101598
N2    N     N_R   0.052340 0.500000 0.237260 -0.102875
C67   C     C_R   0.378924 0.983732 0.759982 0.289884
C68   C     C_R   0.877959 0.495989 0.765481 0.282560
C69   C     C_R   0.359102 0.948264 0.847941 -0.309391
C70   C     C_R   0.856563 0.459195 0.851445 -0.273008
C71   C     C_R   0.409455 0.937184 0.939435 -0.226153
C72   C     C_R   0.907243 0.439254 0.938961 -0.228316
C73   C     C_R   0.476774 0.970319 0.948630 0.029877
C74   C     C_R   0.976305 0.467673 0.948407 0.027130
C75   C     C_R   0.497790 0.992138 0.852563 0.191586
C76   C     C_R   0.997850 0.488157 0.851846 0.207999
C77   C     C_R   0.524652 0.980301 0.046890 -0.011559
C78   C     C_R   0.024233 0.477305 0.047072 -0.009597
C79   C     C_R   0.597020 0.992328 0.043358 0.152045
C80   C     C_R   0.096646 0.489237 0.043101 0.156569
C81   C     C_R   0.619197 0.998632 0.944722 -0.277392
C82   C     C_R   0.119032 0.493909 0.944332 -0.287536
C83   C     C_R   0.569719 0.001253 0.850535 -0.210800
C84   C     C_R   0.069801 0.495968 0.849863 -0.220090
C85   C     C_R   0.502878 0.988519 0.147151 0.282531
C86   C     C_R   0.002808 0.485703 0.148062 0.279086
C87   C     C_R   0.622249 0.004271 0.235138 -0.025656
C88   C     C_R   0.122059 0.505252 0.234388 -0.036687
N3    N     N_R   0.448170 0.000000 0.762060 -0.132453
N4    N     N_R   0.948170 0.500000 0.762060 -0.133314
H39   H     H_    0.395321 0.900960 0.000257 0.163461
H40   H     H_    0.890911 0.403602 0.998681 0.170256
H41   H     H_    0.306107 0.926919 0.843933 0.153041
H42   H     H_    0.801668 0.445837 0.850518 0.149305
H43   H     H_    0.589219 0.009342 0.777571 0.208997
H44   H     H_    0.089170 0.505118 0.776923 0.203028
C89   C     C_3   0.425931 0.992821 0.154443 -0.876023
H45   H     H_    0.415523 0.018500 0.226031 0.285656
H46   H     H_    0.396259 0.028226 0.089201 0.219221
H47   H     H_    0.403941 0.936110 0.156995 0.206755
C90   C     C_3   0.926174 0.485404 0.158493 -0.874344
H48   H     H_    0.906980 0.427022 0.163655 0.224149
H49   H     H_    0.916145 0.512010 0.229938 0.287079
H50   H     H_    0.893789 0.519634 0.094590 0.214803
N5    N     N_3   0.328456 0.995354 0.663964 -0.384690
H51   H     H_    0.289491 0.031432 0.682075 0.157779
H52   H     H_    0.304479 0.943841 0.640938 0.182340
N6    N     N_3   0.827209 0.528061 0.681146 -0.421620
H53   H     H_    0.776859 0.526152 0.700969 0.146934
H54   H     H_    0.825693 0.494247 0.614718 0.218793

loop_
_geom_bond_atom_site_label_1
_geom_bond_atom_site_label_2
_geom_bond_distance
_ccdc_geom_bond_type
C7    C16   1.448474 S    
C3    C64   1.457159 S    
C47   C51   1.386313 A    
C8    C15   1.450009 S    
C26   C30   1.418568 A    
C89   H45   1.068157 S    
C23   C27   1.392712 A    
C71   H39   1.073081 S    
O10   C6    1.319208 A    
C73   C77   1.422936 A    
C10   C58   1.393486 A    
C9    C57   1.392049 A    
C90   H48   1.108217 S    
N2    C86   1.367948 A    
C14   C54   1.386084 A    
C37   C53   1.393362 A    
H3    C59   1.082268 S    
O7    C3    1.321381 A    
C77   C79   1.420451 A    
O5    C1    1.321652 A    
N5    H51   1.045376 S    
C11   H11   1.083738 S    
Zn1   O10   1.938445 S    
C32   C36   1.407605 A    
C77   C85   1.414959 A    
C67   N5    1.429186 S    
C44   C46   1.391836 A    
C81   C83   1.388526 A    
C17   H17   1.074361 S    
C10   C42   1.403766 A    
C51   H31   1.081532 S    
C9    C41   1.402926 A    
H33   C87   1.081902 S    
C22   H26   1.082709 S    
Zn2   O12   1.938445 S    
C65   C87   1.385980 A    
O8    Zn4   1.938321 S    
O2    Zn1   1.963606 S    
C6    C13   1.445512 S    
C40   C56   1.389635 A    
O6    Zn3   1.938321 S    
N6    H53   1.045908 S    
C11   C43   1.403472 A    
Zn3   O14   1.963590 S    
C31   C37   1.415468 A    
C19   C63   1.401544 A    
C38   C42   1.420258 A    
C16   C56   1.386236 A    
C4    C63   1.457196 S    
C37   C41   1.423404 A    
C32   C38   1.412694 A    
O4    C4    1.310117 A    
O11   C7    1.320080 A    
C26   H24   1.078783 S    
C53   H13   1.078303 S    
C40   C44   1.419954 A    
C34   C62   1.409655 A    
Zn1   N1    2.085221 S    
H4    C60   1.082530 S    
N6    H54   1.033424 S    
C66   H38   1.083841 S    
Zn4   O16   1.963590 S    
C42   C48   1.391730 A    
C35   C63   1.400570 A    
C65   C79   1.397257 A    
C68   N4    1.364274 A    
C66   C80   1.397639 A    
C90   H49   1.071380 S    
C55   H15   1.079723 S    
C41   C47   1.393126 A    
C86   C90   1.507097 S    
C31   C35   1.408123 A    
C27   C31   1.419620 A    
C30   C34   1.407501 A    
C48   C52   1.387185 A    
C36   C52   1.413953 A    
H35   C81   1.084151 S    
O1    C1    1.316450 A    
C76   N4    1.364906 A    
C50   H30   1.080825 S    
N1    C87   1.355380 A    
C21   C25   1.387108 A    
C18   C62   1.403042 A    
C74   C76   1.405752 A    
O12   C8    1.322516 A    
C2    C61   1.463196 S    
C75   N3    1.361983 A    
H5    C45   1.083967 S    
C24   C28   1.390487 A    
H7    C47   1.083879 S    
C84   H44   1.067851 S    
C70   C72   1.384747 A    
C67   C69   1.388515 A    
C12   C44   1.403749 A    
H1    C57   1.082660 S    
C34   C50   1.413745 A    
C85   C89   1.505146 S    
C46   C50   1.387386 A    
C83   H43   1.066806 S    
H2    C58   1.082841 S    
C45   C49   1.389255 A    
O8    C4    1.326633 A    
H8    C48   1.083894 S    
C12   H12   1.083708 S    
C30   C40   1.412353 A    
C70   H42   1.083028 S    
C27   H21   1.077499 S    
C35   C51   1.403933 A    
C25   C29   1.417337 A    
C43   C45   1.392585 A    
C56   H16   1.079275 S    
O3    Zn2   1.962187 S    
C78   C80   1.422226 A    
C39   C55   1.387104 A    
C72   C74   1.409863 A    
O7    Zn4   1.930468 S    
C25   H23   1.079629 S    
C18   H18   1.082357 S    
Zn4   O15   1.962172 S    
O15   C7    1.315059 A    
C16   C60   1.399878 A    
C72   H40   1.073517 S    
C82   C84   1.388388 A    
C52   H32   1.081882 S    
O1    Zn1   1.962187 S    
H36   C82   1.084240 S    
C38   C54   1.389803 A    
Zn3   N3    2.072531 S    
C90   H50   1.108646 S    
C28   H22   1.078589 S    
C68   N6    1.429365 S    
C22   C26   1.390324 A    
C21   H25   1.082844 S    
O13   C5    1.314713 A    
C20   H20   1.082842 S    
N2    C88   1.354710 A    
C13   C57   1.398350 A    
C69   H41   1.083067 S    
C23   H27   1.082808 S    
C15   C59   1.402035 A    
Zn2   O11   1.930593 S    
C76   C84   1.399196 A    
O16   C8    1.313357 A    
C80   C82   1.396010 A    
C71   C73   1.411900 A    
C68   C70   1.391059 A    
C74   C78   1.426510 A    
C89   H46   1.109697 S    
H34   C88   1.081861 S    
C14   C58   1.399709 A    
C89   H47   1.097079 S    
H6    C46   1.083893 S    
C36   C64   1.409343 A    
C11   C59   1.394916 A    
Zn2   N2    2.085221 S    
Zn1   O9    1.930593 S    
C13   C53   1.386739 A    
C28   C32   1.418887 A    
O9    C5    1.320284 A    
C66   C88   1.385716 A    
C65   H37   1.083801 S    
C18   C22   1.386877 A    
N1    C85   1.366683 A    
C67   N3    1.362098 A    
C39   C43   1.418217 A    
C79   C81   1.394399 A    
C29   C39   1.407852 A    
C12   C60   1.393666 A    
C9    H9    1.083875 S    
C78   C86   1.421044 A    
C17   C21   1.385475 A    
C1    C62   1.458235 S    
C75   C83   1.401372 A    
C33   C61   1.411220 A    
C20   C64   1.402770 A    
C19   C23   1.388477 A    
O4    Zn2   1.963606 S    
C54   H14   1.079065 S    
O5    Zn3   1.930468 S    
O3    C3    1.316175 A    
O6    C2    1.321455 A    
C29   C33   1.406392 A    
Zn3   O13   1.962172 S    
N5    H52   1.046032 S    
O14   C6    1.314523 A    
C49   H29   1.081227 S    
C73   C75   1.401675 A    
C33   C49   1.415397 A    
C10   H10   1.083718 S    
Zn4   N4    2.072531 S    
C17   C61   1.403471 A    
C19   H19   1.083599 S    
C5    C14   1.448035 S    
C24   H28   1.082708 S    
C20   C24   1.386784 A    
C15   C55   1.383802 A    
C69   C71   1.385446 A    
O2    C2    1.318953 A    
