data_mof_unit_29695.cif
_audit_creation_date              2012-12-10T18:52:55-0500
_audit_creation_method            fapswitch 2.2
_symmetry_space_group_name_H-M    P1
_symmetry_Int_Tables_number       1
_space_group_crystal_system       triclinic
_cell_length_a                    9.808265
_cell_length_b                    10.699555
_cell_length_c                    16.739943
_cell_angle_alpha                 90.306877
_cell_angle_beta                  84.926367
_cell_angle_gamma                 90.024563
_cell_volume                      1749.8494545

loop_
_atom_site_label
_atom_site_type_symbol
_atom_type_description
_atom_site_fract_x
_atom_site_fract_y
_atom_site_fract_z
_atom_type_partial_charge
C1    C     C_R   0.500075 0.740196 0.499637 0.863127
C2    C     C_R   0.499951 0.259810 0.499390 0.861541
C3    C     C_R   0.621327 0.935841 0.475173 -0.211810
C4    C     C_R   0.377957 0.064136 0.521027 -0.208105
C5    C     C_R   0.621045 0.063909 0.474677 -0.211959
C6    C     C_R   0.378005 0.936145 0.521061 -0.209030
C7    C     C_R   0.499673 0.127451 0.498279 -0.008394
C8    C     C_R   0.499891 0.872559 0.498644 -0.007203
C9    C     C_R   0.934601 0.414041 0.455739 -0.073451
C10   C     C_R   0.065456 0.586448 0.543852 -0.088600
C11   C     C_R   0.078708 0.414050 0.455781 -0.063660
C12   C     C_R   0.921355 0.586440 0.543813 -0.065774
C13   C     C_R   0.480969 0.491109 0.653006 0.860299
C14   C     C_R   0.519009 0.502029 0.346507 0.857479
C15   C     C_R   0.467319 0.449446 0.736193 -0.079011
C16   C     C_R   0.530187 0.490974 0.259447 -0.087470
C17   C     C_R   0.566114 0.369867 0.766448 -0.029847
C18   C     C_R   0.419628 0.523923 0.214750 -0.015970
C19   C     C_R   0.543856 0.325653 0.844387 -0.202612
C20   C     C_R   0.422633 0.484914 0.135147 -0.198774
C21   C     C_R   0.428320 0.363336 0.893519 0.187979
C22   C     C_R   0.533875 0.415725 0.099917 0.189124
C23   C     C_R   0.326810 0.434827 0.862163 -0.170745
C24   C     C_R   0.647406 0.393288 0.142331 -0.180475
C25   C     C_R   0.345962 0.477328 0.783757 -0.223840
C26   C     C_R   0.645531 0.430253 0.221843 -0.224201
C27   C     C_2   0.425195 0.351152 0.980362 -0.235775
C28   C     C_2   0.538884 0.376830 0.016214 -0.225368
H1    H     H_    0.731469 0.405347 0.255001 0.150896
H2    H     H_    0.267469 0.535000 0.760939 0.147052
H3    H     H_    0.637902 0.382850 0.981805 0.148585
H4    H     H_    0.326229 0.346872 0.014951 0.145233
H5    H     H_    0.236846 0.464255 0.899791 0.124719
H6    H     H_    0.735796 0.343830 0.114549 0.127237
H7    H     H_    0.339173 0.511162 0.100396 0.129891
H8    H     H_    0.620348 0.266512 0.868083 0.134590
H9    H     H_    0.715631 0.886676 0.456801 0.147687
H10   H     H_    0.283684 0.113197 0.539627 0.147066
H11   H     H_    0.715083 0.112927 0.455850 0.145939
H12   H     H_    0.283687 0.887302 0.539534 0.147306
H13   H     H_    0.885095 0.345408 0.420440 0.113336
H14   H     H_    0.114967 0.655193 0.579061 0.117716
H15   H     H_    0.138843 0.345511 0.420428 0.124088
H16   H     H_    0.861237 0.655113 0.579056 0.123745
N1    N     N_R   0.142790 0.500030 0.500020 -0.072366
N2    N     N_R   0.857210 0.499970 0.499980 -0.069728
O1    O     O_R   0.385380 0.683250 0.500010 -0.622283
O2    O     O_R   0.614620 0.316750 0.499990 -0.619626
O3    O     O_R   0.614710 0.683220 0.500000 -0.629873
O4    O     O_R   0.385290 0.316780 0.500000 -0.631872
O5    O     O_R   0.371780 0.500040 0.615800 -0.622421
O6    O     O_R   0.628220 0.499960 0.384200 -0.626095
O7    O     O_R   0.601110 0.500010 0.615800 -0.601271
O8    O     O_R   0.398890 0.499990 0.384200 -0.595637
Zn1   Zn    Zn3+2 0.346870 0.500020 0.500000 0.945883
Zn2   Zn    Zn3+2 0.653130 0.499980 0.500000 0.945617
C29   C     C_R   0.693916 0.330622 0.719685 0.137893
C30   C     C_R   0.815614 0.397270 0.726850 -0.144534
C31   C     C_R   0.938055 0.357074 0.685531 -0.127523
C32   C     C_R   0.939644 0.250184 0.637103 -0.109799
C33   C     C_R   0.818915 0.183027 0.630206 -0.133624
C34   C     C_R   0.696206 0.222848 0.671485 -0.110472
H17   H     H_    0.815534 0.479844 0.764560 0.117969
H18   H     H_    0.031718 0.408710 0.691080 0.133624
H19   H     H_    0.034459 0.219274 0.605081 0.119474
H20   H     H_    0.820741 0.099636 0.593308 0.125406
H21   H     H_    0.603431 0.169592 0.666332 0.117525
C35   C     C_R   0.299795 0.597143 0.249692 0.137692
C36   C     C_R   0.318617 0.712381 0.288066 -0.106973
C37   C     C_R   0.206351 0.777008 0.325403 -0.122759
C38   C     C_R   0.074488 0.727959 0.324060 -0.108303
C39   C     C_R   0.054543 0.614563 0.284958 -0.130089
C40   C     C_R   0.166554 0.549342 0.247785 -0.165810
H22   H     H_    0.420363 0.750919 0.290227 0.102003
H23   H     H_    0.221726 0.864770 0.355796 0.127496
H24   H     H_    0.987779 0.777709 0.353403 0.118081
H25   H     H_    0.952382 0.576519 0.284179 0.133154
H26   H     H_    0.149777 0.460339 0.219139 0.116675

loop_
_geom_bond_atom_site_label_1
_geom_bond_atom_site_label_2
_ccdc_geom_bond_type
C10   H14   S    
C1    C8    S    
C2    C7    S    
C29   C34   A    
C31   H18   S    
C34   H21   S    
C22   C24   A    
C19   C21   A    
C24   C26   A    
C19   H8    S    
C38   H24   S    
C15   C25   A    
C18   C35   S    
C30   H17   S    
C15   C17   A    
C2    O4    A    
C13   O5    A    
C20   H7    S    
C33   H20   S    
C14   O6    A    
C35   C36   A    
C23   H5    S    
C40   H26   S    
C11   H15   S    
C37   C38   A    
C18   C20   A    
C21   C27   S    
C9    N2    A    
C22   C28   S    
C36   C37   A    
C4    C7    A    
C13   O7    A    
C21   C23   A    
C16   C26   A    
C6    H12   S    
C12   N2    A    
C3    C8    A    
C5    C7    A    
C1    O1    A    
C6    C8    A    
C2    O2    A    
C30   C31   A    
C24   H6    S    
C32   C33   A    
C39   H25   S    
C10   N1    A    
C36   H22   S    
C9    C11   A    
C3    H9    S    
C10   C12   A    
C4    C6    A    
C14   O8    A    
C4    H10   S    
C32   H19   S    
C5    H11   S    
C14   C16   S    
C11   N1    A    
C37   H23   S    
O1    Zn1   S    
O7    Zn2   S    
C25   H2    S    
O2    Zn2   S    
O8    Zn1   S    
C27   H4    S    
C28   H3    S    
C20   C22   A    
C39   C40   A    
C3    C5    A    
O3    Zn2   S    
C9    H13   S    
O4    Zn1   S    
C13   C15   S    
C35   C40   A    
C38   C39   A    
C12   H16   S    
C29   C30   A    
C17   C19   A    
O5    Zn1   S    
C23   C25   A    
C33   C34   A    
C31   C32   A    
N1    Zn1   S    
C26   H1    S    
C16   C18   A    
N2    Zn2   S    
C27   C28   D    
C1    O3    A    
O6    Zn2   S    
C17   C29   S    
