data_mof_unit_23282.cif
_audit_creation_date              2012-12-10T17:50:30-0500
_audit_creation_method            fapswitch 2.2
_symmetry_space_group_name_H-M    P1
_symmetry_Int_Tables_number       1
_space_group_crystal_system       triclinic
_cell_length_a                    15.719608
_cell_length_b                    10.723941
_cell_length_c                    9.892283
_cell_angle_alpha                 89.328721
_cell_angle_beta                  89.99014
_cell_angle_gamma                 91.736109
_cell_volume                      1666.72285285

loop_
_atom_site_label
_atom_site_type_symbol
_atom_type_description
_atom_site_fract_x
_atom_site_fract_y
_atom_site_fract_z
_atom_type_partial_charge
C1    C     C_R   0.505282 0.259890 0.501863 0.861842
C2    C     C_R   0.489693 0.045043 0.878277 -0.143904
C3    C     C_R   0.444678 0.932112 0.868342 -0.158531
C4    C     C_R   0.337944 0.499462 0.500010 0.882969
C5    C     C_R   0.434969 0.876357 0.742589 -0.158876
C6    C     C_R   0.470176 0.934126 0.624734 0.098169
C7    C     C_R   0.499270 0.058233 0.631383 0.097024
C8    C     C_R   0.508665 0.125897 0.507312 -0.120389
C9    C     C_R   0.507389 0.064225 0.383578 -0.221777
C10   C     C_R   0.496542 0.937303 0.380932 -0.217372
C11   C     C_R   0.480537 0.871375 0.501058 -0.130361
C12   C     C_3   0.082745 0.497267 0.500199 0.143529
C13   C     C_R   0.388413 0.335886 0.142098 -0.160318
C14   C     C_R   0.333642 0.255040 0.072629 -0.212470
C15   C     C_R   0.333545 0.255395 0.932756 -0.182551
C16   C     C_R   0.491357 0.738887 0.499815 0.884897
C17   C     C_R   0.388427 0.336304 0.861569 -0.151043
C18   C     C_R   0.445092 0.419123 0.928579 0.147956
C19   C     C_R   0.445106 0.419059 0.073299 0.165895
C20   C     C_R   0.552206 0.577863 0.070550 -0.123516
C21   C     C_R   0.552179 0.577833 0.927302 -0.115068
C22   C     C_R   0.662069 0.500303 0.500007 0.916240
C23   C     C_3   0.975230 0.612752 0.505378 0.544207
C24   C     C_3   0.970561 0.432078 0.608753 -0.216501
C25   C     C_3   0.025943 0.378589 0.494794 -0.126153
C26   C     C_1   0.248970 0.498430 0.500089 -0.193189
C27   C     C_1   0.751041 0.499197 0.500011 -0.178934
C28   C     C_3   0.029315 0.550596 0.615057 -0.268637
C29   C     C_3   0.009142 0.822876 0.515117 0.096173
C30   C     C_3   0.972623 0.952485 0.520432 -0.814808
C31   C     C_3   0.917270 0.496586 0.500083 0.141746
C32   C     C_3   0.029606 0.561676 0.390628 -0.267556
C33   C     C_3   0.970857 0.443076 0.386126 -0.215881
C34   C     C_1   0.173628 0.497630 0.500162 -0.061516
C35   C     C_1   0.826357 0.497973 0.500046 -0.019473
C36   C     C_R   0.517184 0.107869 0.761212 -0.163219
H1    H     H_    0.049327 0.282063 0.490435 0.132894
H2    H     H_    0.594719 0.641468 0.872507 0.158389
H3    H     H_    0.944221 0.378643 0.696813 0.150622
H4    H     H_    0.944757 0.398585 0.293588 0.150880
H5    H     H_    0.055747 0.614815 0.302223 0.138173
H6    H     H_    0.055228 0.594763 0.707899 0.138034
H7    H     H_    0.515882 0.113710 0.288129 0.172046
H8    H     H_    0.554760 0.192580 0.775353 0.170959
H9    H     H_    0.501820 0.085417 0.976492 0.143261
H10   H     H_    0.049745 0.818236 0.423200 0.132837
H11   H     H_    0.048983 0.809451 0.606868 0.133164
H12   H     H_    0.419806 0.885688 0.958396 0.138283
H13   H     H_    0.932455 0.960908 0.612065 0.258254
H14   H     H_    0.025178 0.023956 0.524012 0.193450
H15   H     H_    0.933303 0.969697 0.429206 0.257769
H16   H     H_    0.399574 0.788381 0.738573 0.159325
H17   H     H_    0.502255 0.890896 0.284756 0.169776
H18   H     H_    0.594794 0.641470 0.123647 0.150444
H19   H     H_    0.384086 0.330459 0.249279 0.207182
H20   H     H_    0.290918 0.191846 0.127855 0.149513
H21   H     H_    0.290983 0.192181 0.878873 0.151112
H22   H     H_    0.384964 0.330416 0.754453 0.208091
N1    N     N_R   0.499210 0.498800 0.142780 -0.121794
N2    N     N_R   0.499180 0.498720 0.857170 -0.127227
O1    O     O_R   0.500000 0.316780 0.614690 -0.654860
O2    O     O_R   0.499990 0.316750 0.385360 -0.640309
O3    O     O_R   0.376780 0.500000 0.614650 -0.638807
O4    O     O_R   0.376770 0.499980 0.385310 -0.630738
O5    O     O_R   0.500010 0.683250 0.614640 -0.622416
O6    O     O_R   0.500000 0.683220 0.385310 -0.619874
O7    O     O_R   0.623230 0.500020 0.614690 -0.611130
O8    O     O_R   0.623220 0.500000 0.385350 -0.608498
O9    O     O_3   0.941727 0.733188 0.510759 -0.609559
Zn1   Zn    Zn3+2 0.500010 0.500020 0.653130 0.926364
Zn2   Zn    Zn3+2 0.499990 0.499980 0.346870 0.935786

loop_
_geom_bond_atom_site_label_1
_geom_bond_atom_site_label_2
_ccdc_geom_bond_type
O1    Zn1   S    
C14   H20   S    
C30   H15   S    
C31   C33   S    
C5    H16   S    
C6    C7    A    
C13   C14   A    
C1    C8    S    
C9    C10   A    
C4    O4    A    
C4    C26   S    
O6    Zn2   S    
O3    Zn1   S    
N2    Zn1   S    
C29   H10   S    
C32   H5    S    
O7    Zn1   S    
C27   C35   T    
C32   C33   S    
C17   C18   A    
C30   H14   S    
C24   C31   S    
C7    C8    A    
C23   C28   S    
C23   C32   S    
C20   N1    A    
C15   H21   S    
C4    O3    A    
C22   O8    A    
C21   N2    A    
C29   C30   S    
C12   C28   S    
O8    Zn2   S    
C18   N2    A    
C30   H13   S    
C29   H11   S    
O2    Zn2   S    
C2    C3    A    
C29   O9    S    
C22   C27   S    
C2    H9    S    
C24   C25   S    
C5    C6    A    
C17   H22   S    
N1    Zn2   S    
C31   C35   S    
C22   O7    A    
C36   H8    S    
C33   H4    S    
C9    H7    S    
C10   C11   A    
C13   C19   A    
C12   C25   S    
C12   C34   S    
O5    Zn1   S    
C3    C5    A    
C3    H12   S    
C24   H3    S    
C16   O6    A    
C20   C21   A    
C1    O2    A    
C20   H18   S    
C18   C19   A    
C7    C36   A    
O4    Zn2   S    
C2    C36   A    
C6    C11   A    
C15   C17   A    
C10   H17   S    
C23   O9    S    
C14   C15   A    
C16   O5    A    
C28   H6    S    
C19   N1    A    
C25   H1    S    
C26   C34   T    
C11   C16   S    
C12   C32   S    
C21   H2    S    
C24   C28   S    
C25   C33   S    
C8    C9    A    
C13   H19   S    
C23   C31   S    
C1    O1    A    
