data_mof_unit_36108.cif
_audit_creation_date              2012-10-26T21:12:54-0400
_audit_creation_method            fapswitch 2.2
_symmetry_space_group_name_H-M    P1
_symmetry_Int_Tables_number       1
_space_group_crystal_system       triclinic
_cell_length_a                    10.892186
_cell_length_b                    15.824658
_cell_length_c                    17.131714
_cell_angle_alpha                 97.676247
_cell_angle_beta                  91.313934
_cell_angle_gamma                 92.031779
_cell_volume                      2923.46680736

loop_
_atom_site_label
_atom_site_type_symbol
_atom_type_description
_atom_site_fract_x
_atom_site_fract_y
_atom_site_fract_z
_atom_type_partial_charge
C1    C     C_R   0.499526 0.488563 0.348363 0.559448
C2    C     C_R   0.525493 0.446932 0.774349 -0.205241
C3    C     C_R   0.470763 0.548208 0.144025 -0.108061
C4    C     C_R   0.522716 0.449892 0.855562 -0.105620
C5    C     C_R   0.500722 0.472181 0.096961 0.183337
C6    C     C_R   0.491046 0.525192 0.902826 0.183903
C7    C     C_R   0.527866 0.400675 0.132847 -0.097078
C8    C     C_R   0.464290 0.597078 0.867489 -0.100523
C9    C     C_R   0.524413 0.403213 0.215067 0.245516
C10   C     C_R   0.470433 0.596142 0.785184 0.252827
C11   C     C_R   0.444157 0.752537 0.460692 -0.017978
C12   C     C_R   0.499844 0.511439 0.651684 0.576328
C13   C     C_R   0.561422 0.251578 0.539861 -0.008729
C14   C     C_R   0.451383 0.841939 0.464216 -0.180260
C15   C     C_R   0.560902 0.162316 0.540083 -0.185693
C16   C     C_R   0.262121 0.501051 0.501451 0.528733
C17   C     C_R   0.737782 0.498998 0.498030 0.550196
C18   C     C_R   0.534328 0.891517 0.518140 0.195039
C19   C     C_R   0.480708 0.108326 0.488412 0.178172
C20   C     C_R   0.610316 0.848139 0.565603 0.253109
C21   C     C_R   0.399740 0.146252 0.440248 0.289956
C22   C     C_R   0.597195 0.758336 0.561850 0.255175
C23   C     C_R   0.871394 0.497453 0.496486 -0.007255
C24   C     C_R   0.403219 0.235512 0.440910 0.245399
C25   C     C_R   0.231876 0.768979 0.637820 -0.105396
C26   C     C_R   0.771772 0.236412 0.351156 -0.102024
C27   C     C_R   0.186210 0.685763 0.613443 -0.084959
C28   C     C_R   0.818391 0.318543 0.378934 -0.093347
C29   C     C_R   0.124314 0.665365 0.540164 0.049016
C30   C     C_R   0.875146 0.336005 0.454079 0.059876
C31   C     C_R   0.108945 0.729612 0.491252 0.289917
C32   C     C_R   0.886771 0.269860 0.501176 0.296055
C33   C     C_R   0.153722 0.813151 0.516941 -0.110894
C34   C     C_R   0.128392 0.502933 0.502151 -0.013724
C35   C     C_R   0.837801 0.187587 0.472707 -0.114572
C36   C     C_R   0.215628 0.832546 0.589750 -0.166730
C37   C     C_R   0.781317 0.171122 0.397949 -0.158161
C38   C     C_R   0.937193 0.575294 0.514944 -0.107396
C39   C     C_R   0.062511 0.425249 0.482846 -0.122227
C40   C     C_3   0.480282 0.261973 0.224028 -0.107923
C41   C     C_3   0.482494 0.744159 0.791049 -0.139484
C42   C     C_3   0.800869 0.912134 0.580161 -0.126060
C43   C     C_3   0.217095 0.070435 0.424506 -0.121648
C44   C     C_3   0.123884 0.692790 0.359661 -0.123184
C45   C     C_R   0.935100 0.421126 0.479419 0.005069
C46   C     C_3   0.038597 0.239881 0.587108 -0.126093
C47   C     C_R   0.064591 0.579482 0.518295 -0.009932
C48   C     C_R   0.498520 0.480761 0.261824 0.020106
C49   C     C_R   0.498579 0.518972 0.738304 0.022003
C50   C     C_R   0.470533 0.552317 0.225446 -0.211091
Cu1   Cu    Cu3+1 0.493970 0.415220 0.496180 0.960781
Cu2   Cu    Cu3+1 0.506030 0.584780 0.503820 0.993020
H1    H     H_    0.250397 0.897045 0.609116 0.124468
H2    H     H_    0.811780 0.368373 0.341565 0.136126
H3    H     H_    0.140064 0.863033 0.480437 0.108056
H4    H     H_    0.840955 0.136639 0.508904 0.103611
H5    H     H_    0.889341 0.634062 0.528067 0.151763
H6    H     H_    0.110423 0.366816 0.468186 0.122476
H7    H     H_    0.549158 0.387731 0.739584 0.139092
H8    H     H_    0.448137 0.611917 0.260050 0.129511
H9    H     H_    0.544376 0.392916 0.880904 0.148483
H10   H     H_    0.448770 0.604929 0.118373 0.146137
H11   H     H_    0.554048 0.343240 0.096419 0.116970
H12   H     H_    0.743831 0.107777 0.376584 0.130903
H13   H     H_    0.436917 0.653408 0.904951 0.110105
H14   H     H_    0.507145 0.231366 0.165091 0.100823
H15   H     H_    0.381613 0.278334 0.223091 0.135313
H16   H     H_    0.490692 0.214152 0.265289 0.175252
H17   H     H_    0.577079 0.740285 0.816183 0.115950
H18   H     H_    0.417686 0.766675 0.837748 0.112764
H19   H     H_    0.486692 0.792991 0.750293 0.143773
H20   H     H_    0.783729 0.957681 0.537354 0.134904
H21   H     H_    0.841353 0.853374 0.549780 0.115114
H22   H     H_    0.870114 0.942997 0.624393 0.138965
H23   H     H_    0.624636 0.291921 0.579264 0.161306
H24   H     H_    0.163961 0.126437 0.447854 0.088156
H25   H     H_    0.239637 0.032407 0.472657 0.120726
H26   H     H_    0.156751 0.029372 0.380880 0.142773
H27   H     H_    0.763638 0.728367 0.602031 0.205158
H28   H     H_    0.655818 0.740310 0.670847 0.238068
H29   H     H_    0.229810 0.258211 0.407711 0.199582
H30   H     H_    0.330612 0.331971 0.385420 0.281727
H31   H     H_    0.178759 0.636643 0.368719 0.120620
H32   H     H_    0.185383 0.748858 0.352843 0.099295
H33   H     H_    0.069854 0.675956 0.303734 0.148203
H34   H     H_    0.380977 0.715352 0.419017 0.120110
H35   H     H_    0.106000 0.244586 0.539934 0.095366
H36   H     H_    0.011243 0.172176 0.590301 0.100402
H37   H     H_    0.085897 0.265281 0.643858 0.154855
H38   H     H_    0.624257 0.136170 0.579272 0.145220
H39   H     H_    0.391437 0.871597 0.425499 0.139147
H40   H     H_    0.277707 0.784715 0.694744 0.144838
H41   H     H_    0.729001 0.223113 0.293013 0.154392
H42   H     H_    0.196921 0.637586 0.652194 0.143012
N1    N     N_2   0.506624 0.464945 0.013718 -0.244662
N2    N     N_2   0.484385 0.531860 0.985982 -0.245432
N3    N     N_R   0.515100 0.712130 0.509560 -0.215985
N4    N     N_R   0.484900 0.287870 0.490440 -0.243339
N5    N     N_2   0.543517 0.983448 0.527594 -0.223354
N6    N     N_2   0.476797 0.016692 0.480810 -0.229681
N7    N     N_3   0.671437 0.715083 0.612645 -0.528571
N8    N     N_3   0.318403 0.267618 0.387704 -0.596003
O1    O     O_R   0.494360 0.420530 0.382500 -0.464914
O2    O     O_3   0.438471 0.665927 0.748357 -0.562182
O3    O     O_3   0.692866 0.893336 0.619552 -0.578275
O4    O     O_3   0.323114 0.095417 0.386171 -0.547855
O5    O     O_3   0.041723 0.712399 0.421202 -0.576213
O6    O     O_3   0.935213 0.289073 0.577313 -0.565599
O7    O     O_R   0.505640 0.579470 0.617500 -0.417297
O8    O     O_R   0.504550 0.563720 0.388950 -0.523697
O9    O     O_R   0.495450 0.436280 0.611050 -0.526758
O10   O     O_R   0.314550 0.428410 0.496780 -0.534367
O11   O     O_R   0.685450 0.571590 0.503220 -0.485170
O12   O     O_R   0.324740 0.571600 0.503230 -0.505080
O13   O     O_R   0.675260 0.428400 0.496770 -0.493766
O14   O     O_3   0.558449 0.333578 0.250725 -0.567016

loop_
_geom_bond_atom_site_label_1
_geom_bond_atom_site_label_2
_ccdc_geom_bond_type
C33   H3    S    
Cu1   O10   S    
C23   C45   A    
C27   C29   A    
C14   C18   A    
C30   C45   S    
N1    N2    D    
C44   H31   S    
C12   C49   S    
C17   O11   A    
C46   H37   S    
Cu2   O11   S    
C43   H26   S    
C15   C19   A    
C17   O13   A    
C17   C23   S    
C22   N7    S    
C29   C47   S    
C24   N4    A    
C35   C37   A    
C20   O3    S    
C11   C14   A    
C3    H10   S    
C11   H34   S    
Cu1   O1    S    
Cu2   N3    S    
C33   C36   A    
C13   N4    A    
C36   H1    S    
C16   C34   S    
C13   H23   S    
C25   H40   S    
C40   H15   S    
C46   O6    S    
C31   C33   A    
C1    O1    A    
C18   C20   A    
C21   O4    S    
C41   H19   S    
C26   H41   S    
C48   C50   A    
C8    H13   S    
C22   N3    A    
C40   H14   S    
C12   O7    A    
C5    N1    S    
C3    C50   A    
C46   H36   S    
H29   N8    S    
C42   H22   S    
C34   C39   A    
C32   C35   A    
C4    C6    A    
C5    C7    A    
C28   H2    S    
C2    H7    S    
C6    C8    A    
C3    C5    A    
C39   H6    S    
C4    H9    S    
Cu1   O13   S    
Cu1   Cu2   S    
C43   O4    S    
C2    C4    A    
C2    C49   A    
C1    O8    A    
C38   H5    S    
N5    N6    D    
Cu2   O8    S    
C42   H20   S    
H30   N8    S    
C26   C37   A    
C7    H11   S    
C38   C47   A    
C20   C22   A    
C6    N2    S    
C13   C15   A    
C32   O6    S    
C43   H25   S    
C18   N5    S    
C44   H33   S    
C37   H12   S    
C16   O10   A    
C41   H17   S    
C46   H35   S    
C44   O5    S    
C43   H24   S    
C7    C9    A    
C42   H21   S    
Cu1   O9    S    
C19   C21   A    
C35   H4    S    
C9    O14   S    
C31   O5    S    
C44   H32   S    
C16   O12   A    
C19   N6    S    
C1    C48   S    
Cu2   O12   S    
C25   C27   A    
C23   C38   A    
C26   C28   A    
C41   O2    S    
C39   C45   A    
H28   N7    S    
C11   N3    A    
C50   H8    S    
C10   O2    S    
C29   C31   A    
C15   H38   S    
C30   C32   A    
C40   O14   S    
Cu2   O7    S    
Cu1   N4    S    
C28   C30   A    
C24   N8    S    
C42   O3    S    
C14   H39   S    
C25   C36   A    
C9    C48   A    
C8    C10   A    
C40   H16   S    
C21   C24   A    
H27   N7    S    
C27   H42   S    
C34   C47   A    
C10   C49   A    
C12   O9    A    
C41   H18   S    
