data_mof_unit_5019.cif
_audit_creation_date              2013-03-05T15:52:01-0500
_audit_creation_method            fapswitch 2.2
_symmetry_space_group_name_H-M    P1
_symmetry_Int_Tables_number       1
_space_group_crystal_system       triclinic
_cell_length_a                    12.097202
_cell_length_b                    12.948006
_cell_length_c                    27.666826
_cell_angle_alpha                 90.443589
_cell_angle_beta                  85.414268
_cell_angle_gamma                 92.129465
_cell_volume                      4316.67822099

loop_
_atom_site_label
_atom_site_type_symbol
_atom_site_description
_atom_site_fract_x
_atom_site_fract_y
_atom_site_fract_z
_atom_type_partial_charge
O1    O     O_R   0.421700 0.658820 0.502400 -0.594768
O2    O     O_R   0.578300 0.341180 0.497600 -0.565800
O3    O     O_R   0.609310 0.646410 0.496630 -0.627692
O4    O     O_R   0.390690 0.353590 0.503370 -0.632192
C1    C     C_R   0.520475 0.700251 0.499099 0.863138
C2    C     C_R   0.479308 0.300305 0.500264 0.876434
O5    O     O_R   0.406200 0.506190 0.574130 -0.581253
O6    O     O_R   0.593800 0.493810 0.425870 -0.622923
O7    O     O_R   0.593820 0.493770 0.568360 -0.577242
O8    O     O_R   0.406180 0.506230 0.431640 -0.537596
C3    C     C_R   0.500032 0.501224 0.593885 0.900216
C4    C     C_R   0.500223 0.495010 0.406197 0.886690
Zn1   Zn    Zn3+2 0.374730 0.508290 0.503850 0.998612
Zn2   Zn    Zn3+2 0.625270 0.491710 0.496150 0.990115
C5    C     C_R   0.556685 0.555894 0.821448 0.547060
C6    C     C_R   0.519444 0.367320 0.176610 0.542257
O9    O     O_2   0.594629 0.640750 0.796355 -0.602891
O10   O     O_2   0.528634 0.278055 0.200564 -0.606030
N1    N     N_R   0.517822 0.471139 0.797569 -0.324699
N2    N     N_R   0.512293 0.458420 0.201582 -0.323638
C7    C     C_R   0.488076 0.380667 0.821102 0.569823
C8    C     C_R   0.509789 0.551143 0.178510 0.565709
C9    C     C_R   0.579893 0.422191 0.715081 -0.200123
C10   C     C_R   0.601515 0.500290 0.275237 -0.203042
C11   C     C_R   0.575256 0.430759 0.665534 -0.259421
C12   C     C_R   0.596885 0.511720 0.325065 -0.292849
C13   C     C_R   0.434806 0.561173 0.678057 0.338430
C14   C     C_R   0.414270 0.423951 0.332262 0.310066
C15   C     C_R   0.434027 0.546413 0.728665 0.453074
C16   C     C_R   0.416080 0.419106 0.281274 0.420796
C17   C     C_R   0.508756 0.478199 0.746539 0.176052
C18   C     C_R   0.510412 0.457664 0.253249 0.186861
C19   C     C_R   0.525990 0.463488 0.897225 -0.115045
C20   C     C_R   0.518770 0.461055 0.101286 -0.117253
C21   C     C_R   0.556877 0.555259 0.871789 0.002042
C22   C     C_R   0.518334 0.366480 0.126176 -0.000566
C23   C     C_R   0.586763 0.644618 0.896964 -0.162891
C24   C     C_R   0.518122 0.273327 0.100307 -0.158775
C25   C     C_R   0.494680 0.373631 0.871580 -0.152229
C26   C     C_R   0.516596 0.555092 0.127586 -0.151479
C27   C     C_R   0.502173 0.498391 0.646559 -0.192332
C28   C     C_R   0.502414 0.477367 0.353845 -0.217650
H1    H     H_    0.612840 0.715400 0.878001 0.182640
H2    H     H_    0.519443 0.199835 0.118684 0.182821
C29   C     C_R   0.532852 0.556234 0.024980 -0.022805
C30   C     C_R   0.504751 0.368132 0.973614 -0.023077
C31   C     C_R   0.513197 0.366433 0.024365 0.094622
C32   C     C_R   0.546295 0.555587 0.973793 0.096249
C33   C     C_R   0.521748 0.461275 0.050083 0.077427
C34   C     C_R   0.526052 0.462200 0.948323 0.077647
C35   C     C_R   0.527903 0.649112 0.051804 -0.331180
C36   C     C_R   0.473791 0.279198 0.947448 -0.327634
C37   C     C_R   0.521154 0.649568 0.102357 0.517957
C38   C     C_R   0.469610 0.280736 0.897140 0.516093
O11   O     O_2   0.500879 0.638720 0.205077 -0.511947
O12   O     O_2   0.451510 0.298806 0.795617 -0.506287
C39   C     C_R   0.580454 0.645269 0.947163 -0.218887
C40   C     C_R   0.514325 0.273068 0.050315 -0.217996
H3    H     H_    0.666478 0.549867 0.341066 0.184606
H4    H     H_    0.628853 0.383807 0.641843 0.192126
H5    H     H_    0.674185 0.529008 0.253305 0.165411
H6    H     H_    0.638242 0.371039 0.729231 0.173818
H7    H     H_    0.524576 0.723091 0.034391 0.157929
H8    H     H_    0.447488 0.207768 0.965410 0.159795
H9    H     H_    0.606057 0.716426 0.964280 0.138482
H10   H     H_    0.516190 0.198511 0.032656 0.139370
C41   C     C_R   0.468431 0.190132 0.502362 -0.173885
C42   C     C_R   0.530601 0.811570 0.497710 -0.151653
C43   C     C_R   0.639654 0.964639 0.473967 -0.181277
C44   C     C_R   0.368045 0.039255 0.533867 -0.206741
C45   C     C_R   0.630699 0.858650 0.478926 -0.310239
C46   C     C_R   0.376432 0.144938 0.528868 -0.285936
C47   C     C_R   0.439148 0.871588 0.513006 0.404085
C48   C     C_R   0.553910 0.130115 0.481092 0.445802
C49   C     C_R   0.452952 0.978432 0.513184 -0.013489
C50   C     C_R   0.550084 0.024761 0.489804 0.026138
H11   H     H_    0.311251 0.191334 0.545829 0.192537
H12   H     H_    0.700374 0.813399 0.465774 0.171641
H13   H     H_    0.716697 0.999157 0.457864 0.194429
H14   H     H_    0.294993 0.005364 0.553768 0.197171
N3    N     N_R   0.207800 0.519340 0.508990 -0.170760
N4    N     N_R   0.792200 0.480660 0.491010 -0.137089
C51   C     C_R   0.960816 0.436879 0.443339 -0.023145
C52   C     C_R   0.038310 0.539322 0.561420 -0.011197
C53   C     C_R   0.843285 0.434115 0.451246 0.128745
C54   C     C_R   0.155651 0.544711 0.553223 0.140512
C55   C     C_R   0.854360 0.523821 0.525806 0.535709
C56   C     C_R   0.144335 0.496613 0.470881 0.545476
C57   C     C_R   0.972377 0.514700 0.522646 -0.195555
C58   C     C_R   0.026185 0.482274 0.478581 -0.144222
O13   O     O_3   0.369885 0.636068 0.660451 -0.618848
C59   C     C_3   0.438865 0.718689 0.640539 0.046290
H15   H     H_    0.464369 0.701898 0.602018 0.164754
H16   H     H_    0.514856 0.733433 0.660334 0.124858
C60   C     C_3   0.374947 0.818016 0.642091 -0.791190
H17   H     H_    0.359040 0.845430 0.679970 0.218722
H18   H     H_    0.424644 0.879231 0.621437 0.227153
H19   H     H_    0.294564 0.805480 0.625839 0.276880
O14   O     O_3   0.322784 0.383613 0.360057 -0.544122
C61   C     C_3   0.350804 0.289428 0.380630 0.128297
H20   H     H_    0.413537 0.302872 0.407187 0.117171
H21   H     H_    0.383829 0.234526 0.352364 0.069148
C62   C     C_3   0.248389 0.238819 0.407373 -0.753808
H22   H     H_    0.182992 0.223621 0.382017 0.228914
H23   H     H_    0.270339 0.164355 0.423115 0.184603
H24   H     H_    0.215942 0.289781 0.437242 0.282258
O15   O     O_3   0.194154 0.500315 0.424174 -0.517618
C63   C     C_3   0.166133 0.594172 0.402789 0.118351
H25   H     H_    0.185918 0.661487 0.425933 0.101872
H26   H     H_    0.076323 0.594469 0.396887 0.121776
C64   C     C_3   0.230269 0.609321 0.353706 -0.710554
H27   H     H_    0.204825 0.681436 0.336931 0.180722
H28   H     H_    0.320533 0.616540 0.358084 0.246980
H29   H     H_    0.212200 0.543456 0.329295 0.288720
O16   O     O_3   0.801686 0.582917 0.561786 -0.594744
C65   C     C_3   0.821414 0.688534 0.549810 0.103167
H30   H     H_    0.799658 0.704967 0.512452 0.145563
H31   H     H_    0.910157 0.712505 0.551812 0.120670
C66   C     C_3   0.752118 0.754630 0.585376 -0.801289
H32   H     H_    0.775732 0.742459 0.622825 0.246489
H33   H     H_    0.766033 0.837546 0.575933 0.211721
H34   H     H_    0.662859 0.733499 0.583848 0.243701
N5    N     N_3   0.220909 0.586524 0.590085 -0.334912
H35   H     H_    0.173120 0.607907 0.621370 0.221628
H36   H     H_    0.259192 0.654786 0.576222 0.243304
N6    N     N_3   0.776550 0.383649 0.417229 -0.373951
H37   H     H_    0.793357 0.418793 0.383436 0.156037
H38   H     H_    0.799216 0.306817 0.414263 0.202672
N7    N     N_3   0.013690 0.388831 0.401073 -0.392041
H39   H     H_    0.986895 0.422813 0.370140 0.180769
H40   H     H_    0.990543 0.310285 0.401120 0.173211
N8    N     N_3   0.989667 0.547147 0.610414 -0.445415
H41   H     H_    0.953198 0.618324 0.616126 0.218287
H42   H     H_    0.930619 0.486959 0.617348 0.231165
O17   O     O_3   0.354196 0.587577 0.761514 -0.600368
C67   C     C_3   0.357700 0.696710 0.760752 0.179092
H43   H     H_    0.294107 0.722906 0.737304 0.190773
H44   H     H_    0.440745 0.731068 0.748001 0.153884
C68   C     C_3   0.327609 0.737357 0.811683 -0.824376
H45   H     H_    0.389110 0.713376 0.836683 0.268238
H46   H     H_    0.327075 0.823086 0.811190 0.206752
H47   H     H_    0.243954 0.706730 0.825222 0.263811
O18   O     O_3   0.321618 0.392141 0.258059 -0.601622
C69   C     C_3   0.294396 0.285499 0.263041 0.143892
H48   H     H_    0.234608 0.273008 0.295185 0.175193
H49   H     H_    0.368068 0.237566 0.266449 0.152220
C70   C     C_3   0.237873 0.247915 0.218633 -0.798070
H50   H     H_    0.294900 0.259140 0.185457 0.269449
H51   H     H_    0.214515 0.164440 0.222373 0.203734
H52   H     H_    0.161746 0.291635 0.214940 0.254178
O19   O     O_3   0.512087 0.742901 0.126824 -0.559286
C71   C     C_3   0.617465 0.794223 0.124723 0.117974
H53   H     H_    0.644834 0.817907 0.086917 0.116160
H54   H     H_    0.680719 0.744174 0.138766 0.137636
C72   C     C_3   0.610408 0.891132 0.156088 -0.749879
H55   H     H_    0.585144 0.869997 0.194333 0.274153
H56   H     H_    0.692658 0.932566 0.154511 0.194432
H57   H     H_    0.548639 0.943290 0.142815 0.249199
O20   O     O_3   0.433536 0.192333 0.873764 -0.557073
C73   C     C_3   0.521089 0.122867 0.868680 0.128502
H58   H     H_    0.543370 0.096326 0.904724 0.114516
H59   H     H_    0.595889 0.159348 0.848550 0.139995
C74   C     C_3   0.484348 0.028493 0.840132 -0.771265
H60   H     H_    0.463191 0.052001 0.803558 0.274326
H61   H     H_    0.552376 0.973026 0.836033 0.199746
H62   H     H_    0.410398 0.989715 0.859516 0.248787
O21   O     O_3   0.638571 0.173301 0.450080 -0.611185
C75   C     C_3   0.604206 0.175264 0.402207 0.073282
H63   H     H_    0.602086 0.257093 0.390769 0.163648
H64   H     H_    0.520251 0.138928 0.397919 0.104560
C76   C     C_3   0.687096 0.120542 0.367446 -0.860510
H65   H     H_    0.682100 0.036141 0.374348 0.247489
H66   H     H_    0.667382 0.133700 0.329509 0.227357
H67   H     H_    0.772920 0.150363 0.371777 0.249499
O22   O     O_3   0.335355 0.826819 0.526393 -0.623424
C77   C     C_3   0.267947 0.835577 0.487074 0.129605
H68   H     H_    0.294361 0.780245 0.458004 0.151697
H69   H     H_    0.272783 0.914265 0.470836 0.129806
C78   C     C_3   0.147020 0.813137 0.504388 -0.914157
H70   H     H_    0.120804 0.867394 0.534041 0.260741
H71   H     H_    0.093853 0.822549 0.473920 0.202429
H72   H     H_    0.135385 0.733075 0.517795 0.245863

loop_
_geom_bond_atom_site_label_1
_geom_bond_atom_site_label_2
_geom_bond_distance
_ccdc_geom_bond_type
C76   H65   1.109436 S    
C47   O22   1.387305 S    
N6    H37   1.044907 S    
Zn1   N3    2.023328 S    
C72   H56   1.110629 S    
C60   H17   1.108331 S    
C32   C39   1.410992 A    
C56   C58   1.433499 A    
C74   H60   1.110891 S    
C49   C50   1.411047 A    
N1    C17   1.428699 S    
C60   H19   1.109574 S    
O17   C67   1.412390 S    
C31   C33   1.419100 A    
C63   H25   1.107846 S    
O5    C3    1.302500 A    
C76   H66   1.110570 S    
C10   H5    1.083137 S    
C48   C50   1.385524 A    
O1    C1    1.288249 A    
C63   C64   1.519485 S    
N1    C7    1.366988 A    
C10   C12   1.382254 A    
C51   N7    1.436063 S    
C67   C68   1.521779 S    
C68   H47   1.110653 S    
C29   C32   1.412500 A    
C25   C38   1.410868 A    
C13   C15   1.413857 A    
C29   C35   1.408902 A    
O18   C69   1.412781 S    
C30   C36   1.410241 A    
C65   H30   1.110808 S    
C43   C50   1.397694 A    
N7    H40   1.044755 S    
C41   C46   1.395198 A    
C14   C28   1.418633 A    
O4    Zn1   2.019308 S    
C43   C45   1.379626 A    
C61   H20   1.106096 S    
C4    C28   1.462887 S    
C70   H50   1.110351 S    
C38   O20   1.384016 S    
C24   C40   1.387509 A    
C40   H10   1.078744 S    
C77   C78   1.520660 S    
O20   C73   1.412651 S    
C65   H31   1.111926 S    
N8    H41   1.042002 S    
N6    H38   1.042602 S    
O19   C71   1.412740 S    
C13   O13   1.385481 S    
C11   H4    1.083874 S    
C64   H29   1.109965 S    
C12   H3    1.083514 S    
C55   O16   1.380381 S    
N3    C54   1.374510 A    
C6    N2    1.364392 A    
C78   H72   1.103990 S    
C75   H64   1.117947 S    
C72   H57   1.111091 S    
C47   C49   1.387292 A    
C53   N6    1.427306 S    
O2    C2    1.288024 A    
C69   C70   1.521265 S    
C5    C21   1.393052 A    
C48   O21   1.386399 S    
C36   C38   1.397121 A    
C72   H55   1.111061 S    
C66   H33   1.110444 S    
C76   H67   1.109400 S    
C70   H51   1.110466 S    
C44   H14   1.083432 S    
C73   C74   1.521631 S    
N5    H35   1.043187 S    
C70   H52   1.110711 S    
C35   H7    1.079052 S    
C67   H44   1.115411 S    
C36   H8    1.078695 S    
C39   H9    1.079141 S    
O21   C75   1.420262 S    
C56   O15   1.381902 S    
C69   H48   1.109426 S    
C75   C76   1.523309 S    
C42   C47   1.410990 A    
C52   N8    1.438281 S    
C59   C60   1.523628 S    
C16   O18   1.387258 S    
C35   C37   1.394495 A    
C9    C17   1.393142 A    
C23   H1    1.083596 S    
C5    N1    1.364507 A    
O7    Zn2   2.003779 S    
C10   C18   1.395030 A    
C24   H2    1.083600 S    
C46   H11   1.083745 S    
C13   C27   1.417414 A    
O22   C77   1.418388 S    
C7    C25   1.409062 A    
C71   C72   1.521179 S    
C29   C33   1.413572 A    
O6    C4    1.295334 A    
C54   N5    1.429986 S    
C8    C26   1.405935 A    
C74   H62   1.110891 S    
C61   H21   1.113135 S    
C64   H28   1.108663 S    
C41   C48   1.405277 A    
C19   C25   1.413497 A    
C68   H46   1.110474 S    
O7    C3    1.293920 A    
O3    Zn2   2.019308 S    
O8    C4    1.301353 A    
N8    H42   1.045665 S    
C14   O14   1.384274 S    
C69   H49   1.115264 S    
C75   H63   1.109904 S    
C15   O17   1.390354 S    
N2    C8    1.366541 A    
C55   C57   1.432574 A    
C62   H23   1.110778 S    
C20   C26   1.413595 A    
C43   H13   1.082865 S    
O4    C2    1.293044 A    
O1    Zn1   2.009621 S    
C52   C57   1.414655 A    
Zn2   N4    2.023328 S    
O15   C63   1.419737 S    
C11   C27   1.401064 A    
C22   C24   1.397751 A    
C1    C42   1.442567 S    
O13   C59   1.418985 S    
C12   C28   1.400045 A    
N7    H39   1.044929 S    
N2    C18   1.427918 S    
C66   H34   1.108039 S    
C21   C23   1.396869 A    
C5    O9    1.350257 S    
C51   C58   1.414711 A    
C30   C31   1.416338 A    
C2    C41   1.428891 S    
C20   C33   1.414225 A    
O6    Zn2   2.011572 S    
C64   H27   1.110390 S    
C51   C53   1.420295 A    
C71   H54   1.115657 S    
C67   H43   1.109187 S    
O3    C1    1.299515 A    
O8    Zn1   2.003784 S    
C7    O12   1.348969 S    
C66   H32   1.110465 S    
C60   H18   1.110358 S    
C8    O11   1.349536 S    
N4    C53   1.365337 A    
C30   C34   1.414410 A    
C65   C66   1.520456 S    
C73   H58   1.113722 S    
C77   H68   1.108716 S    
C19   C34   1.414002 A    
C14   C16   1.410027 A    
C15   C17   1.406935 A    
O14   C61   1.413638 S    
C6    C22   1.396463 A    
C31   C40   1.411852 A    
C16   C18   1.405297 A    
C68   H45   1.109558 S    
C59   H16   1.116818 S    
C42   C45   1.399075 A    
C32   C34   1.418106 A    
C59   H15   1.107758 S    
C19   C21   1.408805 A    
C63   H26   1.111643 S    
C3    C27   1.460397 S    
C62   H24   1.109643 S    
C20   C22   1.409167 A    
C9    C11   1.381891 A    
C61   C62   1.520655 S    
O2    Zn2   2.009621 S    
N3    C56   1.376791 A    
N5    H36   1.043658 S    
C78   H70   1.110497 S    
O5    Zn1   2.011566 S    
C71   H53   1.113464 S    
C44   C49   1.400647 A    
C6    O10   1.349317 S    
C26   C37   1.410210 A    
C62   H22   1.109855 S    
C37   O19   1.384181 S    
C52   C54   1.418683 A    
C74   H61   1.110685 S    
C44   C46   1.375598 A    
C9    H6    1.083095 S    
O16   C65   1.416687 S    
C57   C58   1.404195 A    
C45   H12   1.081897 S    
C23   C39   1.384825 A    
N4    C55   1.371407 A    
C73   H59   1.115259 S    
C77   H69   1.114339 S    
C78   H71   1.110488 S    
