data_mof_unit_6185.cif
_audit_creation_date              2012-12-11T15:07:31-0500
_audit_creation_method            fapswitch 2.2
_symmetry_space_group_name_H-M    P1
_symmetry_Int_Tables_number       1
_space_group_crystal_system       triclinic
_cell_length_a                    21.703868
_cell_length_b                    7.209228
_cell_length_c                    18.461528
_cell_angle_alpha                 90.774138
_cell_angle_beta                  95.961016
_cell_angle_gamma                 90.13686
_cell_volume                      2872.73820054

loop_
_atom_site_label
_atom_site_type_symbol
_atom_type_description
_atom_site_fract_x
_atom_site_fract_y
_atom_site_fract_z
_atom_type_partial_charge
O1    O     O_R   0.449650 0.506500 0.414480 -0.532496
O2    O     O_R   0.550350 0.006500 0.585520 -0.532592
O3    O     O_R   0.432010 0.173150 0.560250 -0.539136
O4    O     O_R   0.567990 0.673150 0.439750 -0.540985
C1    C     C_R   0.416088 0.345055 0.580904 0.685366
C2    C     C_R   0.584220 0.843969 0.419479 0.682270
O5    O     O_R   0.442320 0.176650 0.413480 -0.533331
O6    O     O_R   0.557680 0.676650 0.586520 -0.532889
O7    O     O_R   0.560730 0.008380 0.437700 -0.534267
O8    O     O_R   0.439270 0.508380 0.562300 -0.534802
C3    C     C_R   0.428499 0.343695 0.387265 0.675020
C4    C     C_R   0.571523 0.846393 0.612540 0.677490
O9    O     O_3   0.538840 0.339860 0.508120 -0.372550
O10   O     O_3   0.461160 0.839860 0.491880 -0.371998
V1    V     V_3+5 0.492800 0.064220 0.498490 1.418943
V2    V     V_3+5 0.507200 0.564220 0.501510 1.414406
C5    C     C_R   0.875127 0.918654 0.684877 -0.200635
C6    C     C_R   0.131485 0.516178 0.312704 -0.203433
H1    H     H_    0.896849 0.915777 0.634834 0.122352
H2    H     H_    0.113749 0.568276 0.361533 0.119839
C7    C     C_R   0.888582 0.934826 0.816910 -0.059084
C8    C     C_R   0.112637 0.449859 0.183022 -0.060066
C9    C     C_R   0.586733 0.852534 0.746483 -0.158016
C10   C     C_R   0.411259 0.305933 0.253795 -0.159592
C11   C     C_R   0.623289 0.864677 0.812771 -0.120540
C12   C     C_R   0.373799 0.297830 0.187976 -0.121938
C13   C     C_R   0.687429 0.883045 0.815215 -0.151721
C14   C     C_R   0.310158 0.327137 0.185602 -0.151554
C15   C     C_R   0.717254 0.889991 0.750566 0.080985
C16   C     C_R   0.281810 0.364217 0.249883 0.080414
C17   C     C_R   0.679227 0.877149 0.682614 0.043987
C18   C     C_R   0.320771 0.372948 0.317378 0.045713
C19   C     C_R   0.783328 0.907282 0.751355 0.049645
C20   C     C_R   0.216604 0.399034 0.248928 0.047463
C21   C     C_R   0.810038 0.908021 0.683919 0.084775
C22   C     C_R   0.192648 0.450535 0.315173 0.089307
C23   C     C_R   0.771245 0.897392 0.616937 0.066795
C24   C     C_R   0.230846 0.442408 0.382369 0.066834
C25   C     C_R   0.707039 0.882381 0.617577 -0.224877
C26   C     C_R   0.294078 0.405931 0.382193 -0.224393
C27   C     C_R   0.823913 0.923142 0.817104 -0.232428
C28   C     C_R   0.174318 0.387724 0.184283 -0.237043
C29   C     C_R   0.914400 0.930290 0.750041 0.077935
C30   C     C_R   0.092817 0.527124 0.247352 0.077364
C31   C     C_R   0.613651 0.858412 0.681042 -0.072681
C32   C     C_R   0.385921 0.345165 0.318841 -0.072969
H3    H     H_    0.806892 0.926538 0.869850 0.098931
H4    H     H_    0.188391 0.336160 0.133474 0.104409
H5    H     H_    0.536967 0.838626 0.746198 0.113694
H6    H     H_    0.460435 0.280289 0.254104 0.105935
H7    H     H_    0.712158 0.890255 0.868809 0.105759
H8    H     H_    0.284575 0.322106 0.132395 0.106322
H9    H     H_    0.601672 0.859596 0.862999 0.118904
H10   H     H_    0.394286 0.268476 0.138070 0.120920
H11   H     H_    0.678521 0.872303 0.565898 0.105703
H12   H     H_    0.322798 0.404063 0.433789 0.104912
C33   C     C_R   0.643598 0.709228 0.321010 -0.196389
C34   C     C_R   0.361856 0.223901 0.684563 -0.176491
C35   C     C_R   0.634371 0.854067 0.370626 -0.095451
C36   C     C_R   0.366572 0.357481 0.630570 -0.095519
C37   C     C_R   0.671959 0.013285 0.371825 -0.209734
C38   C     C_R   0.325124 0.507353 0.625706 -0.224510
C39   C     C_R   0.717728 0.029659 0.324073 0.129641
C40   C     C_R   0.278127 0.521360 0.672230 0.100298
C41   C     C_R   0.725351 0.887225 0.272556 -0.021212
C42   C     C_R   0.273727 0.387280 0.726610 -0.026485
C43   C     C_R   0.688152 0.725573 0.270847 -0.001708
C44   C     C_R   0.316480 0.239011 0.733869 0.015777
C45   C     C_R   0.756245 0.186351 0.327290 -0.130473
C46   C     C_R   0.235694 0.668412 0.665618 -0.195403
C47   C     C_R   0.801628 0.203209 0.279466 -0.179997
C48   C     C_R   0.189464 0.683905 0.712761 -0.214948
C49   C     C_R   0.808825 0.065884 0.226473 0.116413
C50   C     C_R   0.185122 0.553681 0.767806 0.101035
C51   C     C_R   0.770648 0.906402 0.223236 0.057913
C52   C     C_R   0.227292 0.404212 0.774585 0.049824
C53   C     C_R   0.778604 0.764751 0.171799 0.029842
C54   C     C_R   0.223688 0.273871 0.830113 0.041487
C55   C     C_R   0.741765 0.604290 0.170495 -0.297079
C56   C     C_R   0.267363 0.130683 0.838634 -0.291564
C57   C     C_R   0.695658 0.585193 0.218379 0.423159
C58   C     C_R   0.313728 0.110059 0.790514 0.404929
C59   C     C_R   0.854383 0.083211 0.177935 -0.240579
C60   C     C_R   0.139581 0.570946 0.816371 -0.226005
C61   C     C_R   0.863333 0.941056 0.127085 -0.081372
C62   C     C_R   0.134719 0.438561 0.870766 -0.071756
C63   C     C_R   0.824633 0.783142 0.123981 -0.191354
C64   C     C_R   0.177173 0.290939 0.877410 -0.205382
H13   H     H_    0.614657 0.586478 0.320159 0.160350
H14   H     H_    0.394597 0.110352 0.688877 0.161687
H15   H     H_    0.665993 0.124452 0.410612 0.125943
H16   H     H_    0.328878 0.612041 0.584752 0.124526
H17   H     H_    0.751492 0.295901 0.367106 0.120329
H18   H     H_    0.238406 0.772035 0.624079 0.129410
H19   H     H_    0.831345 0.323236 0.284810 0.124336
H20   H     H_    0.157559 0.799110 0.706719 0.132736
H21   H     H_    0.884155 0.204466 0.181291 0.127216
H22   H     H_    0.107043 0.684960 0.810802 0.121093
H23   H     H_    0.831106 0.672571 0.085136 0.130921
H24   H     H_    0.174155 0.189661 0.919801 0.126840
H25   H     H_    0.749231 0.492002 0.132798 0.138770
H26   H     H_    0.266013 0.037960 0.884043 0.131855
O11   O     O_R   0.060820 0.290050 0.937800 -0.536042
O12   O     O_R   0.939180 0.790050 0.062200 -0.535774
O13   O     O_R   0.057690 0.616620 0.086540 -0.538042
O14   O     O_R   0.942310 0.116620 0.913460 -0.533792
C65   C     C_R   0.071539 0.450385 0.113125 0.682926
C66   C     C_R   0.928705 0.947423 0.887022 0.686062
O15   O     O_R   0.068010 0.619890 0.939770 -0.539191
O16   O     O_R   0.931990 0.119890 0.060230 -0.541249
O17   O     O_R   0.949640 0.787940 0.914460 -0.535889
O18   O     O_R   0.050360 0.287940 0.085540 -0.535229
C67   C     C_R   0.084480 0.450673 0.919366 0.694798
C68   C     C_R   0.914899 0.951496 0.079965 0.693007
O19   O     O_3   0.961210 0.453080 0.991940 -0.373763
O20   O     O_3   0.038790 0.953080 0.008060 -0.372462
V3    V     V_3+5 0.007200 0.728820 0.001500 1.391618
V4    V     V_3+5 0.992800 0.228820 0.998500 1.390885
C69   C     C_3   0.983738 0.936710 0.745751 -0.378786
C70   C     C_3   0.004801 0.133139 0.728886 -0.295812
C71   C     C_3   0.073342 0.136643 0.717249 -0.772509
H27   H     H_    0.081695 0.048088 0.669614 0.216837
H28   H     H_    0.087710 0.280743 0.706619 0.233087
H29   H     H_    0.101796 0.085355 0.766306 0.238467
H30   H     H_    0.977571 0.184168 0.678801 0.191915
H31   H     H_    0.996956 0.228332 0.774906 0.200782
H32   H     H_    0.009823 0.890027 0.797149 0.164666
H33   H     H_    0.995793 0.838177 0.702549 0.169999
C72   C     C_3   0.032741 0.633308 0.248370 -0.366380
C73   C     C_3   0.975462 0.508149 0.236655 -0.312686
C74   C     C_3   0.919188 0.608277 0.261133 -0.768335
H34   H     H_    0.918272 0.595210 0.320856 0.222014
H35   H     H_    0.920047 0.757757 0.247791 0.242859
H36   H     H_    0.876586 0.546998 0.232568 0.222387
H37   H     H_    0.965946 0.471085 0.177983 0.196530
H38   H     H_    0.982974 0.378008 0.267977 0.188557
H39   H     H_    0.032154 0.708347 0.301403 0.173601
H40   H     H_    0.030045 0.743163 0.206586 0.181092
O21   O     O_3   0.661417 0.422568 0.218353 -0.572300
C75   C     C_3   0.619858 0.407227 0.154122 0.077321
H41   H     H_    0.606820 0.258530 0.146712 0.147872
H42   H     H_    0.641002 0.447362 0.104110 0.106249
C76   C     C_3   0.560880 0.519950 0.161357 -0.328494
H43   H     H_    0.540499 0.478514 0.211478 0.193431
H44   H     H_    0.572511 0.670118 0.165983 0.189000
C77   C     C_3   0.513034 0.488914 0.095677 -0.835477
H45   H     H_    0.531894 0.534436 0.045104 0.232351
H46   H     H_    0.470764 0.570697 0.102945 0.234763
H47   H     H_    0.500062 0.339881 0.090141 0.226045
O22   O     O_3   0.361733 0.982467 0.802739 -0.580474
C78   C     C_3   0.341531 0.804339 0.821700 0.078099
H48   H     H_    0.360883 0.701847 0.784819 0.152553
H49   H     H_    0.290425 0.784516 0.814229 0.129541
C79   C     C_3   0.367291 0.760907 0.899937 -0.317080
H50   H     H_    0.418758 0.763898 0.904274 0.202492
H51   H     H_    0.351841 0.867760 0.937924 0.192294
C80   C     C_3   0.345889 0.570429 0.922578 -0.823666
H52   H     H_    0.294618 0.566851 0.921259 0.238428
H53   H     H_    0.366364 0.541331 0.978905 0.229816
H54   H     H_    0.361017 0.460919 0.885463 0.242536
C81   C     C_3   0.795859 0.899376 0.542802 -0.359773
C82   C     C_3   0.816700 0.705018 0.521072 -0.294699
C83   C     C_3   0.837141 0.702527 0.444413 -0.779861
H55   H     H_    0.798023 0.741593 0.404002 0.241764
H56   H     H_    0.876289 0.800513 0.441086 0.229542
H57   H     H_    0.852440 0.560630 0.430681 0.210357
H58   H     H_    0.855762 0.657845 0.560064 0.190674
H59   H     H_    0.777658 0.605393 0.522571 0.198083
H60   H     H_    0.759026 0.946502 0.500742 0.176772
H61   H     H_    0.833755 0.002585 0.541629 0.163074
C84   C     C_3   0.205830 0.467338 0.455867 -0.358365
C85   C     C_3   0.165090 0.301776 0.472397 -0.301225
C86   C     C_3   0.142361 0.320893 0.547622 -0.767175
H62   H     H_    0.181978 0.314133 0.590592 0.244366
H63   H     H_    0.117543 0.454239 0.552786 0.232430
H64   H     H_    0.110054 0.205240 0.555744 0.212216
H65   H     H_    0.124185 0.290011 0.431177 0.194396
H66   H     H_    0.192193 0.171439 0.470274 0.196275
H67   H     H_    0.244497 0.477793 0.499982 0.179098
H68   H     H_    0.180326 0.600162 0.458353 0.161305

loop_
_geom_bond_atom_site_label_1
_geom_bond_atom_site_label_2
_ccdc_geom_bond_type
C85   H65   S    
C76   C77   S    
C42   C44   A    
C84   C85   S    
C39   C41   A    
C57   O21   S    
C80   H52   S    
C9    C31   A    
C13   C15   A    
C65   O18   A    
C73   H37   S    
O1    C3    A    
C75   C76   S    
C74   H36   S    
O2    C4    A    
O16   V4    S    
C2    O7    A    
C81   C82   S    
O15   V3    S    
C24   C84   S    
C86   H62   S    
C70   C71   S    
O5    C3    A    
O13   C65   A    
C33   H13   S    
C62   C67   S    
C61   C68   S    
C83   H56   S    
C52   C54   A    
C82   C83   S    
C45   H17   S    
C54   C56   A    
C9    H5    S    
C47   H19   S    
C34   C36   A    
C76   H43   S    
C15   C19   A    
O20   V3    S    
C6    H2    S    
C36   C38   A    
C78   C79   S    
C85   H66   S    
C45   C47   A    
C71   H29   S    
C38   C40   A    
C60   H22   S    
C5    H1    S    
C7    C29   A    
C25   H11   S    
C72   H40   S    
C39   C45   A    
C20   C28   A    
C26   H12   S    
C38   H16   S    
C78   H48   S    
C40   C46   A    
O16   C68   A    
C63   H23   S    
O15   C67   A    
C81   H60   S    
C69   H33   S    
C61   C63   A    
O6    V2    S    
C24   C26   A    
O14   V4    S    
C78   H49   S    
C49   C51   A    
O13   V3    S    
C8    C65   S    
C18   C32   A    
C33   C43   A    
C12   H10   S    
C12   C14   A    
C13   H7    S    
C77   H46   S    
C86   H63   S    
C10   H6    S    
C8    C30   A    
C35   C37   A    
C71   H27   S    
C16   C20   A    
C7    C66   S    
C83   H57   S    
C75   H41   S    
C79   C80   S    
C48   C50   A    
C50   C60   A    
C47   C49   A    
C70   H30   S    
O5    V1    S    
C41   C43   A    
C30   C72   S    
C46   C48   A    
C77   H45   S    
C56   H26   S    
C40   C42   A    
O4    V2    S    
C5    C29   A    
C6    C30   A    
O18   V4    S    
C77   H47   S    
C51   C53   A    
O6    C4    A    
O19   V4    S    
C42   C52   A    
C37   C39   A    
C27   H3    S    
C53   C55   A    
O1    V2    S    
C28   H4    S    
C69   C70   S    
O2    V1    S    
C34   H14   S    
C53   C63   A    
C79   H50   S    
C58   O22   S    
C70   H31   S    
C50   C52   A    
C7    C27   A    
C81   H61   S    
O4    C2    A    
C59   C61   A    
C43   C57   A    
C80   H54   S    
C17   C31   A    
C82   H59   S    
C84   H68   S    
O11   V4    S    
C74   H34   S    
C64   H24   S    
O3    C1    A    
C18   C26   A    
O3    V1    S    
C85   C86   S    
C21   C23   A    
C23   C81   S    
C72   C73   S    
C86   H64   S    
C54   C64   A    
C76   H44   S    
C1    C36   S    
O11   C67   A    
O10   V1    S    
C79   H51   S    
C2    C35   S    
C73   H38   S    
C10   C12   A    
C60   C62   A    
C4    C31   S    
C74   H35   S    
C80   H53   S    
O21   C75   S    
C75   H42   S    
C11   C13   A    
O12   V3    S    
C55   C57   A    
C41   C51   A    
C66   O17   A    
O17   V3    S    
C44   C58   A    
C84   H67   S    
C14   C16   A    
C73   C74   S    
O7    V1    S    
C19   C27   A    
C1    O8    A    
C15   C17   A    
O8    V2    S    
C16   C18   A    
C14   H8    S    
C34   C44   A    
C8    C28   A    
O14   C66   A    
C22   C24   A    
C19   C21   A    
C56   C58   A    
C17   C25   A    
C62   C64   A    
C9    C11   A    
C71   H28   S    
C83   H55   S    
C33   C35   A    
C82   H58   S    
C48   H20   S    
C72   H39   S    
C20   C22   A    
C23   C25   A    
C59   H21   S    
O9    V2    S    
C46   H18   S    
O22   C78   S    
C55   H25   S    
C3    C32   S    
O12   C68   A    
C5    C21   A    
C6    C22   A    
C49   C59   A    
C11   H9    S    
C37   H15   S    
C29   C69   S    
C10   C32   A    
C69   H32   S    
