data_mof_unit_26808.cif
_audit_creation_date              2012-10-26T20:33:01-0400
_audit_creation_method            fapswitch 2.2
_symmetry_space_group_name_H-M    P1
_symmetry_Int_Tables_number       1
_space_group_crystal_system       triclinic
_cell_length_a                    27.782987
_cell_length_b                    10.852634
_cell_length_c                    9.589921
_cell_angle_alpha                 88.913701
_cell_angle_beta                  88.759935
_cell_angle_gamma                 90.55253
_cell_volume                      2890.19647999

loop_
_atom_site_label
_atom_site_type_symbol
_atom_type_description
_atom_site_fract_x
_atom_site_fract_y
_atom_site_fract_z
_atom_type_partial_charge
Br1   Br    Br    0.755308 0.712366 0.300716 -0.409667
Br2   Br    Br    0.405363 0.095743 0.697868 -0.379326
Br3   Br    Br    0.495153 0.130188 0.911894 -0.495517
Br4   Br    Br    0.407652 0.368299 0.861711 -0.403905
C1    C     C_R   0.500590 0.262107 0.500784 0.572554
C2    C     C_R   0.974692 0.390506 0.481143 0.017199
C3    C     C_R   0.974493 0.611222 0.533476 0.020491
C4    C     C_R   0.407544 0.501102 0.501157 0.580114
C5    C     C_R   0.949318 0.500625 0.506414 0.041796
C6    C     C_R   0.948510 0.285803 0.439012 -0.145005
C7    C     C_R   0.898675 0.289124 0.426680 -0.106558
C8    C     C_R   0.873137 0.395358 0.460942 0.026266
C9    C     C_R   0.898372 0.500360 0.504154 -0.028461
C10   C     C_R   0.872673 0.605076 0.545354 0.032303
C11   C     C_R   0.822194 0.600964 0.547775 0.443434
C12   C     C_R   0.278770 0.540128 0.625657 -0.042413
C13   C     C_R   0.822810 0.399770 0.451733 0.408765
C14   C     C_R   0.720368 0.408386 0.564880 -0.064050
C15   C     C_R   0.669948 0.403801 0.564549 0.090858
C16   C     C_R   0.502204 0.737308 0.498828 0.542401
C17   C     C_R   0.670939 0.598322 0.429209 0.094251
C18   C     C_R   0.721374 0.594428 0.420335 0.247156
C19   C     C_R   0.746295 0.501628 0.492733 0.173376
C20   C     C_R   0.025347 0.389439 0.497051 -0.010127
C21   C     C_R   0.050825 0.502314 0.507220 0.014895
C22   C     C_R   0.025320 0.614170 0.518085 -0.001148
C23   C     C_R   0.253706 0.508816 0.506093 0.238795
C24   C     C_R   0.051106 0.278952 0.506515 -0.106183
C25   C     C_R   0.101273 0.728641 0.494081 0.140297
C26   C     C_R   0.947912 0.714946 0.575714 -0.143095
C27   C     C_R   0.897850 0.710942 0.584016 -0.100387
C28   C     C_R   0.592244 0.500750 0.498822 0.528180
C29   C     C_R   0.051181 0.725898 0.507600 -0.133683
C30   C     C_R   0.505778 0.059434 0.624956 0.048815
C31   C     C_R   0.505212 0.128455 0.500429 0.013889
C32   C     C_R   0.512791 0.066738 0.373776 -0.135880
C33   C     C_R   0.514134 0.938070 0.372292 -0.142684
C34   C     C_R   0.101976 0.503472 0.506644 -0.083981
C35   C     C_R   0.508636 0.870072 0.497734 -0.000251
C36   C     C_R   0.509047 0.932646 0.623446 -0.048806
C37   C     C_3   0.477190 0.913907 0.749007 -0.193029
C38   C     C_3   0.470842 0.052428 0.746473 0.323298
C39   C     C_R   0.535207 0.561562 0.069809 0.131799
C40   C     C_R   0.178449 0.396375 0.511436 0.393376
C41   C     C_R   0.463406 0.448781 0.079731 0.051306
C42   C     C_R   0.462910 0.449007 0.932649 0.288700
C43   C     C_R   0.535232 0.561255 0.922506 0.123590
C44   C     C_3   0.587680 0.534677 0.914074 -0.260744
C45   C     C_R   0.127545 0.390903 0.511018 0.027012
C46   C     C_3   0.587865 0.535643 0.071683 -0.263454
C47   C     C_R   0.178072 0.616259 0.505819 0.401917
C48   C     C_R   0.279065 0.476174 0.384828 -0.050080
C49   C     C_R   0.329206 0.473995 0.383176 -0.123953
C50   C     C_R   0.328970 0.537925 0.624289 -0.105913
C51   C     C_3   0.134700 0.870422 0.321541 -0.251946
C52   C     C_3   0.644042 0.804359 0.474845 -0.262004
C53   C     C_3   0.131782 0.128500 0.681461 -0.266643
C54   C     C_3   0.660707 0.251794 0.758662 -0.288980
C55   C     C_R   0.101035 0.278105 0.517104 0.139532
C56   C     C_R   0.127372 0.617446 0.502123 0.043234
C57   C     C_R   0.354606 0.503993 0.503264 0.022988
C58   C     C_R   0.645014 0.500181 0.496347 -0.011196
Cu1   Cu    Cu3+1 0.500000 0.499980 0.640670 1.024464
Cu2   Cu    Cu3+1 0.500000 0.500020 0.359330 0.960766
H1    H     H_    0.347656 0.563695 0.717383 0.159996
H2    H     H_    0.497566 0.878118 0.839434 0.148711
H3    H     H_    0.434512 0.404046 0.139423 0.156901
H4    H     H_    0.595079 0.442216 0.871412 0.170387
H5    H     H_    0.608763 0.611877 0.864309 0.142031
H6    H     H_    0.596080 0.444196 0.119249 0.168889
H7    H     H_    0.609127 0.613997 0.111346 0.145274
H8    H     H_    0.740143 0.337010 0.618267 0.159481
H9    H     H_    0.880176 0.207299 0.391935 0.172682
H10   H     H_    0.966013 0.201598 0.409275 0.108841
H11   H     H_    0.032807 0.190668 0.512723 0.121631
H12   H     H_    0.259812 0.451887 0.292126 0.132419
H13   H     H_    0.348031 0.447685 0.288409 0.140862
H14   H     H_    0.107439 0.916629 0.515105 0.253468
H15   H     H_    0.155881 0.957385 0.310126 0.159190
H16   H     H_    0.100516 0.880996 0.264567 0.119990
H17   H     H_    0.156075 0.795260 0.274335 0.180741
H18   H     H_    0.614629 0.688887 0.330769 0.262000
H19   H     H_    0.621161 0.776092 0.566730 0.129735
H20   H     H_    0.627681 0.886035 0.423742 0.155807
H21   H     H_    0.680473 0.830953 0.510031 0.209022
H22   H     H_    0.149367 0.138327 0.466352 0.301403
H23   H     H_    0.965173 0.799001 0.607889 0.109802
H24   H     H_    0.148518 0.036157 0.687507 0.169640
H25   H     H_    0.097341 0.125240 0.742551 0.137435
H26   H     H_    0.156522 0.196380 0.728334 0.192946
H27   H     H_    0.608402 0.291166 0.610012 0.270398
H28   H     H_    0.632610 0.189537 0.805994 0.163147
H29   H     H_    0.667404 0.328357 0.831234 0.149216
H30   H     H_    0.693971 0.197285 0.744414 0.168853
H31   H     H_    0.878940 0.792267 0.617996 0.171931
H32   H     H_    0.032852 0.813020 0.500038 0.103730
H33   H     H_    0.515339 0.117000 0.275207 0.180019
H34   H     H_    0.516905 0.892392 0.273038 0.154897
H35   H     H_    0.443961 0.860353 0.727067 0.163738
H36   H     H_    0.259301 0.565487 0.719678 0.134555
N1    N     N_R   0.202064 0.507282 0.508343 -0.410116
N2    N     N_R   0.798187 0.501495 0.495605 -0.381143
N3    N     N_R   0.500300 0.500930 0.147930 -0.258564
N4    N     N_R   0.500310 0.500890 0.852020 -0.224937
N5    N     N_2   0.124630 0.844278 0.467888 -0.459289
N6    N     N_2   0.647089 0.704898 0.376809 -0.489958
N7    N     N_2   0.122817 0.161353 0.537425 -0.523717
N8    N     N_2   0.644864 0.299141 0.625217 -0.511172
O1    O     O_R   0.500000 0.319640 0.618810 -0.439492
O2    O     O_R   0.569730 0.499960 0.618810 -0.515814
O3    O     O_R   0.569740 0.500000 0.381220 -0.518013
O4    O     O_2   0.204709 0.292705 0.515145 -0.487847
O5    O     O_2   0.798727 0.303245 0.399061 -0.485204
O6    O     O_2   0.203529 0.722660 0.508294 -0.452200
O7    O     O_2   0.797300 0.695480 0.602280 -0.467618
O8    O     O_R   0.500010 0.319680 0.381230 -0.505190
O9    O     O_R   0.430260 0.500000 0.618780 -0.453336
O10   O     O_R   0.430270 0.500040 0.381190 -0.517812
O11   O     O_R   0.499990 0.680320 0.618770 -0.512045
O12   O     O_R   0.500000 0.680360 0.381190 -0.505046

loop_
_geom_bond_atom_site_label_1
_geom_bond_atom_site_label_2
_ccdc_geom_bond_type
C40   C45   A    
Cu2   N3    S    
Br3   C38   S    
Cu2   O8    S    
C28   O3    A    
C37   C38   S    
H22   N7    S    
C30   C38   S    
C44   H5    S    
C13   N2    A    
C2    C5    A    
C13   O5    S    
C50   H1    S    
Br4   C42   S    
C41   C42   A    
C48   C49   A    
C3    C22   A    
C28   O2    A    
C51   N5    S    
H14   N5    S    
C30   C36   A    
C32   C33   A    
C54   H29   S    
C14   C15   A    
C26   C27   A    
Cu1   O9    S    
C19   N2    S    
C15   C58   A    
C25   C29   A    
Cu2   O10   S    
C30   C31   A    
C5    C9    A    
C41   N3    A    
C49   C57   A    
C31   C32   A    
C8    C13   A    
C41   H3    S    
C37   H35   S    
C32   H33   S    
C51   H17   S    
C39   C43   A    
C10   C27   A    
C17   N6    S    
C4    C57   S    
C15   N8    S    
C12   C23   A    
C44   C46   S    
Br1   C18   S    
C3    C26   A    
C9    C10   A    
C25   N5    S    
C33   H34   S    
C4    O9    A    
C52   H20   S    
C39   N3    A    
C14   H8    S    
C47   O6    S    
C53   H26   S    
C4    O10   A    
C14   C19   A    
C20   C21   A    
C7    H9    S    
C35   C36   A    
C34   C45   A    
C16   C35   S    
C12   H36   S    
Cu2   O3    S    
C21   C22   A    
C42   N4    A    
C23   N1    S    
C55   N7    S    
Cu1   O1    S    
C49   H13   S    
C46   H7    S    
C21   C34   A    
C51   H15   S    
C22   C29   A    
C43   C44   S    
C25   C56   A    
C40   N1    A    
C2    C20   A    
C44   H4    S    
C52   N6    S    
C17   C58   A    
C53   H25   S    
C34   C56   A    
C40   O4    S    
C36   C37   S    
C53   N7    S    
C1    O8    A    
C11   O7    S    
C29   H32   S    
C16   O12   A    
C23   C48   A    
C52   H19   S    
C24   C55   A    
C3    C5    A    
C43   N4    A    
C18   C19   A    
H27   N8    S    
C20   C24   A    
Cu1   N4    S    
C48   H12   S    
C45   C55   A    
C2    C6    A    
C7    C8    A    
C39   C46   S    
C37   H2    S    
C50   C57   A    
C47   N1    A    
Cu2   O12   S    
C53   H24   S    
Cu1   O2    S    
C46   H6    S    
C28   C58   S    
C33   C35   A    
C51   H16   S    
C6    H10   S    
C52   H21   S    
C1    O1    A    
Br2   C38   S    
C27   H31   S    
C1    C31   S    
C54   N8    S    
H18   N6    S    
C11   N2    A    
C54   H30   S    
C12   C50   A    
C6    C7    A    
Cu1   Cu2   S    
C8    C9    A    
Cu1   O11   S    
C10   C11   A    
C47   C56   A    
C26   H23   S    
C17   C18   A    
C24   H11   S    
C54   H28   S    
C16   O11   A    
