data_mof_unit_52014.cif
_audit_creation_date              2012-12-10T17:33:03-0500
_audit_creation_method            fapswitch 2.2
_symmetry_space_group_name_H-M    P1
_symmetry_Int_Tables_number       1
_space_group_crystal_system       triclinic
_cell_length_a                    12.358231
_cell_length_b                    13.23429
_cell_length_c                    14.280932
_cell_angle_alpha                 93.402143
_cell_angle_beta                  107.587805
_cell_angle_gamma                 116.99028
_cell_volume                      1930.19268061

loop_
_atom_site_label
_atom_site_type_symbol
_atom_type_description
_atom_site_fract_x
_atom_site_fract_y
_atom_site_fract_z
_atom_type_partial_charge
C1    C     C_R   0.651198 0.714330 0.509343 0.777845
C2    C     C_R   0.841192 0.488712 0.916881 0.090451
C3    C     C_R   0.786162 0.498027 0.988688 0.165702
C4    C     C_R   0.948158 0.467171 0.944232 0.064310
C5    C     C_R   0.007841 0.468225 0.046645 0.064451
C6    C     C_R   0.948445 0.475524 0.115636 -0.222810
C7    C     C_R   0.839179 0.489353 0.086679 -0.236495
C8    C     C_R   0.995501 0.442028 0.872262 -0.224281
C9    C     C_R   0.103432 0.426266 0.900912 -0.233309
C10   C     C_R   0.169741 0.437272 0.002134 0.168206
C11   C     C_R   0.123761 0.459942 0.076186 0.088620
C12   C     C_R   0.617909 0.516142 0.686567 0.792528
C13   C     C_R   0.282411 0.426520 0.030244 -0.201007
C14   C     C_R   0.351791 0.440353 0.131551 -0.196486
C15   C     C_R   0.198004 0.477463 0.177859 -0.255403
C16   C     C_R   0.129657 0.964681 0.354433 -0.223555
C17   C     C_R   0.246660 0.160653 0.458896 -0.067375
C18   C     C_R   0.735959 0.921835 0.580302 -0.188307
C19   C     C_R   0.828155 0.038728 0.600694 -0.148097
C20   C     C_R   0.926658 0.073122 0.561859 -0.183485
C21   C     C_R   0.931944 0.990590 0.498010 0.092555
C22   C     C_R   0.828461 0.873600 0.467766 0.080179
C23   C     C_R   0.344324 0.284718 0.483364 0.827124
C24   C     C_R   0.035859 0.020303 0.462514 0.075826
C25   C     C_R   0.027863 0.936785 0.389845 0.133643
C26   C     C_R   0.917322 0.826589 0.351868 -0.226641
C27   C     C_R   0.818335 0.795745 0.389323 -0.199403
C28   C     C_R   0.148544 0.130132 0.498344 -0.306697
C29   C     C_R   0.239322 0.076543 0.387856 0.160069
C30   C     C_R   0.736988 0.838031 0.516165 -0.103433
C31   C     C_R   0.253614 0.685005 0.662055 -0.299601
C32   C     C_R   0.655180 0.343461 0.362426 0.060641
C33   C     C_R   0.733001 0.309673 0.331557 -0.260563
C34   C     C_R   0.380764 0.482004 0.313250 0.797814
C35   C     C_R   0.868112 0.368398 0.383201 -0.198996
C36   C     C_R   0.927877 0.462712 0.466888 -0.005428
C37   C     C_R   0.843745 0.494623 0.495561 0.290285
C38   C     C_R   0.067403 0.526736 0.522841 -0.039789
C39   C     C_R   0.118849 0.620815 0.605659 0.176761
C40   C     C_R   0.035841 0.650876 0.631875 -0.285793
C41   C     C_R   0.901967 0.589697 0.578075 -0.197723
C42   C     C_R   0.159352 0.502247 0.500924 0.013652
C43   C     C_R   0.338125 0.656535 0.636723 0.064100
C44   C     C_R   0.678215 0.516782 0.792306 -0.051075
C45   C     C_R   0.310206 0.466810 0.205854 -0.048566
C46   C     C_R   0.677902 0.515411 0.961475 -0.204068
C47   C     C_R   0.623280 0.523498 0.863436 -0.195080
C48   C     C_R   0.788456 0.503235 0.820316 -0.256258
Cu1   Cu    Cu3+1 0.416420 0.526630 0.522910 0.931182
Cu2   Cu    Cu3+1 0.583580 0.473370 0.477090 0.928008
H1    H     H_    0.796569 0.494258 0.141790 0.145507
H2    H     H_    0.317257 0.408075 0.973854 0.130975
H3    H     H_    0.907544 0.763523 0.293272 0.144399
H4    H     H_    0.122606 0.899831 0.299228 0.133511
H5    H     H_    0.162569 0.194867 0.557083 0.156708
H6    H     H_    0.665504 0.896708 0.616854 0.150783
H7    H     H_    0.995105 0.165242 0.581392 0.128888
H8    H     H_    0.825770 0.102850 0.649552 0.143648
H9    H     H_    0.732653 0.710890 0.354096 0.170185
H10   H     H_    0.442053 0.705972 0.680225 0.120341
H11   H     H_    0.172381 0.502867 0.237208 0.152158
H12   H     H_    0.074941 0.723151 0.695011 0.155325
H13   H     H_    0.293471 0.757034 0.725546 0.138474
H14   H     H_    0.128609 0.432087 0.439368 0.122285
H15   H     H_    0.550700 0.297590 0.321296 0.150453
H16   H     H_    0.923412 0.338548 0.355913 0.135762
H17   H     H_    0.688322 0.237643 0.267096 0.149476
H18   H     H_    0.847772 0.620624 0.604060 0.206378
H19   H     H_    0.438431 0.431588 0.151677 0.149271
H20   H     H_    0.634619 0.521417 0.015761 0.129752
H21   H     H_    0.537692 0.533881 0.843176 0.152839
H22   H     H_    0.832621 0.505864 0.765467 0.153557
H23   H     H_    0.981352 0.467039 0.192200 0.143807
H24   H     H_    0.949008 0.430286 0.792274 0.149507
N1    N     N_R   0.290690 0.566960 0.557640 -0.176998
N2    N     N_R   0.709100 0.433710 0.442970 -0.205219
O1    O     O_R   0.545970 0.684450 0.528810 -0.577632
O2    O     O_R   0.687130 0.639470 0.490120 -0.601798
O3    O     O_R   0.519670 0.535100 0.660030 -0.585379
O4    O     O_R   0.660830 0.490120 0.621340 -0.601852
O5    O     O_R   0.312870 0.360530 0.509880 -0.591645
O6    O     O_R   0.454030 0.315550 0.471190 -0.561147
O7    O     O_R   0.339170 0.509880 0.378660 -0.587297
O8    O     O_R   0.480330 0.464900 0.339970 -0.593715
N3    N     N_3   0.339981 0.105696 0.347081 -0.591898
H25   H     H_    0.419887 0.108702 0.402620 0.225441
H26   H     H_    0.309889 0.039964 0.285154 0.207404
H27   H     H_    0.136402 0.407099 0.843408 0.143519

loop_
_geom_bond_atom_site_label_1
_geom_bond_atom_site_label_2
_ccdc_geom_bond_type
C23   O6    A    
C17   C29   A    
C19   C20   A    
C4    C8    A    
Cu2   O8    S    
N3    H25   S    
C33   H17   S    
C42   N1    A    
C17   C23   S    
C31   C43   A    
C36   C37   A    
C5    C11   A    
C3    C7    A    
C9    H27   S    
C5    C6    A    
C12   O3    A    
C40   H12   S    
C18   C19   A    
Cu1   O5    S    
C11   C15   A    
C35   C36   A    
Cu1   O1    S    
C8    C9    A    
Cu1   N1    S    
C18   C30   A    
C41   H18   S    
C23   O5    A    
C9    C10   A    
C29   N3    S    
C44   C47   A    
C18   H6    S    
C21   C22   A    
C1    O2    A    
C34   O8    A    
C48   H22   S    
Cu2   O2    S    
C28   H5    S    
C14   C45   A    
N3    H26   S    
C19   H8    S    
C43   N1    A    
C31   H13   S    
C24   C25   A    
C39   C40   A    
C35   H16   S    
C2    C48   A    
C25   C26   A    
Cu1   O3    S    
C2    C4    A    
Cu2   N2    S    
C13   H2    S    
C8    H24   S    
C15   H11   S    
C34   C45   S    
C47   H21   S    
C43   H10   S    
C40   C41   A    
C37   N2    A    
C22   C27   A    
C26   C27   A    
C14   H19   S    
C34   O7    A    
C15   C45   A    
C26   H3    S    
C42   H14   S    
Cu2   O6    S    
C6    H23   S    
C16   C25   A    
C46   C47   A    
C22   C30   A    
C17   C28   A    
C24   C28   A    
C4    C5    A    
C10   C13   A    
Cu2   O4    S    
C32   N2    A    
C38   C42   A    
C6    C7    A    
C3    C46   A    
C32   C33   A    
Cu1   O7    S    
C36   C38   A    
C2    C3    A    
C16   C29   A    
C7    H1    S    
C12   C44   S    
C27   H9    S    
C38   C39   A    
C12   O4    A    
C1    C30   S    
C33   C35   A    
C31   C39   A    
C37   C41   A    
C16   H4    S    
C46   H20   S    
C10   C11   A    
C20   C21   A    
Cu1   Cu2   S    
C21   C24   A    
C1    O1    A    
C20   H7    S    
C13   C14   A    
C44   C48   A    
C32   H15   S    
