data_mof_unit_61533.cif
_audit_creation_date              2012-12-10T18:38:38-0500
_audit_creation_method            fapswitch 2.2
_symmetry_space_group_name_H-M    P1
_symmetry_Int_Tables_number       1
_space_group_crystal_system       orthorhombic
_cell_length_a                    25.537779
_cell_length_b                    25.537803
_cell_length_c                    43.074285
_cell_angle_alpha                 90.0
_cell_angle_beta                  90.0
_cell_angle_gamma                 90.0
_cell_volume                      28092.1341737

loop_
_atom_site_label
_atom_site_type_symbol
_atom_type_description
_atom_site_fract_x
_atom_site_fract_y
_atom_site_fract_z
_atom_type_partial_charge
C1    C     C_R   1.000000 0.500000 0.665658 0.792560
C2    C     C_R   0.500000 0.000000 0.334342 0.792549
C3    C     C_R   0.000000 0.500000 0.334342 0.792549
C4    C     C_R   0.500000 1.000000 0.665658 0.792560
C5    C     C_R   0.500000 0.000000 0.165658 0.792560
C6    C     C_R   0.000000 0.500000 0.834341 0.792549
C7    C     C_R   0.500000 0.000000 0.834341 0.792549
C8    C     C_R   0.000000 0.500000 0.165658 0.792560
C9    C     C_R   0.952582 0.499960 0.917526 -0.159783
C10   C     C_R   0.499960 0.047418 0.082474 -0.159789
C11   C     C_R   0.047418 0.500040 0.917526 -0.159784
C12   C     C_R   0.500040 0.952582 0.082474 -0.159788
C13   C     C_R   0.047418 0.499960 0.082474 -0.159788
C14   C     C_R   0.500040 0.047418 0.917526 -0.159784
C15   C     C_R   0.952582 0.500040 0.082474 -0.159788
C16   C     C_R   0.499960 0.952582 0.917526 -0.159784
C17   C     C_R   0.452582 0.999960 0.417526 -0.159783
C18   C     C_R   0.999960 0.547418 0.582474 -0.159789
C19   C     C_R   0.547418 0.000040 0.417526 -0.159784
C20   C     C_R   0.000040 0.452582 0.582474 -0.159788
C21   C     C_R   0.547418 0.999960 0.582474 -0.159788
C22   C     C_R   0.000040 0.547418 0.417526 -0.159784
C23   C     C_R   0.452582 0.000040 0.582474 -0.159788
C24   C     C_R   0.999960 0.452582 0.417526 -0.159784
C25   C     C_R   1.000000 0.500000 0.934102 0.080068
C26   C     C_R   0.500000 0.000000 0.065898 0.080078
C27   C     C_R   0.000000 0.500000 0.065898 0.080077
C28   C     C_R   0.500000 0.000000 0.934102 0.080069
C29   C     C_R   0.500000 1.000000 0.434102 0.080068
C30   C     C_R   1.000000 0.500000 0.565898 0.080078
C31   C     C_R   0.500000 1.000000 0.565898 0.080077
C32   C     C_R   1.000000 0.500000 0.434102 0.080069
C33   C     C_R   1.000000 0.500000 0.868603 -0.009374
C34   C     C_R   0.500000 0.000000 0.131397 -0.009363
C35   C     C_R   0.000000 0.500000 0.131397 -0.009364
C36   C     C_R   0.500000 0.000000 0.868603 -0.009372
C37   C     C_R   0.500000 0.000000 0.368603 -0.009374
C38   C     C_R   1.000000 0.500000 0.631397 -0.009363
C39   C     C_R   0.500000 1.000000 0.631397 -0.009364
C40   C     C_R   0.000000 0.500000 0.368603 -0.009372
C41   C     C_R   0.500000 0.000000 0.531553 0.292059
C42   C     C_R   0.000000 0.500000 0.468447 0.292062
C43   C     C_R   0.500000 0.000000 0.468447 0.292062
C44   C     C_R   0.000000 0.500000 0.531553 0.292059
C45   C     C_R   0.000000 0.500000 0.031553 0.292059
C46   C     C_R   0.500000 0.000000 0.968447 0.292062
C47   C     C_R   1.000000 0.500000 0.968447 0.292062
C48   C     C_R   0.500000 0.000000 0.031553 0.292059
C49   C     C_R   0.900370 0.400384 0.750001 0.826226
C50   C     C_R   0.400384 0.099629 0.249999 0.826232
C51   C     C_R   0.099629 0.599616 0.750001 0.826226
C52   C     C_R   0.599616 0.900370 0.249999 0.826232
C53   C     C_R   0.099629 0.400384 0.249999 0.826232
C54   C     C_R   0.599616 0.099629 0.750001 0.826228
C55   C     C_R   0.900370 0.599616 0.249999 0.826232
C56   C     C_R   0.400384 0.900371 0.750001 0.826227
C57   C     C_R   0.400370 0.900384 0.250001 0.826226
C58   C     C_R   0.900384 0.599629 0.749999 0.826232
C59   C     C_R   0.599630 0.099616 0.250001 0.826226
C60   C     C_R   0.099616 0.400371 0.749999 0.826231
C61   C     C_R   0.599630 0.900384 0.749999 0.826232
C62   C     C_R   0.099616 0.599629 0.250001 0.826227
C63   C     C_R   0.400370 0.099616 0.749999 0.826231
C64   C     C_R   0.900384 0.400371 0.250001 0.826227
C65   C     C_3   0.811048 0.768134 0.745525 -0.418469
C66   C     C_3   0.768149 0.188937 0.254376 -0.418405
C67   C     C_3   0.188952 0.231866 0.745525 -0.418470
C68   C     C_3   0.231851 0.811063 0.254376 -0.418406
C69   C     C_3   0.188937 0.768148 0.254379 -0.418464
C70   C     C_3   0.231866 0.188952 0.745527 -0.418418
C71   C     C_3   0.811063 0.231852 0.254379 -0.418464
C72   C     C_3   0.768134 0.811048 0.745527 -0.418421
C73   C     C_3   0.311048 0.268134 0.245525 -0.418469
C74   C     C_3   0.268149 0.688937 0.754376 -0.418405
C75   C     C_3   0.688952 0.731866 0.245525 -0.418471
C76   C     C_3   0.731851 0.311063 0.754376 -0.418406
C77   C     C_3   0.688937 0.268148 0.754379 -0.418464
C78   C     C_3   0.731866 0.688952 0.245527 -0.418419
C79   C     C_3   0.311063 0.731852 0.754379 -0.418464
C80   C     C_3   0.268134 0.311048 0.245527 -0.418421
C81   C     C_3   0.755871 0.712827 0.780596 -0.479044
C82   C     C_3   0.712719 0.244238 0.219443 -0.479099
C83   C     C_3   0.244129 0.287173 0.780596 -0.479044
C84   C     C_3   0.287281 0.755762 0.219443 -0.479097
C85   C     C_3   0.244235 0.712721 0.219442 -0.479040
C86   C     C_3   0.287175 0.244132 0.780595 -0.479092
C87   C     C_3   0.755765 0.287278 0.219442 -0.479040
C88   C     C_3   0.712824 0.755868 0.780595 -0.479093
C89   C     C_3   0.255871 0.212827 0.280596 -0.479044
C90   C     C_3   0.212719 0.744238 0.719443 -0.479099
C91   C     C_3   0.744129 0.787173 0.280596 -0.479044
C92   C     C_3   0.787281 0.255762 0.719443 -0.479098
C93   C     C_3   0.744235 0.212721 0.719441 -0.479040
C94   C     C_3   0.787175 0.744132 0.280595 -0.479092
C95   C     C_3   0.255765 0.787278 0.719441 -0.479040
C96   C     C_3   0.212824 0.255868 0.280595 -0.479093
C97   C     C_1   0.639177 0.860629 0.749871 -0.129738
C98   C     C_1   0.860629 0.360823 0.250129 -0.129729
C99   C     C_1   0.360823 0.139370 0.749871 -0.129738
C100  C     C_1   0.139371 0.639177 0.250129 -0.129729
C101  C     C_1   0.360823 0.860630 0.250129 -0.129732
C102  C     C_1   0.139371 0.360823 0.749871 -0.129735
C103  C     C_1   0.639177 0.139370 0.250129 -0.129732
C104  C     C_1   0.860629 0.639177 0.749871 -0.129735
C105  C     C_1   0.139177 0.360629 0.249871 -0.129738
C106  C     C_1   0.360629 0.860823 0.750129 -0.129729
C107  C     C_1   0.860823 0.639370 0.249871 -0.129737
C108  C     C_1   0.639371 0.139177 0.750129 -0.129729
C109  C     C_1   0.860823 0.360630 0.750129 -0.129732
C110  C     C_1   0.639371 0.860823 0.249871 -0.129734
C111  C     C_1   0.139177 0.639370 0.750129 -0.129732
C112  C     C_1   0.360629 0.139176 0.249871 -0.129735
C113  C     C_3   0.786230 0.712966 0.749338 0.190234
C114  C     C_3   0.712969 0.213767 0.250662 0.190252
C115  C     C_3   0.213770 0.287034 0.749338 0.190233
C116  C     C_3   0.287031 0.786233 0.250662 0.190252
C117  C     C_3   0.213768 0.712968 0.250662 0.190223
C118  C     C_3   0.287033 0.213769 0.749338 0.190256
C119  C     C_3   0.786232 0.287032 0.250662 0.190224
C120  C     C_3   0.712967 0.786231 0.749338 0.190256
C121  C     C_3   0.286230 0.212966 0.249338 0.190234
C122  C     C_3   0.212968 0.713767 0.750662 0.190252
C123  C     C_3   0.713770 0.787034 0.249338 0.190233
C124  C     C_3   0.787031 0.286233 0.750662 0.190252
C125  C     C_3   0.713768 0.212968 0.750662 0.190223
C126  C     C_3   0.787033 0.713769 0.249338 0.190256
C127  C     C_3   0.286232 0.787032 0.750662 0.190224
C128  C     C_3   0.212967 0.286231 0.249338 0.190256
C129  C     C_3   0.702400 0.745763 0.722822 0.254961
C130  C     C_3   0.745851 0.297510 0.277237 0.254888
C131  C     C_3   0.297599 0.254237 0.722822 0.254960
C132  C     C_3   0.254149 0.702490 0.277237 0.254887
C133  C     C_3   0.297506 0.745856 0.277240 0.254965
C134  C     C_3   0.254242 0.297603 0.722824 0.254895
C135  C     C_3   0.702494 0.254144 0.277240 0.254965
C136  C     C_3   0.745758 0.702397 0.722824 0.254895
C137  C     C_3   0.202401 0.245763 0.222822 0.254961
C138  C     C_3   0.245851 0.797510 0.777237 0.254888
C139  C     C_3   0.797599 0.754237 0.222822 0.254960
C140  C     C_3   0.754149 0.202490 0.777237 0.254887
C141  C     C_3   0.797506 0.245856 0.777240 0.254965
C142  C     C_3   0.754242 0.797603 0.222825 0.254895
C143  C     C_3   0.202494 0.754144 0.777240 0.254966
C144  C     C_3   0.245758 0.202397 0.222825 0.254895
C145  C     C_1   0.672401 0.827165 0.749681 -0.031825
C146  C     C_1   0.827165 0.327599 0.250319 -0.031842
C147  C     C_1   0.327599 0.172835 0.749681 -0.031825
C148  C     C_1   0.172835 0.672401 0.250319 -0.031842
C149  C     C_1   0.327598 0.827166 0.250319 -0.031820
C150  C     C_1   0.172836 0.327600 0.749681 -0.031845
C151  C     C_1   0.672402 0.172834 0.250319 -0.031820
C152  C     C_1   0.827164 0.672400 0.749681 -0.031845
C153  C     C_1   0.172401 0.327165 0.249681 -0.031825
C154  C     C_1   0.327165 0.827599 0.750319 -0.031842
C155  C     C_1   0.827599 0.672835 0.249681 -0.031825
C156  C     C_1   0.672835 0.172401 0.750319 -0.031842
C157  C     C_1   0.827598 0.327166 0.750319 -0.031819
C158  C     C_1   0.672836 0.827600 0.249681 -0.031845
C159  C     C_1   0.172402 0.672834 0.750319 -0.031820
C160  C     C_1   0.327164 0.172400 0.249681 -0.031845
C161  C     C_R   0.952592 0.499959 0.885120 -0.183297
C162  C     C_R   0.499959 0.047408 0.114880 -0.183308
C163  C     C_R   0.047408 0.500041 0.885120 -0.183297
C164  C     C_R   0.500041 0.952592 0.114880 -0.183308
C165  C     C_R   0.047408 0.499959 0.114880 -0.183307
C166  C     C_R   0.500041 0.047408 0.885120 -0.183299
C167  C     C_R   0.952592 0.500041 0.114880 -0.183306
C168  C     C_R   0.499959 0.952592 0.885120 -0.183299
C169  C     C_R   0.452592 0.999959 0.385120 -0.183297
C170  C     C_R   0.999959 0.547408 0.614880 -0.183308
C171  C     C_R   0.547408 0.000041 0.385120 -0.183297
C172  C     C_R   0.000041 0.452592 0.614880 -0.183308
C173  C     C_R   0.547408 0.999959 0.614880 -0.183307
C174  C     C_R   0.000041 0.547408 0.385120 -0.183299
C175  C     C_R   0.452592 0.000041 0.614880 -0.183306
C176  C     C_R   0.999959 0.452592 0.385120 -0.183299
H1    H     H_    0.775598 0.838613 0.765058 0.188958
H2    H     H_    0.838566 0.224455 0.234809 0.188981
H3    H     H_    0.224402 0.161387 0.765058 0.188957
H4    H     H_    0.161434 0.775544 0.234809 0.188981
H5    H     H_    0.224454 0.838560 0.234803 0.188972
H6    H     H_    0.161382 0.224403 0.765053 0.188965
H7    H     H_    0.775546 0.161440 0.234803 0.188971
H8    H     H_    0.838618 0.775597 0.765053 0.188965
H9    H     H_    0.275598 0.338613 0.265058 0.188958
H10   H     H_    0.338566 0.724455 0.734808 0.188981
H11   H     H_    0.724402 0.661387 0.265058 0.188958
H12   H     H_    0.661434 0.275545 0.734808 0.188981
H13   H     H_    0.724454 0.338560 0.734803 0.188972
H14   H     H_    0.661382 0.724403 0.265053 0.188965
H15   H     H_    0.275546 0.661440 0.734803 0.188971
H16   H     H_    0.338618 0.275597 0.265053 0.188965
H17   H     H_    0.737484 0.673869 0.784521 0.174296
H18   H     H_    0.673749 0.262643 0.215591 0.174282
H19   H     H_    0.262516 0.326131 0.784521 0.174296
H20   H     H_    0.326251 0.737357 0.215591 0.174281
H21   H     H_    0.262635 0.673750 0.215585 0.174285
H22   H     H_    0.326132 0.262523 0.784517 0.174293
H23   H     H_    0.737365 0.326250 0.215585 0.174285
H24   H     H_    0.673868 0.737477 0.784517 0.174293
H25   H     H_    0.237484 0.173869 0.284521 0.174296
H26   H     H_    0.173749 0.762643 0.715591 0.174282
H27   H     H_    0.762516 0.826131 0.284521 0.174296
H28   H     H_    0.826251 0.237357 0.715591 0.174281
H29   H     H_    0.762635 0.173750 0.715585 0.174285
H30   H     H_    0.826132 0.762523 0.284517 0.174293
H31   H     H_    0.237365 0.826250 0.715585 0.174285
H32   H     H_    0.173868 0.237477 0.284517 0.174293
H33   H     H_    0.783361 0.719821 0.800219 0.205132
H34   H     H_    0.719637 0.216816 0.199776 0.205142
H35   H     H_    0.216639 0.280179 0.800219 0.205132
H36   H     H_    0.280363 0.783183 0.199776 0.205141
H37   H     H_    0.216812 0.719649 0.199777 0.205140
H38   H     H_    0.280188 0.216643 0.800220 0.205133
H39   H     H_    0.783188 0.280351 0.199777 0.205140
H40   H     H_    0.719812 0.783357 0.800220 0.205133
H41   H     H_    0.283360 0.219821 0.300219 0.205132
H42   H     H_    0.219637 0.716817 0.699776 0.205142
H43   H     H_    0.716639 0.780179 0.300219 0.205132
H44   H     H_    0.780363 0.283183 0.699776 0.205141
H45   H     H_    0.716812 0.219649 0.699777 0.205140
H46   H     H_    0.780188 0.716643 0.300220 0.205133
H47   H     H_    0.283187 0.780351 0.699777 0.205140
H48   H     H_    0.219812 0.283357 0.300220 0.205133
H49   H     H_    0.726123 0.664506 0.728167 0.107961
H50   H     H_    0.664578 0.273789 0.271975 0.107936
H51   H     H_    0.273877 0.335494 0.728166 0.107961
H52   H     H_    0.335422 0.726211 0.271975 0.107936
H53   H     H_    0.273803 0.664581 0.271964 0.107951
H54   H     H_    0.335497 0.273865 0.728158 0.107949
H55   H     H_    0.726197 0.335419 0.271964 0.107951
H56   H     H_    0.664503 0.726134 0.728158 0.107948
H57   H     H_    0.226123 0.164506 0.228166 0.107961
H58   H     H_    0.164578 0.773789 0.771975 0.107936
H59   H     H_    0.773877 0.835494 0.228166 0.107961
H60   H     H_    0.835422 0.226211 0.771975 0.107936
H61   H     H_    0.773803 0.164581 0.771965 0.107951
H62   H     H_    0.835497 0.773865 0.228158 0.107949
H63   H     H_    0.226197 0.835419 0.771965 0.107951
H64   H     H_    0.164503 0.226134 0.228158 0.107948
H65   H     H_    0.834756 0.770772 0.723972 0.168519
H66   H     H_    0.770861 0.165148 0.275895 0.168553
H67   H     H_    0.165244 0.229228 0.723972 0.168519
H68   H     H_    0.229139 0.834852 0.275895 0.168553
H69   H     H_    0.165155 0.770861 0.275900 0.168521
H70   H     H_    0.229228 0.165238 0.723976 0.168545
H71   H     H_    0.834844 0.229139 0.275900 0.168521
H72   H     H_    0.770772 0.834762 0.723976 0.168546
H73   H     H_    0.334756 0.270772 0.223972 0.168519
H74   H     H_    0.270861 0.665148 0.775895 0.168553
H75   H     H_    0.665244 0.729228 0.223972 0.168519
H76   H     H_    0.729139 0.334852 0.775895 0.168553
H77   H     H_    0.665155 0.270861 0.775900 0.168521
H78   H     H_    0.729228 0.665238 0.223976 0.168546
H79   H     H_    0.334844 0.729139 0.775900 0.168521
H80   H     H_    0.270772 0.334762 0.223976 0.168546
H81   H     H_    0.915424 0.499927 0.873013 0.163678
H82   H     H_    0.499926 0.084576 0.126987 0.163663
H83   H     H_    0.084576 0.500073 0.873013 0.163677
H84   H     H_    0.500074 0.915424 0.126987 0.163663
H85   H     H_    0.084576 0.499926 0.126987 0.163665
H86   H     H_    0.500073 0.084576 0.873013 0.163675
H87   H     H_    0.915424 0.500074 0.126987 0.163665
H88   H     H_    0.499927 0.915424 0.873013 0.163675
H89   H     H_    0.415424 0.999927 0.373013 0.163678
H90   H     H_    0.999926 0.584576 0.626987 0.163663
H91   H     H_    0.584576 0.000073 0.373013 0.163677
H92   H     H_    0.000074 0.415424 0.626987 0.163663
H93   H     H_    0.584576 0.999926 0.626987 0.163665
H94   H     H_    0.000073 0.584576 0.373013 0.163675
H95   H     H_    0.415424 0.000074 0.626987 0.163665
H96   H     H_    0.999927 0.415424 0.373013 0.163675
H97   H     H_    0.915350 0.499927 0.929549 0.153176
H98   H     H_    0.499927 0.084650 0.070451 0.153169
H99   H     H_    0.084650 0.500073 0.929549 0.153176
H100  H     H_    0.500073 0.915350 0.070451 0.153169
H101  H     H_    0.084650 0.499927 0.070451 0.153170
H102  H     H_    0.500073 0.084650 0.929549 0.153175
H103  H     H_    0.915350 0.500073 0.070451 0.153170
H104  H     H_    0.499927 0.915350 0.929549 0.153175
H105  H     H_    0.415350 0.999927 0.429549 0.153176
H106  H     H_    0.999927 0.584650 0.570451 0.153169
H107  H     H_    0.584650 0.000073 0.429549 0.153176
H108  H     H_    0.000073 0.415349 0.570451 0.153169
H109  H     H_    0.584650 0.999927 0.570451 0.153170
H110  H     H_    0.000073 0.584650 0.429549 0.153175
H111  H     H_    0.415350 0.000073 0.570451 0.153170
H112  H     H_    0.999927 0.415350 0.429549 0.153175
N1    N     N_R   0.045712 0.500000 0.984549 -0.174815
N2    N     N_R   0.500000 0.954288 0.015451 -0.174817
N3    N     N_R   0.954288 0.500000 0.984549 -0.174815
N4    N     N_R   0.500000 0.045712 0.015451 -0.174817
N5    N     N_R   0.954288 0.500000 0.015451 -0.174816
N6    N     N_R   0.500000 0.954288 0.984549 -0.174815
N7    N     N_R   0.045712 0.499999 0.015451 -0.174816
N8    N     N_R   0.500000 0.045712 0.984549 -0.174815
N9    N     N_R   0.545712 1.000000 0.484549 -0.174815
N10   N     N_R   0.000000 0.454288 0.515451 -0.174817
N11   N     N_R   0.454288 0.000000 0.484549 -0.174815
N12   N     N_R   1.000000 0.545712 0.515451 -0.174817
N13   N     N_R   0.454288 0.000000 0.515451 -0.174816
N14   N     N_R   1.000000 0.454288 0.484549 -0.174815
N15   N     N_R   0.545712 1.000000 0.515451 -0.174816
N16   N     N_R   1.000000 0.545712 0.484549 -0.174815
O1    O     O_3   1.000000 0.500000 0.750000 -0.478169
O2    O     O_3   0.500000 0.000000 0.250000 -0.478169
O3    O     O_3   1.000000 0.500000 0.250000 -0.478169
O4    O     O_3   0.500000 0.000000 0.750000 -0.478169
O5    O     O_R   0.999970 0.543000 0.680690 -0.643355
O6    O     O_R   0.543000 0.000030 0.319310 -0.643353
O7    O     O_R   0.000030 0.457000 0.680690 -0.643355
O8    O     O_R   0.457000 0.999970 0.319310 -0.643353
O9    O     O_R   0.000030 0.543000 0.319310 -0.643353
O10   O     O_R   0.457000 0.000030 0.680690 -0.643355
O11   O     O_R   0.999970 0.457000 0.319310 -0.643354
O12   O     O_R   0.543000 0.999970 0.680690 -0.643355
O13   O     O_R   0.499970 0.043000 0.180690 -0.643355
O14   O     O_R   0.043000 0.500030 0.819310 -0.643353
O15   O     O_R   0.500030 0.957000 0.180690 -0.643355
O16   O     O_R   0.957000 0.499970 0.819310 -0.643353
O17   O     O_R   0.500030 0.043000 0.819310 -0.643353
O18   O     O_R   0.957000 0.500030 0.180690 -0.643355
O19   O     O_R   0.499970 0.957000 0.819310 -0.643354
O20   O     O_R   0.043000 0.499970 0.180690 -0.643354
O21   O     O_R   0.939500 0.396500 0.731830 -0.640129
O22   O     O_R   0.396500 0.060500 0.268170 -0.640105
O23   O     O_R   0.060500 0.603500 0.731830 -0.640129
O24   O     O_R   0.603500 0.939500 0.268170 -0.640105
O25   O     O_R   0.060500 0.396500 0.268170 -0.640108
O26   O     O_R   0.603500 0.060500 0.731830 -0.640126
O27   O     O_R   0.939500 0.603500 0.268170 -0.640108
O28   O     O_R   0.396500 0.939500 0.731830 -0.640125
O29   O     O_R   0.439500 0.896500 0.231830 -0.640129
O30   O     O_R   0.896500 0.560500 0.768170 -0.640105
O31   O     O_R   0.560500 0.103500 0.231830 -0.640129
O32   O     O_R   0.103500 0.439500 0.768170 -0.640105
O33   O     O_R   0.560500 0.896500 0.768170 -0.640108
O34   O     O_R   0.103500 0.560500 0.231830 -0.640125
O35   O     O_R   0.439500 0.103500 0.768170 -0.640108
O36   O     O_R   0.896500 0.439500 0.231830 -0.640125
O37   O     O_R   0.103450 0.560480 0.768170 -0.632085
O38   O     O_R   0.560480 0.896550 0.231830 -0.632125
O39   O     O_R   0.896550 0.439520 0.768170 -0.632085
O40   O     O_R   0.439520 0.103450 0.231830 -0.632125
O41   O     O_R   0.896550 0.560480 0.231830 -0.632119
O42   O     O_R   0.439520 0.896550 0.768170 -0.632092
O43   O     O_R   0.103450 0.439520 0.231830 -0.632119
O44   O     O_R   0.560480 0.103450 0.768170 -0.632092
O45   O     O_R   0.603450 0.060480 0.268170 -0.632085
O46   O     O_R   0.060480 0.396550 0.731830 -0.632125
O47   O     O_R   0.396550 0.939520 0.268170 -0.632085
O48   O     O_R   0.939520 0.603450 0.731830 -0.632125
O49   O     O_R   0.396550 0.060480 0.731830 -0.632119
O50   O     O_R   0.939520 0.396550 0.268170 -0.632092
O51   O     O_R   0.603450 0.939520 0.731830 -0.632119
O52   O     O_R   0.060480 0.603450 0.268170 -0.632092
Zn1   Zn    Zn3+2 0.938580 0.499980 0.775960 0.981526
Zn2   Zn    Zn3+2 0.499980 0.061420 0.224040 0.981493
Zn3   Zn    Zn3+2 0.061420 0.500020 0.775960 0.981526
Zn4   Zn    Zn3+2 0.500020 0.938580 0.224040 0.981493
Zn5   Zn    Zn3+2 0.061420 0.499980 0.224040 0.981499
Zn6   Zn    Zn3+2 0.500020 0.061420 0.775960 0.981520
Zn7   Zn    Zn3+2 0.938580 0.500020 0.224040 0.981499
Zn8   Zn    Zn3+2 0.499980 0.938580 0.775960 0.981520
Zn9   Zn    Zn3+2 0.438580 0.999980 0.275960 0.981526
Zn10  Zn    Zn3+2 0.999980 0.561420 0.724040 0.981493
Zn11  Zn    Zn3+2 0.561420 0.000020 0.275960 0.981526
Zn12  Zn    Zn3+2 0.000020 0.438580 0.724040 0.981493
Zn13  Zn    Zn3+2 0.561420 0.999980 0.724040 0.981499
Zn14  Zn    Zn3+2 0.000020 0.561420 0.275960 0.981520
Zn15  Zn    Zn3+2 0.438580 0.000020 0.724040 0.981499
Zn16  Zn    Zn3+2 0.999980 0.438580 0.275960 0.981520
O53   O     O_3   0.769480 0.695686 0.693545 -0.720023
H113  H     H_    0.789927 0.727487 0.688563 0.339811
O54   O     O_3   0.695903 0.230314 0.306499 -0.720003
H114  H     H_    0.727743 0.209886 0.311420 0.339838
O55   O     O_3   0.230520 0.304314 0.693545 -0.720022
H115  H     H_    0.210073 0.272513 0.688563 0.339811
O56   O     O_3   0.304097 0.769686 0.306499 -0.720003
H116  H     H_    0.272257 0.790114 0.311420 0.339838
O57   O     O_3   0.230327 0.695878 0.306496 -0.720016
H117  H     H_    0.209860 0.727694 0.311415 0.339810
O58   O     O_3   0.304293 0.230509 0.693543 -0.720012
H118  H     H_    0.272472 0.210095 0.688558 0.339834
O59   O     O_3   0.769673 0.304122 0.306496 -0.720016
H119  H     H_    0.790140 0.272306 0.311415 0.339810
O60   O     O_3   0.695707 0.769491 0.693543 -0.720012
H120  H     H_    0.727527 0.789905 0.688558 0.339834
O61   O     O_3   0.269480 0.195686 0.193545 -0.720023
H121  H     H_    0.289927 0.227487 0.188563 0.339811
O62   O     O_3   0.195903 0.730314 0.806499 -0.720002
H122  H     H_    0.227743 0.709886 0.811420 0.339837
O63   O     O_3   0.730520 0.804314 0.193545 -0.720022
H123  H     H_    0.710073 0.772513 0.188563 0.339811
O64   O     O_3   0.804097 0.269686 0.806499 -0.720003
H124  H     H_    0.772257 0.290114 0.811420 0.339838
O65   O     O_3   0.730327 0.195878 0.806496 -0.720016
H125  H     H_    0.709860 0.227694 0.811415 0.339810
O66   O     O_3   0.804293 0.730509 0.193543 -0.720012
H126  H     H_    0.772472 0.710095 0.188558 0.339834
O67   O     O_3   0.269673 0.804122 0.806496 -0.720016
H127  H     H_    0.290140 0.772306 0.811415 0.339810
O68   O     O_3   0.195707 0.269491 0.193543 -0.720012
H128  H     H_    0.227528 0.289905 0.188558 0.339834

loop_
_geom_bond_atom_site_label_1
_geom_bond_atom_site_label_2
_ccdc_geom_bond_type
C81   H33   S    
O2    Zn4   S    
C135  H50   S    
O7    Zn12  S    
C71   H71   S    
C66   H7    S    
C47   N3    A    
C4    O12   A    
C41   N15   A    
C5    O13   A    
C90   C95   S    
C5    O15   A    
C144  H57   S    
C132  O57   S    
C138  C143  S    
C139  C142  S    
O19   Zn8   S    
C96   H32   S    
C82   C87   S    
C36   C168  A    
O28   Zn15  S    
N10   N14   A    
C117  C132  S    
C58   O48   A    
C118  C131  S    
C22   H110  S    
C74   H74   S    
O11   Zn16  S    
C171  H91   S    
C80   H80   S    
C14   H102  S    
C43   N9    A    
C63   O49   A    
C45   N7    A    
C65   C113  S    
C18   C170  A    
O16   Zn1   S    
C58   O30   A    
C7    O19   A    
C75   H14   S    
C140  C141  S    
C116  C133  S    
O2    Zn9   S    
C8    C35   S    
C23   C31   A    
C33   C161  A    
C24   C32   A    
C8    O18   A    
C67   H6    S    
O50   Zn16  S    
C52   C110  S    
O52   Zn14  S    
C85   C117  S    
C56   C106  S    
C68   C116  S    
C131  H54   S    
C69   H69   S    
C20   C172  A    
O2    Zn2   S    
C21   C173  A    
C74   C79   S    
C2    O8    A    
O57   H117  S    
C44   N10   A    
O58   H118  S    
C24   C176  A    
C135  O54   S    
O17   Zn6   S    
C77   C125  S    
C143  H58   S    
O14   Zn3   S    
C6    O16   A    
C79   C127  S    
C112  C160  T    
C97   C145  T    
O54   H114  S    
O9    Zn14  S    
C115  C134  S    
C71   C119  S    
C19   H107  S    
O63   H123  S    
C6    C33   S    
C50   O40   A    
C134  H51   S    
C72   H72   S    
C89   C96   S    
C64   O50   A    
C62   O34   A    
C99   C147  T    
C172  H92   S    
C91   C94   S    
C173  H93   S    
C104  C152  T    
C61   O51   A    
C141  O64   S    
O21   Zn12  S    
C166  H86   S    
C47   N1    A    
C83   H19   S    
C81   C88   S    
C81   H17   S    
C57   O29   A    
C83   C86   S    
C162  H82   S    
C16   H104  S    
O29   Zn4   S    
C107  C155  T    
C63   O35   A    
C90   H26   S    
O5    Zn10  S    
C105  C153  T    
C7    O17   A    
C94   H30   S    
C109  C157  T    
C132  H53   S    
C119  C130  S    
O67   H127  S    
C20   C30   A    
C119  C146  S    
C21   C31   A    
C28   C46   S    
N1    N7    A    
C22   C32   A    
C117  C148  S    
C62   O52   A    
C144  O61   S    
C9    H97   S    
C118  C147  S    
N3    N5    A    
C8    O20   A    
C34   C164  A    
C69   H4    S    
C37   C169  A    
C70   H3    S    
C11   C25   A    
O66   H126  S    
C163  H83   S    
O34   Zn5   S    
C63   C99   S    
C137  O68   S    
C53   O25   A    
C44   N12   A    
O31   Zn2   S    
O49   Zn15  S    
O3    Zn5   S    
C6    O14   A    
O33   Zn8   S    
O4    Zn6   S    
C84   C116  S    
C91   C123  S    
C121  C144  S    
C15   C167  A    
O12   Zn13  S    
C46   N8    A    
C122  C143  S    
C60   C102  S    
C127  C154  S    
C36   C166  A    
C116  C149  S    
C73   H73   S    
C125  C140  S    
C126  C139  S    
O32   Zn3   S    
C120  C129  S    
C76   C124  S    
C83   C115  S    
N4    N8    A    
C77   H77   S    
C39   C175  A    
C40   C176  A    
C80   C128  S    
C65   H65   S    
C95   H47   S    
C12   C26   A    
C3    O11   A    
C51   O37   A    
C86   H38   S    
C87   C119  S    
C56   O28   A    
O22   Zn9   S    
C72   C120  S    
C11   C163  A    
C138  H63   S    
O27   Zn14  S    
C167  H87   S    
C9    C161  A    
C168  H88   S    
C142  H59   S    
C137  C144  S    
C136  O53   S    
C66   H66   S    
C76   H76   S    
O10   Zn15  S    
C124  C141  S    
C58   C104  S    
C138  O67   S    
C87   H39   S    
C31   C41   S    
N2    N6    A    
O15   Zn4   S    
C34   C162  A    
C110  C158  T    
C37   C171  A    
O40   Zn2   S    
C38   C172  A    
C103  C151  T    
C65   C72   S    
C57   C101  S    
C169  H89   S    
C54   C108  S    
C67   C70   S    
C59   C103  S    
C15   H103  S    
O13   Zn2   S    
O65   H125  S    
C51   O23   A    
C84   H20   S    
C52   O38   A    
C140  H61   S    
C90   H42   S    
C73   H16   S    
C143  O62   S    
C74   H15   S    
C53   C105  S    
C140  O65   S    
O4    Zn8   S    
C10   C162  A    
C94   H46   S    
C77   H12   S    
C78   H11   S    
C46   N6    A    
C82   H34   S    
C65   H8    S    
C136  H49   S    
C24   H112  S    
C52   O24   A    
C79   H10   S    
C17   C29   A    
C7    C36   S    
O43   Zn5   S    
C130  C135  S    
C87   H23   S    
O18   Zn7   S    
C39   C173  A    
C131  C134  S    
C9    C25   A    
O56   H116  S    
C174  H94   S    
O4    Zn13  S    
O46   Zn12  S    
C129  H56   S    
O25   Zn16  S    
C3    O9    A    
C71   H2    S    
C92   C124  S    
C23   C175  A    
C161  H81   S    
C96   C128  S    
C111  C159  T    
C134  O55   S    
O39   Zn1   S    
C68   C69   S    
C106  C154  T    
C121  C160  S    
C122  C159  S    
C127  C138  S    
C88   C120  S    
C25   C47   S    
C92   H28   S    
C125  C156  S    
C26   C48   S    
C17   H105  S    
C126  C155  S    
C27   C45   S    
C64   C98   S    
C50   O22   A    
O38   Zn4   S    
C120  C145  S    
C29   C43   S    
C139  H62   S    
C113  C152  S    
C30   C44   S    
C114  C151  S    
C10   H98   S    
C75   H75   S    
C38   C170  A    
C95   H31   S    
C131  O58   S    
C68   H5    S    
C84   C85   S    
C57   O47   A    
C67   H67   S    
C100  C148  T    
C129  O60   S    
O51   Zn13  S    
C48   N4    A    
C12   C164  A    
C49   O39   A    
C13   C165  A    
C66   C71   S    
C108  C156  T    
C124  C157  S    
N9    N15   A    
C86   C118  S    
C128  C153  S    
C70   H70   S    
C62   C100  S    
O44   Zn6   S    
C74   C122  S    
C3    C40   S    
O47   Zn9   S    
C19   C29   A    
O8    Zn9   S    
O59   H119  S    
O4    Zn15  S    
C1    O5    A    
C64   O36   A    
C66   C114  S    
C33   C163  A    
C54   O26   A    
C139  O66   S    
C61   C97   S    
C53   O43   A    
O64   H124  S    
C84   H36   S    
O3    Zn16  S    
C88   H24   S    
O42   Zn8   S    
C49   O21   A    
C89   C121  S    
C123  C142  S    
C56   O42   A    
C92   C93   S    
C93   C125  S    
C82   H18   S    
C95   C127  S    
C70   C118  S    
C130  O59   S    
O3    Zn7   S    
C81   C113  S    
C32   C42   S    
C20   H108  S    
C21   H109  S    
C91   H27   S    
N12   N16   A    
O1    Zn10  S    
C23   H111  S    
C16   C28   A    
C89   H25   S    
C54   O44   A    
C170  H90   S    
C133  O56   S    
O68   H128  S    
C133  H52   S    
C93   H29   S    
C12   H100  S    
C13   H101  S    
O62   H122  S    
C42   N16   A    
C75   C123  S    
C68   H68   S    
C19   C171  A    
O1    Zn1   S    
C17   C169  A    
O23   Zn10  S    
O36   Zn7   S    
C101  C149  T    
C92   H44   S    
C67   C115  S    
C60   O32   A    
C76   H13   S    
C15   C27   A    
C132  C133  S    
C96   H48   S    
C113  C136  S    
C35   C167  A    
C114  C135  S    
C18   C30   A    
C142  O63   S    
C10   C26   A    
C1    O7    A    
O24   Zn11  S    
C61   O33   A    
C90   C122  S    
C72   H1    S    
C22   C174  A    
C94   C126  S    
O3    Zn14  S    
C78   H78   S    
C48   N2    A    
C76   C77   S    
C82   C114  S    
C4    O10   A    
C41   N13   A    
C98   C146  T    
O26   Zn13  S    
O48   Zn10  S    
C55   C107  S    
C60   O46   A    
C128  C137  S    
C85   H37   S    
C129  C136  S    
C18   H106  S    
C4    C39   S    
C80   H9    S    
C5    C34   S    
O41   Zn7   S    
C50   C112  S    
O37   Zn3   S    
C102  C150  T    
N11   N13   A    
C11   H99   S    
O55   H115  S    
O1    Zn12  S    
C1    C38   S    
O45   Zn11  S    
C164  H84   S    
C165  H85   S    
C14   C166  A    
O20   Zn5   S    
C175  H95   S    
C176  H96   S    
C49   C109  S    
C42   N14   A    
C85   H21   S    
C43   N11   A    
C51   C111  S    
C88   H40   S    
C45   N5    A    
O30   Zn1   S    
O1    Zn3   S    
C123  C158  S    
C73   C121  S    
O35   Zn6   S    
C55   O27   A    
C137  H64   S    
O53   H113  S    
C2    C37   S    
O61   H121  S    
C130  H55   S    
C16   C168  A    
C141  H60   S    
C115  C150  S    
C69   C117  S    
O2    Zn11  S    
C35   C165  A    
C73   C80   S    
O6    Zn11  S    
C86   H22   S    
C91   H43   S    
C75   C78   S    
C89   H41   S    
C59   O45   A    
C55   O41   A    
C40   C174  A    
C2    O6    A    
C59   O31   A    
C79   H79   S    
C13   C27   A    
C93   H45   S    
C14   C28   A    
C83   H35   S    
O60   H120  S    
C78   C126  S    
