data_mof_unit_34290.cif
_audit_creation_date              2012-12-10T17:09:21-0500
_audit_creation_method            fapswitch 2.2
_symmetry_space_group_name_H-M    P1
_symmetry_Int_Tables_number       1
_space_group_crystal_system       triclinic
_cell_length_a                    17.510137
_cell_length_b                    19.686923
_cell_length_c                    11.910178
_cell_angle_alpha                 89.993712
_cell_angle_beta                  75.568011
_cell_angle_gamma                 90.003522
_cell_volume                      3976.12675169

loop_
_atom_site_label
_atom_site_type_symbol
_atom_type_description
_atom_site_fract_x
_atom_site_fract_y
_atom_site_fract_z
_atom_type_partial_charge
C1    C     C_R   0.401817 0.102103 0.521772 0.818500
C2    C     C_R   0.598167 0.897888 0.478233 0.818471
C3    C     C_R   0.598182 0.102104 0.478227 0.818677
C4    C     C_R   0.401839 0.897881 0.521774 0.818615
C5    C     C_R   0.901813 0.602102 0.521772 0.818461
C6    C     C_R   0.098180 0.397895 0.478229 0.818428
C7    C     C_R   0.098189 0.602101 0.478220 0.818615
C8    C     C_R   0.901832 0.397885 0.521776 0.818616
C9    C     C_R   0.537587 0.000057 0.962490 -0.025839
C10   C     C_R   0.462412 0.999971 0.037510 -0.026040
C11   C     C_R   0.037589 0.500053 0.962488 -0.025974
C12   C     C_R   0.962411 0.499953 0.037510 -0.026040
C13   C     C_R   0.407059 0.999944 0.866371 0.451932
C14   C     C_R   0.592941 0.000086 0.133626 0.451757
C15   C     C_R   0.907055 0.499929 0.866373 0.451917
C16   C     C_R   0.092944 0.500083 0.133625 0.451875
C17   C     C_R   0.397192 0.999924 0.987303 -0.366893
C18   C     C_R   0.602808 0.000118 0.012696 -0.366858
C19   C     C_R   0.897186 0.499899 0.987305 -0.366847
C20   C     C_R   0.102813 0.500116 0.012693 -0.366817
C21   C     C_R   0.545803 0.000063 0.839297 0.096467
C22   C     C_R   0.454197 0.999939 0.160704 0.096525
C23   C     C_R   0.045805 0.500072 0.839295 0.096447
C24   C     C_R   0.954195 0.499923 0.160703 0.096451
C25   C     C_R   0.652064 0.162292 0.463109 -0.158579
C26   C     C_R   0.348015 0.837653 0.536900 -0.158550
C27   C     C_R   0.347954 0.162301 0.536902 -0.158528
C28   C     C_R   0.651998 0.837670 0.463112 -0.158568
C29   C     C_R   0.152073 0.662291 0.463078 -0.158568
C30   C     C_R   0.847994 0.337664 0.536916 -0.158581
C31   C     C_R   0.847937 0.662295 0.536902 -0.158556
C32   C     C_R   0.152035 0.337691 0.463099 -0.158575
C33   C     C_R   0.243685 0.767078 0.655947 0.193866
C34   C     C_R   0.756430 0.232827 0.344036 0.193934
C35   C     C_R   0.756159 0.766952 0.344044 0.194042
C36   C     C_R   0.243772 0.233011 0.655964 0.194015
C37   C     C_R   0.743663 0.267090 0.655976 0.193984
C38   C     C_R   0.256408 0.732862 0.344015 0.193900
C39   C     C_R   0.256203 0.266972 0.344042 0.193963
C40   C     C_R   0.743744 0.732992 0.655962 0.194029
C41   C     C_R   0.308494 0.811383 0.647263 -0.017601
C42   C     C_R   0.691599 0.188545 0.352749 -0.017438
C43   C     C_R   0.691443 0.811358 0.352761 -0.017904
C44   C     C_R   0.308484 0.188599 0.647258 -0.017961
C45   C     C_R   0.808460 0.311412 0.647289 -0.017544
C46   C     C_R   0.191597 0.688552 0.352712 -0.017459
C47   C     C_R   0.191502 0.311392 0.352746 -0.017868
C48   C     C_R   0.808467 0.688594 0.647257 -0.017890
C49   C     C_R   0.334752 0.806457 0.438367 -0.257076
C50   C     C_R   0.665331 0.193488 0.561633 -0.257113
C51   C     C_R   0.665318 0.806508 0.561639 -0.257275
C52   C     C_R   0.334630 0.193462 0.438373 -0.257326
C53   C     C_R   0.834747 0.306451 0.438386 -0.257076
C54   C     C_R   0.165352 0.693478 0.561597 -0.257070
C55   C     C_R   0.165345 0.306522 0.561626 -0.257283
C56   C     C_R   0.834597 0.693444 0.438374 -0.257277
C57   C     C_R   0.273790 0.759093 0.445099 0.068848
C58   C     C_R   0.726304 0.240842 0.554891 0.068862
C59   C     C_R   0.726277 0.759149 0.554891 0.068933
C60   C     C_R   0.273666 0.240814 0.445116 0.068909
C61   C     C_R   0.773791 0.259083 0.445124 0.068739
C62   C     C_R   0.226321 0.740835 0.554859 0.068855
C63   C     C_R   0.226309 0.259169 0.554887 0.068947
C64   C     C_R   0.773630 0.740794 0.445117 0.068874
Cu1   Cu    Cu3+1 0.507800 1.000000 0.383250 1.001611
Cu2   Cu    Cu3+1 0.492200 1.000000 0.616750 1.001522
Cu3   Cu    Cu3+1 0.007800 0.500000 0.383250 1.001550
Cu4   Cu    Cu3+1 0.992200 0.500000 0.616750 1.001529
H1    H     H_    0.626617 0.180397 0.643652 0.193645
H2    H     H_    0.373438 0.819577 0.356345 0.193606
H3    H     H_    0.373298 0.180356 0.356341 0.193520
H4    H     H_    0.626658 0.819622 0.643673 0.193522
H5    H     H_    0.126658 0.680365 0.643615 0.193658
H6    H     H_    0.873440 0.319563 0.356360 0.193582
H7    H     H_    0.873255 0.680328 0.356343 0.193502
H8    H     H_    0.126666 0.319624 0.643651 0.193498
H9    H     H_    0.337468 0.999883 0.040877 0.176649
H10   H     H_    0.662532 0.000170 0.959123 0.176676
H11   H     H_    0.837461 0.499848 0.040882 0.176640
H12   H     H_    0.162537 0.500172 0.959116 0.176661
N1    N     N_R   0.519530 0.000000 0.207810 -0.211205
N2    N     N_R   0.480470 1.000000 0.792190 -0.211247
N3    N     N_R   0.019530 0.500000 0.207810 -0.211229
N4    N     N_R   0.980470 0.500000 0.792190 -0.211241
O1    O     O_R   0.430030 0.075530 0.417420 -0.587713
O2    O     O_R   0.569970 0.924470 0.582580 -0.587788
O3    O     O_R   0.569970 0.075530 0.582580 -0.587716
O4    O     O_R   0.430030 0.924470 0.417420 -0.587670
O5    O     O_R   0.930030 0.575530 0.417420 -0.587753
O6    O     O_R   0.069970 0.424470 0.582580 -0.587790
O7    O     O_R   0.069970 0.575530 0.582580 -0.587676
O8    O     O_R   0.930030 0.424470 0.417420 -0.587663
O9    O     O_R   0.416860 0.075510 0.614610 -0.543841
O10   O     O_R   0.583140 0.924490 0.385390 -0.543820
O11   O     O_R   0.583140 0.075510 0.385390 -0.543654
O12   O     O_R   0.416860 0.924490 0.614610 -0.543723
O13   O     O_R   0.916860 0.575510 0.614610 -0.543803
O14   O     O_R   0.083140 0.424490 0.385390 -0.543834
O15   O     O_R   0.083140 0.575510 0.385390 -0.543710
O16   O     O_R   0.916860 0.424490 0.614610 -0.543738
Br1   Br    Br    0.686111 0.000107 0.190445 -0.563543
Br2   Br    Br    0.313896 0.999910 0.809537 -0.563596
Br3   Br    Br    0.186108 0.500107 0.190456 -0.563592
Br4   Br    Br    0.813894 0.499910 0.809535 -0.563602
C65   C     C_R   0.373484 0.999844 0.235974 0.155787
C66   C     C_R   0.331953 0.938813 0.258796 -0.140807
C67   C     C_R   0.252227 0.938356 0.318142 -0.115922
C68   C     C_R   0.212618 0.999706 0.349928 -0.117493
C69   C     C_R   0.252162 0.061131 0.318546 -0.115938
C70   C     C_R   0.331881 0.060813 0.259162 -0.140016
H13   H     H_    0.361591 0.892444 0.225914 0.153792
H14   H     H_    0.220785 0.890733 0.336937 0.165655
H15   H     H_    0.150778 0.999654 0.395037 0.140710
H16   H     H_    0.220674 0.108712 0.337665 0.165721
H17   H     H_    0.361461 0.107249 0.226518 0.153916
C71   C     C_R   0.626515 0.000126 0.764027 0.155782
C72   C     C_R   0.668090 0.939145 0.740864 -0.140021
C73   C     C_R   0.747806 0.938799 0.681466 -0.115887
C74   C     C_R   0.787378 0.000208 0.650049 -0.117469
C75   C     C_R   0.747799 0.061570 0.681814 -0.115822
C76   C     C_R   0.668075 0.061141 0.741176 -0.140802
H18   H     H_    0.638490 0.892720 0.773529 0.153791
H19   H     H_    0.779272 0.891209 0.662362 0.165690
H20   H     H_    0.849216 0.000240 0.604926 0.140706
H21   H     H_    0.779262 0.109180 0.662994 0.165648
H22   H     H_    0.638461 0.107517 0.774050 0.153844
C77   C     C_R   0.873479 0.499819 0.235973 0.155914
C78   C     C_R   0.831953 0.438772 0.258794 -0.140875
C79   C     C_R   0.752228 0.438308 0.318171 -0.115976
C80   C     C_R   0.712613 0.499664 0.349961 -0.117409
C81   C     C_R   0.752149 0.561104 0.318550 -0.115925
C82   C     C_R   0.831868 0.560793 0.259146 -0.140102
H23   H     H_    0.861590 0.392395 0.225900 0.153677
H24   H     H_    0.720790 0.390672 0.336988 0.165531
H25   H     H_    0.650775 0.499604 0.395095 0.140660
H26   H     H_    0.720656 0.608689 0.337664 0.165648
H27   H     H_    0.861441 0.607234 0.226472 0.153788
C83   C     C_R   0.126519 0.500160 0.764025 0.155872
C84   C     C_R   0.168107 0.439179 0.740832 -0.139976
C85   C     C_R   0.247828 0.438852 0.681448 -0.115927
C86   C     C_R   0.287387 0.500282 0.650071 -0.117450
C87   C     C_R   0.247792 0.561645 0.681873 -0.115904
C88   C     C_R   0.168065 0.561194 0.741228 -0.140935
H28   H     H_    0.138511 0.392743 0.773464 0.153807
H29   H     H_    0.279306 0.391262 0.662322 0.165675
H30   H     H_    0.349227 0.500331 0.604955 0.140669
H31   H     H_    0.279247 0.609273 0.663088 0.165611
H32   H     H_    0.138442 0.607571 0.774145 0.153783
C89   C     C_R   0.657330 0.180615 0.251181 0.165917
C90   C     C_R   0.579252 0.201526 0.259804 -0.112170
C91   C     C_R   0.546251 0.194892 0.165115 -0.131244
C92   C     C_R   0.591173 0.168590 0.060713 -0.074881
C93   C     C_R   0.669283 0.149532 0.050247 -0.074485
C94   C     C_R   0.702016 0.154928 0.145091 -0.018023
H33   H     H_    0.543821 0.222390 0.340149 0.113111
H34   H     H_    0.486031 0.210255 0.172751 0.170966
H35   H     H_    0.565903 0.162537 0.987555 0.144681
H36   H     H_    0.703912 0.128609 0.969546 0.168169
H37   H     H_    0.761551 0.136825 0.136541 0.191542
C95   C     C_R   0.342621 0.819474 0.748965 0.165822
C96   C     C_R   0.297738 0.845144 0.854966 -0.017994
C97   C     C_R   0.330301 0.850692 0.949972 -0.074191
C98   C     C_R   0.408467 0.831877 0.939725 -0.074946
C99   C     C_R   0.453600 0.805619 0.835398 -0.130989
C100  C     C_R   0.420751 0.798772 0.740582 -0.111442
H38   H     H_    0.238175 0.863136 0.863313 0.191452
H39   H     H_    0.295497 0.871588 0.030599 0.168007
H40   H     H_    0.433636 0.838120 0.012960 0.144618
H41   H     H_    0.513875 0.790475 0.827905 0.170498
H42   H     H_    0.456351 0.777939 0.660314 0.113072
C101  C     C_R   0.342553 0.180393 0.748987 0.166029
C102  C     C_R   0.420669 0.201093 0.740743 -0.110720
C103  C     C_R   0.453449 0.194172 0.835626 -0.131061
C104  C     C_R   0.408251 0.167840 0.939865 -0.075183
C105  C     C_R   0.330087 0.149037 0.949975 -0.073517
C106  C     C_R   0.297591 0.154667 0.854910 -0.017852
H43   H     H_    0.456307 0.221981 0.660531 0.113048
H44   H     H_    0.513720 0.209315 0.828259 0.170435
H45   H     H_    0.433364 0.161517 0.013155 0.144732
H46   H     H_    0.295240 0.128093 0.030548 0.168160
H47   H     H_    0.238008 0.136735 0.863148 0.191053
C107  C     C_R   0.657326 0.819532 0.251071 0.166051
C108  C     C_R   0.702227 0.845295 0.145135 -0.017829
C109  C     C_R   0.669688 0.850889 0.050105 -0.073685
C110  C     C_R   0.591550 0.831997 0.060262 -0.075088
C111  C     C_R   0.546415 0.805633 0.164513 -0.131099
C112  C     C_R   0.579227 0.798762 0.259367 -0.111126
H48   H     H_    0.761801 0.863264 0.136852 0.191090
H49   H     H_    0.704490 0.871855 0.969517 0.168153
H50   H     H_    0.566407 0.838255 0.987000 0.144654
H51   H     H_    0.486177 0.790418 0.171889 0.170757
H52   H     H_    0.543638 0.777844 0.339591 0.113143
C113  C     C_R   0.157389 0.680530 0.251068 0.165883
C114  C     C_R   0.079252 0.701282 0.259600 -0.111500
C115  C     C_R   0.046308 0.694536 0.164849 -0.131052
C116  C     C_R   0.091353 0.668313 0.060458 -0.074897
C117  C     C_R   0.169526 0.649431 0.050062 -0.074329
C118  C     C_R   0.202188 0.654899 0.144987 -0.018076
H53   H     H_    0.043720 0.722083 0.339932 0.113035
H54   H     H_    0.986029 0.709740 0.172426 0.170614
H55   H     H_    0.066119 0.662160 0.987261 0.144606
H56   H     H_    0.204252 0.628566 0.969363 0.168070
H57   H     H_    0.261757 0.636879 0.136504 0.191433
C119  C     C_R   0.842607 0.319498 0.748991 0.165908
C120  C     C_R   0.797739 0.345147 0.855030 -0.018050
C121  C     C_R   0.830329 0.350659 0.950025 -0.074286
C122  C     C_R   0.908507 0.331836 0.939734 -0.074823
C123  C     C_R   0.953622 0.305590 0.835385 -0.130931
C124  C     C_R   0.920743 0.298778 0.740572 -0.111358
H58   H     H_    0.738171 0.363150 0.863419 0.191393
H59   H     H_    0.795546 0.371526 0.030694 0.167929
H60   H     H_    0.933693 0.338065 0.012975 0.144564
H61   H     H_    0.013902 0.290421 0.827890 0.170502
H62   H     H_    0.956324 0.277952 0.660278 0.113052
C125  C     C_R   0.842552 0.680414 0.748976 0.166006
C126  C     C_R   0.920665 0.701130 0.740697 -0.110838
C127  C     C_R   0.953461 0.694236 0.835568 -0.130987
C128  C     C_R   0.908287 0.667906 0.939828 -0.075097
C129  C     C_R   0.830131 0.649073 0.949966 -0.073610
C130  C     C_R   0.797615 0.654687 0.854917 -0.017860
H63   H     H_    0.956286 0.722018 0.660470 0.113088
H64   H     H_    0.013725 0.709401 0.828179 0.170570
H65   H     H_    0.933409 0.661625 0.013121 0.144695
H66   H     H_    0.795302 0.628128 0.030555 0.168151
H67   H     H_    0.738035 0.636745 0.863185 0.191076
C131  C     C_R   0.157422 0.319586 0.251028 0.166083
C132  C     C_R   0.202366 0.345317 0.145097 -0.017861
C133  C     C_R   0.169856 0.350934 0.050042 -0.073597
C134  C     C_R   0.091705 0.332087 0.060160 -0.075075
C135  C     C_R   0.046531 0.305744 0.164406 -0.131028
C136  C     C_R   0.079316 0.298859 0.259290 -0.110869
H68   H     H_    0.261948 0.363250 0.136841 0.191027
H69   H     H_    0.204687 0.371885 0.969461 0.168161
H70   H     H_    0.066586 0.338360 0.986863 0.144717
H71   H     H_    0.986279 0.290556 0.171770 0.170646
H72   H     H_    0.043694 0.277962 0.339507 0.113122
Br5   Br    Br    0.680335 0.240774 0.806115 -0.686778
Br6   Br    Br    0.319701 0.759201 0.193858 -0.686667
Br7   Br    Br    0.319148 0.240311 0.193882 -0.686711
Br8   Br    Br    0.680749 0.759612 0.806120 -0.686470
Br9   Br    Br    0.180289 0.740826 0.806111 -0.686690
Br10  Br    Br    0.819805 0.259042 0.193824 -0.686314
Br11  Br    Br    0.819158 0.740350 0.193843 -0.686431
Br12  Br    Br    0.180808 0.259673 0.806147 -0.686506

loop_
_geom_bond_atom_site_label_1
_geom_bond_atom_site_label_2
_ccdc_geom_bond_type
C102  H43   S    
C6    C32   S    
C101  C102  A    
Cu3   N3    S    
C123  H61   S    
C7    C29   S    
C2    O10   A    
C34   Br10  S    
C1    O9    A    
C2    C28   S    
C67   H14   S    
C14   C18   A    
C30   C45   A    
C33   Br9   S    
C98   C99   A    
C34   C42   A    
C89   C94   A    
C78   C79   A    
C39   Br7   S    
C96   C97   A    
C110  C111  A    
C57   C62   A    
C74   H20   S    
C10   C22   A    
Cu1   Cu2   S    
C15   C19   A    
C132  C133  A    
C59   C64   A    
C97   C98   A    
C7    O15   A    
C127  H64   S    
Cu1   O4    S    
C60   C63   A    
C37   Br5   S    
C6    O14   A    
Cu2   O12   S    
C99   C100  A    
C65   C70   A    
C33   C62   A    
C23   C83   S    
C83   C88   A    
C27   C52   A    
C28   C51   A    
C38   Br6   S    
C66   C67   A    
C10   C17   A    
C131  C136  A    
C41   C95   S    
C11   C12   A    
Cu3   O5    S    
Cu4   O7    S    
C49   C57   A    
C68   C69   A    
C93   H36   S    
C42   C89   S    
C73   C74   A    
C52   C60   A    
Cu3   O14   S    
C129  H66   S    
C104  C105  A    
C80   C81   A    
C53   C61   A    
C121  H59   S    
C87   C88   A    
C53   H6    S    
C123  C124  A    
C55   C63   A    
C119  C124  A    
C15   N4    A    
C24   C77   S    
Cu4   O6    S    
C91   C92   A    
C56   C64   A    
C136  H72   S    
C8    O8    A    
C15   Br4   S    
C36   C63   A    
C35   C43   A    
C9    C10   A    
C32   C55   A    
C96   H38   S    
Cu3   O15   S    
C73   H19   S    
C1    C27   S    
C58   C61   A    
C50   H1    S    
C132  H68   S    
C48   C125  S    
C35   Br11  S    
C40   C59   A    
C4    O12   A    
C119  C120  A    
C31   C48   A    
C99   H41   S    
C88   H32   S    
C130  H67   S    
C21   C71   S    
C27   C44   A    
C133  C134  A    
C66   H13   S    
C1    O1    A    
C106  H47   S    
C30   C53   A    
C11   C20   A    
C38   C46   A    
C71   C76   A    
C20   H12   S    
Cu1   O11   S    
C3    O3    A    
C122  C123  A    
C36   Br12  S    
C22   N1    A    
C128  H65   S    
C126  C127  A    
C81   H26   S    
C23   N4    A    
C26   C49   A    
C129  C130  A    
C121  C122  A    
Cu4   O13   S    
C14   Br1   S    
C54   C62   A    
C82   H27   S    
C120  C121  A    
C13   N2    A    
C16   N3    A    
C97   H39   S    
Cu3   Cu4   S    
Cu4   N4    S    
C68   H15   S    
C85   H29   S    
C72   H18   S    
Cu4   O16   S    
C108  C109  A    
C134  C135  A    
C25   C50   A    
Cu2   N2    S    
C38   C57   A    
C84   H28   S    
C16   Br3   S    
Cu1   N1    S    
C105  C106  A    
C3    C25   S    
C67   C68   A    
C7    O7    A    
C17   H9    S    
C72   C73   A    
C112  H52   S    
C50   C58   A    
C135  H71   S    
C131  C132  A    
C16   C20   A    
C91   H34   S    
C85   C86   A    
C19   H11   S    
C107  C108  A    
C77   C82   A    
C133  H69   S    
C35   C64   A    
C69   H16   S    
C111  C112  A    
Cu2   O9    S    
C55   H8    S    
C86   H30   S    
C120  H58   S    
C18   H10   S    
C80   H25   S    
C5    O13   A    
C134  H70   S    
C125  C130  A    
C90   H33   S    
C86   C87   A    
C135  C136  A    
C122  H60   S    
C31   C56   A    
C32   C47   A    
C36   C44   A    
C51   C59   A    
C51   H4    S    
C37   C45   A    
C77   C78   A    
Cu2   O3    S    
C102  C103  A    
C84   C85   A    
C46   C113  S    
C39   C47   A    
C115  H54   S    
C111  H51   S    
C100  H42   S    
C40   C48   A    
C92   H35   S    
Cu1   O10   S    
C65   C66   A    
C126  H63   S    
C28   C43   A    
C75   H21   S    
C87   H31   S    
C24   N3    A    
C37   C58   A    
C116  C117  A    
C81   C82   A    
C25   C42   A    
Cu2   O2    S    
C4    C26   S    
C74   C75   A    
C13   Br2   S    
C54   H5    S    
Cu1   O1    S    
C105  H46   S    
C4    O4    A    
C13   C17   A    
C22   C65   S    
C101  C106  A    
C12   C24   A    
C108  H48   S    
C79   C80   A    
C124  H62   S    
C90   C91   A    
C117  H56   S    
C29   C46   A    
C49   H2    S    
C8    C30   S    
C95   C96   A    
C95   C100  A    
C98   H40   S    
C127  C128  A    
C43   C107  S    
C33   C41   A    
C76   H22   S    
C40   Br8   S    
C52   H3    S    
C6    O6    A    
C89   C90   A    
C114  C115  A    
C116  H55   S    
C9    C21   A    
C128  C129  A    
C47   C131  S    
C103  H44   S    
C45   C119  S    
C39   C60   A    
C104  H45   S    
C12   C19   A    
C11   C23   A    
Cu3   O8    S    
C110  H50   S    
C71   C72   A    
C2    O2    A    
C107  C112  A    
C34   C61   A    
C125  C126  A    
C8    O16   A    
C117  C118  A    
C79   H24   S    
C44   C101  S    
C83   C84   A    
C103  C104  A    
C115  C116  A    
C114  H53   S    
C9    C18   A    
C94   H37   S    
C21   N2    A    
C3    O11   A    
C113  C114  A    
C29   C54   A    
C69   C70   A    
C118  H57   S    
C56   H7    S    
C75   C76   A    
C109  C110  A    
C92   C93   A    
C14   N1    A    
C93   C94   A    
C78   H23   S    
C70   H17   S    
C109  H49   S    
C5    O5    A    
C113  C118  A    
C26   C41   A    
C5    C31   S    
