data_mof_unit_9443.cif
_audit_creation_date              2012-12-11T16:51:28-0500
_audit_creation_method            fapswitch 2.2
_symmetry_space_group_name_H-M    P1
_symmetry_Int_Tables_number       1
_space_group_crystal_system       triclinic
_cell_length_a                    24.697417
_cell_length_b                    17.464242
_cell_length_c                    15.796435
_cell_angle_alpha                 89.999982
_cell_angle_beta                  130.083602
_cell_angle_gamma                 90.0
_cell_volume                      5212.9289686

loop_
_atom_site_label
_atom_site_type_symbol
_atom_type_description
_atom_site_fract_x
_atom_site_fract_y
_atom_site_fract_z
_atom_type_partial_charge
Br1   Br    Br    0.102092 0.266510 0.328506 -0.552553
Br2   Br    Br    0.032067 0.128590 0.855946 -0.446112
Br3   Br    Br    0.467933 0.628590 0.144054 -0.446113
Br4   Br    Br    0.532067 0.628590 0.855946 -0.446113
Br5   Br    Br    0.897908 0.266510 0.671494 -0.552555
Br6   Br    Br    0.602092 0.766511 0.328506 -0.552553
Br7   Br    Br    0.397908 0.766511 0.671494 -0.552553
Br8   Br    Br    0.035821 0.915089 0.868839 -0.523924
Br9   Br    Br    0.964179 0.915089 0.131161 -0.523925
Br10  Br    Br    0.535821 0.415089 0.868839 -0.523925
Br11  Br    Br    0.464179 0.415089 0.131161 -0.523925
Br12  Br    Br    0.967933 0.128590 0.144054 -0.446112
C1    C     C_R   0.831990 0.893545 0.198026 -0.222317
C2    C     C_R   0.178229 0.130825 0.501498 0.081788
C3    C     C_3   0.620289 0.014982 0.361555 -0.750456
C4    C     C_3   0.023265 0.664367 0.835613 -0.844148
C5    C     C_3   0.976735 0.664369 0.164385 -0.844148
C6    C     C_3   0.523265 0.164371 0.835617 -0.844145
C7    C     C_3   0.476735 0.164371 0.164383 -0.844148
C8    C     C_3   0.265074 0.057416 0.862205 -0.963783
C9    C     C_3   0.734926 0.057416 0.137795 -0.963784
C10   C     C_3   0.765073 0.557415 0.862205 -0.963783
C11   C     C_3   0.234926 0.557416 0.137795 -0.963782
C12   C     C_3   0.694257 0.885728 0.301631 -0.853155
C13   C     C_R   0.321771 0.630825 0.498502 0.081788
C14   C     C_3   0.305743 0.885728 0.698369 -0.853151
C15   C     C_3   0.194256 0.385727 0.301631 -0.853155
C16   C     C_3   0.805743 0.385727 0.698371 -0.853161
C17   C     C_R   0.678229 0.630825 0.501498 0.081787
C18   C     C_R   0.870332 0.167801 0.181116 -0.070927
C19   C     C_R   0.129668 0.167801 0.818884 -0.070927
C20   C     C_R   0.370332 0.667801 0.181116 -0.070927
C21   C     C_R   0.629668 0.667801 0.818884 -0.070927
C22   C     C_R   0.841954 0.698277 0.560879 -0.024165
C23   C     C_R   0.158045 0.698277 0.439121 -0.024163
C24   C     C_R   0.341955 0.198277 0.560880 -0.024163
C25   C     C_R   0.168010 0.893545 0.801974 -0.222316
C26   C     C_R   0.658045 0.198278 0.439120 -0.024164
C27   C     C_R   0.815715 0.755321 0.481654 -0.058058
C28   C     C_R   0.184285 0.755321 0.518346 -0.058058
C29   C     C_R   0.315715 0.255321 0.481655 -0.058058
C30   C     C_R   0.684285 0.255321 0.518345 -0.058057
C31   C     C_R   0.740977 0.761975 0.396332 0.091351
C32   C     C_R   0.259022 0.761975 0.603668 0.091351
C33   C     C_R   0.240978 0.261974 0.396331 0.091351
C34   C     C_R   0.759022 0.261974 0.603668 0.091354
C35   C     C_R   0.197088 0.225946 0.410371 0.283846
C36   C     C_R   0.331989 0.393545 0.198026 -0.222317
C37   C     C_R   0.802912 0.225947 0.589628 0.283845
C38   C     C_R   0.697088 0.725947 0.410372 0.283846
C39   C     C_R   0.302912 0.725947 0.589628 0.283846
C40   C     C_R   0.225745 0.171137 0.495022 -0.118761
C41   C     C_R   0.774255 0.171138 0.504977 -0.118761
C42   C     C_R   0.725745 0.671138 0.495022 -0.118761
C43   C     C_R   0.274255 0.671138 0.504977 -0.118762
C44   C     C_R   0.297331 0.152060 0.561895 0.050096
C45   C     C_R   0.702669 0.152060 0.438105 0.050095
C46   C     C_R   0.797331 0.652060 0.561894 0.050097
C47   C     C_R   0.668010 0.393546 0.801974 -0.222316
C48   C     C_R   0.202669 0.652060 0.438106 0.050095
C49   C     C_3   0.852853 0.639750 0.684834 -0.031795
C50   C     C_3   0.147147 0.639751 0.315165 -0.031794
C51   C     C_3   0.352853 0.139751 0.684835 -0.031795
C52   C     C_3   0.647147 0.139751 0.315165 -0.031794
C53   C     C_R   0.088863 0.856406 0.410570 -0.133750
C54   C     C_R   0.911137 0.856406 0.589430 -0.133749
C55   C     C_R   0.588863 0.356407 0.410570 -0.133751
C56   C     C_R   0.411137 0.356407 0.589430 -0.133750
C57   C     C_3   0.899683 0.696398 0.683915 -0.039363
C58   C     C_R   0.886092 0.104733 0.589633 0.009061
C59   C     C_3   0.100318 0.696399 0.316084 -0.039363
C60   C     C_3   0.399682 0.196400 0.683916 -0.039364
C61   C     C_3   0.600318 0.196400 0.316084 -0.039363
C62   C     C_2   0.198150 0.849897 0.980793 -0.129918
C63   C     C_2   0.801850 0.849897 0.019207 -0.129917
C64   C     C_2   0.698149 0.349897 0.980793 -0.129917
C65   C     C_2   0.301850 0.349897 0.019207 -0.129918
C66   C     C_2   0.267796 0.846531 0.036377 -0.120734
C67   C     C_2   0.732204 0.846531 0.963623 -0.120735
C68   C     C_2   0.767796 0.346531 0.036377 -0.120734
C69   C     C_R   0.113908 0.104733 0.410367 0.009062
C70   C     C_2   0.232204 0.346531 0.963623 -0.120734
C71   C     C_2   0.841449 0.235192 0.109912 -0.113585
C72   C     C_2   0.158551 0.235192 0.890088 -0.113584
C73   C     C_2   0.341449 0.735192 0.109912 -0.113585
C74   C     C_2   0.658551 0.735192 0.890088 -0.113584
C75   C     C_2   0.809305 0.289690 0.122862 -0.155496
C76   C     C_2   0.190694 0.289690 0.877138 -0.155496
C77   C     C_2   0.309305 0.789690 0.122862 -0.155496
C78   C     C_2   0.690695 0.789690 0.877138 -0.155495
C79   C     C_R   0.154573 0.853931 0.592789 -0.091520
C80   C     C_R   0.386092 0.604734 0.589633 0.009060
C81   C     C_R   0.845427 0.853931 0.407211 -0.091520
C82   C     C_R   0.654573 0.353931 0.592789 -0.091521
C83   C     C_R   0.345427 0.353931 0.407211 -0.091520
C84   C     C_R   0.079005 0.895865 0.804739 0.284370
C85   C     C_R   0.920994 0.895865 0.195261 0.284369
C86   C     C_R   0.579005 0.395865 0.804739 0.284369
C87   C     C_R   0.420994 0.395865 0.195261 0.284369
C88   C     C_R   0.850384 0.876601 0.134126 0.072666
C89   C     C_R   0.149616 0.876601 0.865874 0.072666
C90   C     C_R   0.350384 0.376601 0.134126 0.072666
C91   C     C_R   0.613908 0.604734 0.410367 0.009061
C92   C     C_R   0.649616 0.376601 0.865874 0.072666
C93   C     C_R   0.137866 0.813423 0.505068 0.072755
C94   C     C_R   0.862133 0.813423 0.494932 0.072755
C95   C     C_R   0.637867 0.313424 0.505068 0.072753
C96   C     C_R   0.362133 0.313423 0.494932 0.072756
C97   C     C_R   0.813456 0.110524 0.407052 -0.133594
C98   C     C_R   0.186544 0.110524 0.592948 -0.133594
C99   C     C_R   0.313456 0.610524 0.407052 -0.133593
C100  C     C_R   0.686544 0.610524 0.592948 -0.133594
C101  C     C_R   0.931455 0.129071 0.220168 0.372984
C102  C     C_R   0.821771 0.130825 0.498502 0.081788
C103  C     C_R   0.068545 0.129071 0.779832 0.372984
C104  C     C_R   0.431455 0.629071 0.220168 0.372984
C105  C     C_R   0.568545 0.629071 0.779832 0.372984
C106  C     C_R   0.157734 0.130631 0.777230 0.167449
C107  C     C_R   0.842266 0.130631 0.222770 0.167449
C108  C     C_R   0.657734 0.630631 0.777230 0.167450
C109  C     C_R   0.342266 0.630631 0.222770 0.167449
C110  C     C_3   0.879709 0.514980 0.638441 -0.750456
C111  C     C_3   0.120290 0.514981 0.361557 -0.750456
C112  C     C_3   0.379712 0.014981 0.638446 -0.750456
H1    H     H_    0.779306 0.894733 0.171194 0.120644
H2    H     H_    0.093861 0.750761 0.273960 0.131636
H3    H     H_    0.363267 0.893507 0.745743 0.278968
H4    H     H_    0.168905 0.278677 0.225915 0.218216
H5    H     H_    0.209349 0.421170 0.261429 0.222663
H6    H     H_    0.224406 0.406132 0.388001 0.262304
H7    H     H_    0.136733 0.393506 0.254255 0.278969
H8    H     H_    0.831096 0.278676 0.774085 0.218217
H9    H     H_    0.790657 0.421167 0.738584 0.222664
H10   H     H_    0.775588 0.406136 0.612000 0.262302
H11   H     H_    0.863266 0.393505 0.745738 0.278973
H12   H     H_    0.406138 0.250761 0.726040 0.131637
H13   H     H_    0.593862 0.250762 0.273960 0.131637
H14   H     H_    0.804525 0.285326 0.186469 0.149297
H15   H     H_    0.195475 0.285326 0.813531 0.149297
H16   H     H_    0.304525 0.785326 0.186469 0.149297
H17   H     H_    0.695475 0.785326 0.813531 0.149297
H18   H     H_    0.291347 0.871818 0.004143 0.143220
H19   H     H_    0.708653 0.871818 0.995857 0.143220
H20   H     H_    0.791347 0.371818 0.004143 0.143219
H21   H     H_    0.220694 0.894733 0.828806 0.120643
H22   H     H_    0.208652 0.371818 0.995857 0.143219
H23   H     H_    0.846194 0.240275 0.046326 0.177402
H24   H     H_    0.153806 0.240275 0.953674 0.177402
H25   H     H_    0.346194 0.740275 0.046326 0.177402
H26   H     H_    0.653806 0.740275 0.953674 0.177402
H27   H     H_    0.175761 0.822584 0.014022 0.156301
H28   H     H_    0.824239 0.822584 0.985979 0.156301
H29   H     H_    0.675761 0.322584 0.014021 0.156301
H30   H     H_    0.324239 0.322584 0.985978 0.156301
H31   H     H_    0.064073 0.842668 0.326750 0.147787
H32   H     H_    0.279306 0.394733 0.171194 0.120644
H33   H     H_    0.935927 0.842668 0.673249 0.147787
H34   H     H_    0.564073 0.342668 0.326750 0.147787
H35   H     H_    0.435927 0.342668 0.673249 0.147786
H36   H     H_    0.187776 0.835116 0.677170 0.131830
H37   H     H_    0.812224 0.835116 0.322830 0.131830
H38   H     H_    0.687776 0.335116 0.677170 0.131832
H39   H     H_    0.312224 0.335116 0.322831 0.131830
H40   H     H_    0.765069 0.112273 0.323060 0.135738
H41   H     H_    0.234931 0.112273 0.676939 0.135738
H42   H     H_    0.265069 0.612273 0.323060 0.135738
H43   H     H_    0.720694 0.394733 0.828806 0.120643
H44   H     H_    0.734931 0.612273 0.676939 0.135739
H45   H     H_    0.902168 0.097328 0.670622 0.179271
H46   H     H_    0.097832 0.097327 0.329378 0.179271
H47   H     H_    0.402168 0.597328 0.670622 0.179271
H48   H     H_    0.597832 0.597328 0.329378 0.179271
H49   H     H_    0.865745 0.532474 0.754290 0.164890
H50   H     H_    0.912800 0.463274 0.681535 0.258748
H51   H     H_    0.901613 0.546307 0.605412 0.252668
H52   H     H_    0.824741 0.497154 0.568122 0.228809
H53   H     H_    0.134255 0.532474 0.245710 0.164889
H54   H     H_    0.838125 0.661795 0.733626 0.083605
H55   H     H_    0.087200 0.463273 0.318464 0.258748
H56   H     H_    0.098384 0.546307 0.394583 0.252669
H57   H     H_    0.175258 0.497156 0.431878 0.228807
H58   H     H_    0.365745 0.032475 0.754292 0.164889
H59   H     H_    0.412802 0.963275 0.681540 0.258747
H60   H     H_    0.401617 0.046308 0.605420 0.252669
H61   H     H_    0.324744 0.997156 0.568125 0.228808
H62   H     H_    0.634255 0.032475 0.245709 0.164889
H63   H     H_    0.587198 0.963275 0.318460 0.258747
H64   H     H_    0.598383 0.046309 0.394581 0.252669
H65   H     H_    0.161876 0.661796 0.266374 0.083605
H66   H     H_    0.675256 0.997156 0.431876 0.228808
H67   H     H_    0.980194 0.688981 0.674890 0.177731
H68   H     H_    0.069172 0.633874 0.853749 0.244053
H69   H     H_    0.007470 0.633973 0.878522 0.259155
H70   H     H_    0.039579 0.723818 0.867840 0.249128
H71   H     H_    0.019806 0.688983 0.325108 0.177731
H72   H     H_    0.930828 0.633876 0.146248 0.244053
H73   H     H_    0.992530 0.633974 0.121477 0.259155
H74   H     H_    0.960422 0.723820 0.132158 0.249129
H75   H     H_    0.480195 0.188984 0.674894 0.177731
H76   H     H_    0.338124 0.161796 0.733626 0.083606
H77   H     H_    0.569172 0.133879 0.853755 0.244052
H78   H     H_    0.507470 0.133976 0.878525 0.259154
H79   H     H_    0.539578 0.223823 0.867843 0.249130
H80   H     H_    0.519805 0.188984 0.325106 0.177731
H81   H     H_    0.430828 0.133879 0.146245 0.244053
H82   H     H_    0.492530 0.133976 0.121475 0.259155
H83   H     H_    0.460422 0.223823 0.132157 0.249130
H84   H     H_    0.260835 0.172457 0.886560 0.179595
H85   H     H_    0.321140 0.064118 0.898864 0.246899
H86   H     H_    0.239108 0.018087 0.790635 0.252939
H87   H     H_    0.661876 0.161796 0.266374 0.083605
H88   H     H_    0.263707 0.032449 0.925538 0.268990
H89   H     H_    0.739164 0.172456 0.113439 0.179595
H90   H     H_    0.678859 0.064118 0.101135 0.246899
H91   H     H_    0.760892 0.018087 0.209365 0.252939
H92   H     H_    0.736293 0.032449 0.074462 0.268990
H93   H     H_    0.760836 0.672456 0.886561 0.179595
H94   H     H_    0.821141 0.564118 0.898864 0.246899
H95   H     H_    0.739108 0.518087 0.790634 0.252939
H96   H     H_    0.763707 0.532449 0.925538 0.268989
H97   H     H_    0.239164 0.672456 0.113439 0.179595
H98   H     H_    0.906140 0.750759 0.726040 0.131637
H99   H     H_    0.178859 0.564118 0.101135 0.246899
H100  H     H_    0.260892 0.518087 0.209365 0.252939
H101  H     H_    0.236293 0.532449 0.074462 0.268989
H102  H     H_    0.668904 0.778678 0.225915 0.218216
H103  H     H_    0.709348 0.921170 0.261428 0.222663
H104  H     H_    0.724408 0.906134 0.388002 0.262304
H105  H     H_    0.636734 0.893507 0.254258 0.278969
H106  H     H_    0.331096 0.778677 0.774085 0.218216
H107  H     H_    0.290652 0.921170 0.738573 0.222663
H108  H     H_    0.275593 0.906134 0.611998 0.262303
N1    N     N_R   0.888400 0.921830 0.294620 -0.062186
N2    N     N_R   0.874350 0.922400 0.443380 -0.053568
N3    N     N_R   0.625650 0.422400 0.556620 -0.053568
N4    N     N_R   0.374350 0.422400 0.443380 -0.053568
N5    N     N_R   0.054230 0.922730 0.705400 -0.073107
N6    N     N_R   0.945770 0.922730 0.294600 -0.073107
N7    N     N_R   0.554230 0.422730 0.705400 -0.073107
N8    N     N_R   0.445770 0.422730 0.294600 -0.073107
N9    N     N_R   0.873790 0.077030 0.443380 -0.049256
N10   N     N_R   0.126210 0.077030 0.556620 -0.049256
N11   N     N_R   0.373790 0.577030 0.443380 -0.049256
N12   N     N_R   0.111600 0.921830 0.705380 -0.062186
N13   N     N_R   0.626210 0.577030 0.556620 -0.049256
N14   N     N_R   0.945200 0.076700 0.294600 -0.094307
N15   N     N_R   0.054800 0.076700 0.705400 -0.094307
N16   N     N_R   0.445200 0.576700 0.294600 -0.094307
N17   N     N_R   0.554800 0.576700 0.705400 -0.094307
N18   N     N_R   0.111030 0.077600 0.705380 -0.076251
N19   N     N_R   0.888970 0.077600 0.294620 -0.076251
N20   N     N_R   0.611030 0.577600 0.705380 -0.076251
N21   N     N_R   0.388970 0.577600 0.294620 -0.076251
N22   N     N_R   0.919490 0.077280 0.556590 -0.054165
N23   N     N_R   0.388400 0.421830 0.294620 -0.062186
N24   N     N_R   0.080510 0.077280 0.443410 -0.054165
N25   N     N_R   0.419490 0.577280 0.556590 -0.054165
N26   N     N_R   0.580510 0.577280 0.443410 -0.054165
N27   N     N_2   0.880651 0.561729 0.715585 -0.092016
N28   N     N_2   0.119349 0.561730 0.284414 -0.092015
N29   N     N_2   0.380652 0.061731 0.715588 -0.092015
N30   N     N_2   0.619348 0.061731 0.284412 -0.092015
N31   N     N_2   0.965507 0.665443 0.717379 -0.083014
N32   N     N_2   0.034493 0.665445 0.282619 -0.083014
N33   N     N_2   0.465508 0.165446 0.717382 -0.083014
N34   N     N_R   0.611600 0.421830 0.705380 -0.062186
N35   N     N_2   0.534493 0.165446 0.282618 -0.083014
N36   N     N_2   0.230499 0.131292 0.826752 -0.116204
N37   N     N_2   0.769501 0.131292 0.173247 -0.116204
N38   N     N_2   0.730499 0.631292 0.826753 -0.116204
N39   N     N_2   0.269501 0.631292 0.173247 -0.116204
N40   N     N_2   0.709169 0.806093 0.298508 -0.111995
N41   N     N_2   0.290831 0.806093 0.701492 -0.111995
N42   N     N_2   0.209169 0.306092 0.298507 -0.111995
N43   N     N_2   0.790831 0.306092 0.701493 -0.111995
N44   N     N_R   0.079940 0.922160 0.443410 -0.038902
N45   N     N_R   0.920060 0.922160 0.556590 -0.038902
N46   N     N_R   0.579940 0.422160 0.443410 -0.038902
N47   N     N_R   0.420060 0.422160 0.556590 -0.038902
N48   N     N_R   0.125650 0.922400 0.556620 -0.053569
Ni1   Ni    Ni4+2 0.882160 0.999430 0.370180 0.195114
Ni2   Ni    Ni4+2 0.117840 0.999430 0.629820 0.195114
Ni3   Ni    Ni4+2 0.382160 0.499430 0.370180 0.195114
Ni4   Ni    Ni4+2 0.617840 0.499430 0.629820 0.195114
Ni5   Ni    Ni4+2 0.012460 0.999430 0.370180 0.279117
Ni6   Ni    Ni4+2 0.987540 0.999430 0.629820 0.279117
Ni7   Ni    Ni4+2 0.512460 0.499430 0.370180 0.279117
Ni8   Ni    Ni4+2 0.487540 0.499430 0.629820 0.279117

loop_
_geom_bond_atom_site_label_1
_geom_bond_atom_site_label_2
_ccdc_geom_bond_type
H93   N38   S    
C64   C92   S    
C27   C94   S    
N1    Ni1   S    
C10   H95   S    
C21   C105  A    
N8    Ni7   S    
C16   H11   S    
C15   H7    S    
C84   N5    A    
C79   C93   A    
C17   C100  A    
C71   C75   D    
C8    H88   S    
Br8   C84   S    
N7    Ni8   S    
C8    N36   S    
C74   H26   S    
C80   N25   A    
C24   C29   A    
C9    N37   S    
H75   N33   S    
C56   N47   A    
C58   C102  A    
C85   N6    A    
C34   C37   A    
C11   N39   S    
C38   C42   A    
C63   C67   D    
C12   N40   S    
C16   H10   S    
C47   C92   A    
C65   C70   D    
Br11  C87   S    
C29   C96   S    
C58   H45   S    
N48   Ni2   S    
C112  H60   S    
C68   C75   S    
C107  N19   A    
Br3   C104  S    
C66   H18   S    
N19   Ni1   S    
C112  H61   S    
C65   H30   S    
C98   H41   S    
C52   N30   S    
C82   N3    A    
C60   H12   S    
C18   C107  A    
C80   H47   S    
C49   C57   S    
C101  N14   A    
N4    N47   A    
C64   H29   S    
N10   N24   A    
C51   H76   S    
C17   C91   A    
C54   N45   A    
C48   C50   S    
C57   H98   S    
N11   N25   A    
N45   Ni6   S    
C19   C103  A    
C18   C71   S    
Br10  C86   S    
C60   N33   S    
C67   C78   S    
C4    H69   S    
C61   N35   S    
N11   Ni3   S    
N14   Ni5   S    
C4    N31   S    
C67   H19   S    
C104  N16   A    
C25   H21   S    
C13   C80   A    
N17   Ni8   S    
N24   Ni5   S    
C7    H82   S    
C99   N11   A    
C52   C61   S    
C9    H91   S    
C59   H2    S    
C5    H73   S    
C6    H79   S    
C8    H86   S    
C6    H77   S    
C12   H103  S    
C4    H68   S    
C30   C95   S    
C109  N39   S    
C47   N34   A    
H97   N39   S    
N44   Ni5   S    
H102  N40   S    
C10   N38   S    
C46   C49   S    
C72   H24   S    
C32   N41   S    
C36   H32   S    
C23   C59   S    
C49   H54   S    
C25   N12   A    
C43   C48   A    
C53   N44   A    
C7    H83   S    
N18   Ni2   S    
Br5   C37   S    
C65   C90   S    
C11   H101  S    
N4    Ni3   S    
C54   C94   A    
N15   Ni6   S    
N5    Ni6   S    
C51   N29   S    
C81   N2    A    
C53   C93   A    
C58   N22   A    
C70   H22   S    
C50   H65   S    
C103  N15   A    
N14   N19   A    
C33   C35   A    
C66   C77   S    
C100  N13   A    
C107  N37   S    
C2    C40   S    
C82   C95   A    
C9    H92   S    
N46   Ni7   S    
C40   C44   A    
C16   H9    S    
C72   C76   D    
C112  H59   S    
C111  H55   S    
C12   H105  S    
C74   C78   D    
C73   C77   D    
N16   N21   A    
Br1   C35   S    
C16   N43   S    
C27   C31   A    
C86   N7    A    
N8    N23   A    
C68   H20   S    
H84   N36   S    
H58   N29   S    
C3    H63   S    
N25   Ni8   S    
H62   N30   S    
C19   C72   S    
C22   C27   A    
N7    N34   A    
N26   Ni7   S    
C36   N23   A    
H67   N31   S    
C21   C74   S    
C110  H52   S    
C76   H15   S    
C3    H64   S    
C24   C44   A    
C83   H39   S    
C81   C94   A    
C14   N41   S    
C26   C45   A    
Br2   C103  S    
C98   N10   A    
C29   C33   A    
C12   H104  S    
C45   C52   S    
C97   N9    A    
C63   H28   S    
N2    Ni1   S    
C36   C90   A    
C87   C90   A    
N13   Ni4   S    
C31   N40   S    
C44   C51   S    
C5    H74   S    
C52   H87   S    
C99   H42   S    
C69   H46   S    
Br6   C38   S    
C55   N46   A    
C105  N17   A    
N13   N26   A    
C57   N31   S    
C22   C57   S    
H4    N42   S    
C79   H36   S    
N6    Ni5   S    
C97   C102  A    
C15   N42   S    
C71   H23   S    
C87   N8    A    
C32   C39   A    
C20   C104  A    
C3    H66   S    
C11   H99   S    
C81   H37   S    
C62   C89   S    
H106  N41   S    
C30   C34   A    
C91   H48   S    
C15   H5    S    
C91   N26   A    
C106  N36   S    
Br4   C105  S    
C64   C68   D    
C83   N4    A    
C49   N27   S    
C75   H14   S    
H89   N37   S    
C106  N18   A    
C50   N28   S    
N1    N6    A    
C47   H43   S    
C41   C102  S    
C56   H35   S    
C1    N1    A    
Br12  C101  S    
C42   C46   A    
H80   N35   S    
N34   Ni4   S    
C59   N32   S    
C2    C98   A    
C10   H96   S    
C23   C48   A    
N17   N20   A    
Br9   C85   S    
C85   C88   A    
N5    N12   A    
N3    N46   A    
C20   C109  A    
C108  N20   A    
N9    Ni1   S    
C111  H56   S    
C5    H72   S    
C97   H40   S    
C41   C45   A    
N16   Ni7   S    
N21   Ni3   S    
C31   C38   A    
C109  N21   A    
C35   C40   A    
N3    Ni4   S    
N10   Ni2   S    
C14   H107  S    
C110  H51   S    
C62   C66   D    
C19   C106  A    
N12   Ni2   S    
C34   N43   S    
C14   H108  S    
N47   Ni8   S    
H49   N27   S    
C5    N32   S    
N20   Ni4   S    
H71   N32   S    
Br7   C39   S    
N44   N48   A    
C53   H31   S    
C3    N30   S    
C110  H50   S    
C25   C89   A    
H8    N43   S    
C55   C95   A    
C108  N38   S    
C61   H13   S    
C112  N29   S    
C1    C88   A    
C37   C41   A    
C20   C73   S    
C63   C88   S    
C11   H100  S    
C13   C43   S    
C50   C59   S    
C23   C28   A    
C55   H34   S    
C39   C43   A    
C14   H3    S    
C7    N35   S    
C69   N24   A    
C10   H94   S    
C79   N48   A    
C62   H27   S    
H53   N28   S    
C73   H25   S    
C78   H17   S    
C4    H70   S    
C83   C96   A    
C13   C99   A    
C26   C61   S    
C26   C30   A    
C24   C60   S    
C6    N33   S    
C28   C32   A    
C111  N28   S    
C6    H78   S    
C51   C60   S    
C7    H81   S    
C21   C108  A    
C8    H85   S    
C17   C42   S    
N22   Ni6   S    
N23   Ni3   S    
C22   C46   A    
C15   H6    S    
C70   C76   S    
C9    H90   S    
C111  H57   S    
C77   H16   S    
N9    N22   A    
C56   C96   A    
C2    C69   A    
N2    N45   A    
C84   C89   A    
C110  N27   S    
C1    H1    S    
C86   C92   A    
C54   H33   S    
C82   H38   S    
C33   N42   S    
N15   N18   A    
C28   C93   S    
C18   C101  A    
C100  H44   S    
