data_mof_unit_10170.cif
_audit_creation_date              2012-12-10T20:31:55-0500
_audit_creation_method            fapswitch 2.2
_symmetry_space_group_name_H-M    P1
_symmetry_Int_Tables_number       1
_space_group_crystal_system       triclinic
_cell_length_a                    9.875744
_cell_length_b                    10.683831
_cell_length_c                    15.482907
_cell_angle_alpha                 90.119018
_cell_angle_beta                  68.009383
_cell_angle_gamma                 89.889172
_cell_volume                      1514.75059715

loop_
_atom_site_label
_atom_site_type_symbol
_atom_type_description
_atom_site_fract_x
_atom_site_fract_y
_atom_site_fract_z
_atom_type_partial_charge
C1    C     C_R   0.501230 0.739935 0.497586 0.870011
C2    C     C_R   0.396889 0.555627 0.917236 0.101878
C3    C     C_R   0.254465 0.512285 0.971058 0.165179
C4    C     C_R   0.496852 0.583783 0.960662 0.068849
C5    C     C_R   0.459386 0.550543 0.055126 0.065958
C6    C     C_R   0.313107 0.516780 0.108479 -0.217946
C7    C     C_R   0.211967 0.499680 0.066960 -0.233624
C8    C     C_R   0.634227 0.640429 0.912529 -0.224640
C9    C     C_R   0.736833 0.653079 0.953584 -0.226920
C10   C     C_R   0.706958 0.607869 0.043046 0.174615
C11   C     C_R   0.569134 0.553556 0.093399 0.096901
C12   C     C_R   0.408359 0.502310 0.675957 0.871732
C13   C     C_R   0.812194 0.617573 0.083662 -0.222803
C14   C     C_R   0.780080 0.576194 0.174634 -0.194877
C15   C     C_R   0.545979 0.501594 0.180249 -0.249596
C16   C     C_R   0.382903 0.936285 0.489415 0.131858
C17   C     C_R   0.507916 0.871296 0.484262 -0.092231
C18   C     C_R   0.640649 0.934871 0.462767 -0.232563
C19   C     C_R   0.640634 0.064339 0.463063 -0.182777
C20   C     C_R   0.507820 0.128494 0.485230 -0.136107
C21   C     C_R   0.382401 0.063810 0.490955 0.043241
C22   C     C_3   0.227883 0.070134 0.560047 -0.183402
C23   C     C_R   0.501392 0.260063 0.497760 0.890265
C24   C     C_3   0.229129 0.927658 0.558331 -0.570876
C25   C     C_R   0.900863 0.589512 0.548076 0.115123
C26   C     C_R   0.960223 0.418907 0.445620 0.624632
C27   C     C_R   0.103981 0.418659 0.445900 -0.227252
C28   C     C_R   0.043721 0.590114 0.547479 0.194540
C29   C     C_3   0.991762 0.614152 0.649408 -0.477232
C30   C     C_3   0.837671 0.610671 0.650708 -0.499455
C31   C     C_R   0.591103 0.500949 0.323984 0.870584
C32   C     C_R   0.348756 0.512811 0.777289 -0.065634
C33   C     C_R   0.645012 0.520170 0.223537 -0.051628
C34   C     C_R   0.158184 0.477582 0.927690 -0.212762
C35   C     C_R   0.205712 0.476652 0.830874 -0.180384
C36   C     C_R   0.439508 0.557939 0.820527 -0.267418
H1    H     H_    0.102102 0.470559 0.109510 0.163183
H2    H     H_    0.916937 0.660981 0.046325 0.148023
H3    H     H_    0.741850 0.885580 0.451539 0.174328
H4    H     H_    0.741877 0.113133 0.451763 0.214450
H5    H     H_    0.152274 0.111983 0.529772 0.189096
H6    H     H_    0.222061 0.882426 0.624588 0.187991
H7    H     H_    0.154704 0.887612 0.526575 0.211246
H8    H     H_    0.183247 0.351304 0.403688 0.170525
H9    H     H_    0.016422 0.535613 0.688239 0.226984
H10   H     H_    0.448738 0.448458 0.217152 0.152968
H11   H     H_    0.024276 0.708183 0.665477 0.192390
H12   H     H_    0.776147 0.527966 0.688785 0.223010
H13   H     H_    0.779813 0.702016 0.669294 0.195604
H14   H     H_    0.857830 0.592043 0.207618 0.161263
H15   H     H_    0.840718 0.696920 0.914596 0.151835
H16   H     H_    0.048890 0.445283 0.968369 0.157313
H17   H     H_    0.132863 0.443649 0.798128 0.184578
H18   H     H_    0.546396 0.588168 0.776687 0.146552
H19   H     H_    0.272982 0.504710 0.183017 0.156366
H20   H     H_    0.663988 0.679514 0.843880 0.149604
N1    N     N_R   0.856900 0.500860 0.500610 -0.152746
N2    N     N_R   0.142540 0.500820 0.500610 -0.123483
O1    O     O_R   0.385310 0.683210 0.499990 -0.609565
O2    O     O_R   0.614650 0.683240 0.500000 -0.628213
O3    O     O_R   0.319830 0.499970 0.632240 -0.602060
O4    O     O_R   0.549170 0.500000 0.632250 -0.618413
O5    O     O_R   0.385350 0.316760 0.500000 -0.606143
O6    O     O_R   0.614690 0.316790 0.500010 -0.570188
O7    O     O_R   0.450830 0.500000 0.367750 -0.624083
O8    O     O_R   0.680170 0.500030 0.367760 -0.579476
Zn1   Zn    Zn3+2 0.346870 0.499980 0.499990 0.966077
Zn2   Zn    Zn3+2 0.653130 0.500020 0.500010 0.995714
C37   C     C_2   0.213443 0.124156 0.652995 0.458346
H21   H     H_    0.282525 0.090487 0.688562 0.053733
O9    O     O_2   0.124365 0.206755 0.688708 -0.579796
F1    F     F_    0.924372 0.335260 0.391863 -0.672248

loop_
_geom_bond_atom_site_label_1
_geom_bond_atom_site_label_2
_ccdc_geom_bond_type
C8    C9    A    
C31   O8    A    
C2    C4    A    
C18   H3    S    
C31   C33   S    
C16   C21   A    
C29   C30   S    
C28   N2    A    
C35   H17   S    
C12   O4    A    
C9    C10   A    
O3    Zn1   S    
C22   C37   S    
O8    Zn2   S    
C19   C20   A    
C9    H15   S    
C20   C23   S    
O4    Zn2   S    
C6    H19   S    
C4    C8    A    
C8    H20   S    
C14   C33   A    
C23   O5    A    
C17   C18   A    
C13   H2    S    
C3    C7    A    
C16   C24   S    
C13   C14   A    
C12   C32   S    
C25   C28   A    
C12   O3    A    
C26   C27   A    
C14   H14   S    
C25   N1    A    
C29   H11   S    
C5    C6    A    
C32   C36   A    
C22   C24   S    
C30   H12   S    
C28   C29   S    
C30   H13   S    
C5    C11   A    
C6    C7    A    
C2    C3    A    
C1    O1    A    
C7    H1    S    
C37   H21   S    
C24   H7    S    
C26   N1    A    
O5    Zn1   S    
C22   H5    S    
C36   H18   S    
C19   H4    S    
N1    Zn2   S    
C32   C35   A    
O6    Zn2   S    
N2    Zn1   S    
C25   C30   S    
C24   H6    S    
C20   C21   A    
O2    Zn2   S    
C11   C15   A    
C37   O9    D    
C34   C35   A    
C10   C11   A    
C1    O2    A    
C2    C36   A    
C26   F1    S    
C31   O7    A    
C18   C19   A    
C23   O6    A    
C27   N2    A    
C34   H16   S    
C15   H10   S    
O1    Zn1   S    
C3    C34   A    
C21   C22   S    
C1    C17   S    
C27   H8    S    
C15   C33   A    
C16   C17   A    
C29   H9    S    
C4    C5    A    
O7    Zn1   S    
C10   C13   A    
