data_mof_unit_48596.cif
_audit_creation_date              2012-12-10T19:22:28-0500
_audit_creation_method            fapswitch 2.2
_symmetry_space_group_name_H-M    P1
_symmetry_Int_Tables_number       1
_space_group_crystal_system       triclinic
_cell_length_a                    17.771757
_cell_length_b                    16.55217
_cell_length_c                    10.910877
_cell_angle_alpha                 90.004838
_cell_angle_beta                  92.930165
_cell_angle_gamma                 89.990226
_cell_volume                      3205.3597651

loop_
_atom_site_label
_atom_site_type_symbol
_atom_type_description
_atom_site_fract_x
_atom_site_fract_y
_atom_site_fract_z
_atom_type_partial_charge
C1    C     C_R   0.355505 0.499912 0.504953 0.865123
C2    C     C_R   0.644480 0.499891 0.494988 0.865227
C3    C     C_R   0.885532 0.507394 0.492565 0.048756
C4    C     C_R   0.114330 0.507216 0.503257 0.052015
C5    C     C_1   0.966170 0.507524 0.495978 -0.020570
C6    C     C_1   0.033683 0.507477 0.499315 -0.015918
C7    C     C_R   0.538150 0.832265 0.591500 -0.266274
C8    C     C_R   0.461884 0.832253 0.408404 -0.266610
C9    C     C_R   0.539465 0.746535 0.591867 0.522700
C10   C     C_R   0.460535 0.746524 0.408109 0.521634
C11   C     C_R   0.500026 0.875813 0.499935 -0.037293
C12   C     C_1   0.500029 0.964935 0.499925 0.053533
C13   C     C_1   0.500030 0.039033 0.499931 -0.005096
C14   C     C_R   0.538238 0.171925 0.594111 -0.229023
C15   C     C_R   0.461817 0.171939 0.405800 -0.228634
C16   C     C_R   0.537517 0.257179 0.592501 0.188277
C17   C     C_R   0.462518 0.257191 0.407454 0.190265
C18   C     C_R   0.500029 0.128062 0.499948 0.129407
C19   C     C_R   0.501325 0.499926 0.265074 0.892671
C20   C     C_R   0.498664 0.499930 0.734925 0.891834
C21   C     C_2   0.502018 0.433039 0.933170 -0.135200
C22   C     C_2   0.497936 0.433039 0.066811 -0.134442
C23   C     C_2   0.493538 0.500679 0.866513 -0.239956
C24   C     C_2   0.506441 0.500669 0.133487 -0.239150
C25   C     C_R   0.845002 0.574261 0.533443 0.174556
C26   C     C_R   0.155109 0.574582 0.464800 0.172926
C27   C     C_R   0.766414 0.570072 0.530790 -0.228960
C28   C     C_R   0.233743 0.570514 0.469259 -0.232603
C29   C     C_R   0.727452 0.500545 0.488889 -0.188390
C30   C     C_R   0.272483 0.500657 0.510439 -0.186500
C31   C     C_R   0.768944 0.435069 0.441753 0.348798
C32   C     C_R   0.230688 0.434801 0.555603 0.349463
C33   C     C_R   0.847682 0.439100 0.446708 -0.250493
C34   C     C_R   0.151942 0.438690 0.548862 -0.252781
Cu1   Cu    Cu3+1 0.500000 0.580420 0.500000 1.080942
Cu2   Cu    Cu3+1 0.500000 0.419580 0.500000 1.059125
H1    H     H_    0.510949 0.375248 0.888965 0.179030
H2    H     H_    0.488991 0.375253 0.111002 0.179009
H3    H     H_    0.567590 0.289982 0.665391 0.110722
H4    H     H_    0.432451 0.290004 0.334565 0.110884
H5    H     H_    0.480654 0.558298 0.907296 0.191870
H6    H     H_    0.519337 0.558282 0.092719 0.191761
H7    H     H_    0.735691 0.621988 0.561742 0.217917
H8    H     H_    0.264698 0.622412 0.438919 0.217208
H9    H     H_    0.880128 0.388956 0.413434 0.193041
H10   H     H_    0.119292 0.388269 0.580675 0.192986
H11   H     H_    0.566713 0.866286 0.664748 0.219839
H12   H     H_    0.433322 0.866262 0.335137 0.219843
H13   H     H_    0.568560 0.140564 0.668445 0.143973
H14   H     H_    0.431507 0.140590 0.331445 0.143860
N1    N     N_R   0.500000 0.701220 0.500000 -0.300340
N2    N     N_R   0.500000 0.298780 0.500000 -0.159241
O1    O     O_R   0.391260 0.567930 0.500000 -0.565580
O2    O     O_R   0.608740 0.567930 0.500000 -0.564659
O3    O     O_R   0.391280 0.432120 0.500000 -0.529168
O4    O     O_R   0.608720 0.432120 0.500000 -0.529731
O5    O     O_R   0.500000 0.567890 0.321940 -0.519596
O6    O     O_R   0.500000 0.567890 0.678060 -0.519419
O7    O     O_R   0.500030 0.432070 0.321950 -0.596781
O8    O     O_R   0.499970 0.432070 0.678050 -0.597330
C35   C     C_3   0.883811 0.650897 0.578283 -0.398796
C36   C     C_3   0.899291 0.706294 0.470720 -0.795391
H15   H     H_    0.934073 0.674777 0.403867 0.256050
H16   H     H_    0.845381 0.725508 0.423480 0.263997
H17   H     H_    0.930079 0.760846 0.504851 0.248309
H18   H     H_    0.848065 0.683836 0.642480 0.222582
H19   H     H_    0.937461 0.636684 0.630576 0.206032
C37   C     C_3   0.116429 0.651124 0.419056 -0.403784
C38   C     C_3   0.085786 0.641800 0.286573 -0.775987
H20   H     H_    0.132412 0.627718 0.225954 0.268743
H21   H     H_    0.043120 0.592864 0.278718 0.252425
H22   H     H_    0.058709 0.699146 0.255192 0.244075
H23   H     H_    0.070096 0.667175 0.479148 0.206945
H24   H     H_    0.156467 0.702789 0.423304 0.218117
S1    S     S_3+6 0.726137 0.349394 0.369317 0.028160
O9    O     O_2   0.662947 0.375902 0.281653 -0.260396
O10   O     O_2   0.782425 0.302900 0.298947 -0.271969
O11   O     O_3   0.691598 0.288349 0.475919 -0.511158
H25   H     H_    0.734957 0.276836 0.533943 0.336336
S2    S     S_3+6 0.273053 0.348784 0.627737 0.027924
O12   O     O_2   0.335953 0.374798 0.716320 -0.260143
O13   O     O_2   0.216351 0.302167 0.697024 -0.272269
O14   O     O_3   0.307910 0.288071 0.520983 -0.511895
H26   H     H_    0.264556 0.276180 0.463140 0.337008
S3    S     S_3+6 0.589966 0.708163 0.725571 0.009021
O15   O     O_2   0.535031 0.697373 0.824537 -0.292152
O16   O     O_2   0.631194 0.630570 0.707547 -0.309453
O17   O     O_3   0.654584 0.776636 0.775381 -0.559250
H27   H     H_    0.673263 0.756945 0.857114 0.383452
S4    S     S_3+6 0.409951 0.708144 0.274472 0.009088
O18   O     O_2   0.464810 0.697414 0.175370 -0.292117
O19   O     O_2   0.368793 0.630525 0.292480 -0.308106
O20   O     O_3   0.345250 0.776602 0.224860 -0.558559
H28   H     H_    0.326222 0.756694 0.143438 0.383709

loop_
_geom_bond_atom_site_label_1
_geom_bond_atom_site_label_2
_ccdc_geom_bond_type
C15   C18   A    
O20   H28   S    
Cu1   O1    S    
C24   H6    S    
C14   C18   A    
Cu1   Cu2   S    
C9    N1    A    
Cu2   O7    S    
S3    O15   D    
C19   O5    A    
C7    C11   A    
C13   C18   S    
C2    C29   S    
C5    C6    T    
C14   H13   S    
C27   C29   A    
C3    C33   A    
C37   H24   S    
C22   H2    S    
C33   H9    S    
C15   C17   A    
C15   H14   S    
C38   H21   S    
C1    O1    A    
C36   H16   S    
C9    S3    S    
S4    O19   D    
C35   H18   S    
C37   C38   S    
C31   C33   A    
C34   H10   S    
C20   O8    A    
Cu2   N2    S    
C21   C22   S    
Cu1   O2    S    
C38   H20   S    
S2    O14   S    
C10   N1    A    
C17   N2    A    
S3    O16   D    
C21   C23   D    
C4    C34   A    
C3    C25   A    
S2    O13   D    
C2    O2    A    
O11   H25   S    
C19   O7    A    
C37   H23   S    
C28   H8    S    
C17   H4    S    
C7    H11   S    
C38   H22   S    
S1    O9    D    
C8    H12   S    
C36   H15   S    
Cu2   O4    S    
C32   S2    S    
C35   H19   S    
C31   S1    S    
O14   H26   S    
C20   C23   S    
C25   C35   S    
O17   H27   S    
S1    O10   D    
C4    C6    S    
Cu1   O6    S    
Cu1   N1    S    
C14   C16   A    
C20   O6    A    
S4    O20   S    
S3    O17   S    
C7    C9    A    
C36   H17   S    
C16   N2    A    
S2    O12   D    
C3    C5    S    
C4    C26   A    
C11   C12   S    
C25   C27   A    
C26   C28   A    
C23   H5    S    
Cu1   O5    S    
C26   C37   S    
C28   C30   A    
C19   C24   S    
C1    O3    A    
C29   C31   A    
Cu2   O3    S    
C2    O4    A    
C30   C32   A    
S4    O18   D    
C8    C11   A    
C1    C30   S    
C22   C24   D    
C35   C36   S    
S1    O11   S    
C16   H3    S    
C27   H7    S    
C21   H1    S    
C12   C13   T    
C10   S4    S    
C8    C10   A    
Cu2   O8    S    
C32   C34   A    
