data_mof_unit_18298.cif
_audit_creation_date              2012-12-10T17:44:22-0500
_audit_creation_method            fapswitch 2.2
_symmetry_space_group_name_H-M    P1
_symmetry_Int_Tables_number       1
_space_group_crystal_system       triclinic
_cell_length_a                    13.835526
_cell_length_b                    15.041192
_cell_length_c                    17.351064
_cell_angle_alpha                 86.999103
_cell_angle_beta                  86.342083
_cell_angle_gamma                 88.141067
_cell_volume                      3596.97331671

loop_
_atom_site_label
_atom_site_type_symbol
_atom_type_description
_atom_site_fract_x
_atom_site_fract_y
_atom_site_fract_z
_atom_type_partial_charge
C1    C     C_R   0.498837 0.670970 0.498342 0.851906
C2    C     C_R   0.501163 0.329030 0.501658 0.851880
C3    C     C_R   0.525354 0.180715 0.571167 -0.051663
C4    C     C_R   0.474640 0.819286 0.428834 -0.051654
C5    C     C_R   0.503328 0.232356 0.503773 -0.125299
C6    C     C_R   0.496671 0.767644 0.496227 -0.125301
C7    C     C_R   0.481746 0.192288 0.436598 -0.252358
C8    C     C_R   0.518257 0.807713 0.563401 -0.252358
C9    C     C_R   0.481686 0.100111 0.434432 0.120802
C10   C     C_R   0.518316 0.899890 0.565568 0.120803
C11   C     C_R   0.501370 0.046762 0.501138 0.054243
C12   C     C_R   0.498630 0.953239 0.498862 0.054242
C13   C     C_R   0.523100 0.086723 0.570116 0.042007
C14   C     C_R   0.476898 0.913277 0.429885 0.042007
C15   C     C_R   0.462253 0.060735 0.366158 -0.208032
C16   C     C_R   0.537749 0.939266 0.633842 -0.208030
C17   C     C_R   0.460887 0.968591 0.363527 -0.159428
C18   C     C_R   0.539112 0.031410 0.636474 -0.159433
C19   C     C_R   0.206110 0.565659 0.457711 0.303671
C20   C     C_R   0.793889 0.434341 0.542289 0.303659
C21   C     C_R   0.206141 0.434722 0.540722 -0.011746
C22   C     C_R   0.793859 0.565279 0.459279 -0.011747
C23   C     C_R   0.487213 0.499881 0.650043 0.861640
C24   C     C_R   0.512787 0.500124 0.349956 0.861669
C25   C     C_R   0.103602 0.431545 0.540626 -0.017417
C26   C     C_R   0.896398 0.568455 0.459376 -0.017412
C27   C     C_R   0.051616 0.500092 0.500315 0.022700
C28   C     C_R   0.948383 0.499908 0.499686 0.022698
C29   C     C_R   0.102819 0.568698 0.460154 -0.023649
C30   C     C_R   0.897181 0.431303 0.539848 -0.023653
C31   C     C_R   0.051691 0.361388 0.579212 0.154853
C32   C     C_R   0.948308 0.638614 0.420791 0.154861
C33   C     C_R   0.950352 0.361729 0.577889 -0.183210
C34   C     C_R   0.049647 0.638273 0.422114 -0.183213
C35   C     C_R   0.479824 0.504993 0.734804 -0.172407
C36   C     C_R   0.520175 0.495031 0.265194 -0.172397
C37   C     C_R   0.559351 0.537247 0.769381 -0.229207
C38   C     C_R   0.440649 0.462782 0.230613 -0.229213
C39   C     C_R   0.557229 0.547539 0.848580 0.178084
C40   C     C_R   0.442769 0.452509 0.151411 0.178087
C41   C     C_R   0.473722 0.524026 0.895061 0.127497
C42   C     C_R   0.526271 0.476038 0.104932 0.127488
C43   C     C_R   0.391327 0.493183 0.861537 0.093346
C44   C     C_R   0.608662 0.506885 0.138458 0.093359
C45   C     C_R   0.394541 0.483050 0.780843 0.012851
C46   C     C_R   0.605454 0.516992 0.219156 0.012838
C47   C     C_2   0.473169 0.528982 0.979386 -0.190193
C48   C     C_2   0.526826 0.471088 0.020606 -0.190191
Cu1   Cu    Cu3+1 0.402580 0.500010 0.500000 0.980702
Cu2   Cu    Cu3+1 0.597420 0.499990 0.500000 0.980696
H1    H     H_    0.623726 0.555852 0.734094 0.175298
H2    H     H_    0.376277 0.444164 0.265897 0.175295
H3    H     H_    0.247094 0.384397 0.572458 0.186813
H4    H     H_    0.752907 0.615606 0.427545 0.186855
H5    H     H_    0.913845 0.305851 0.606974 0.160323
H6    H     H_    0.086154 0.694151 0.393030 0.160323
H7    H     H_    0.575020 0.422799 0.992100 0.161842
H8    H     H_    0.424973 0.577270 0.007892 0.161837
H9    H     H_    0.465639 0.233535 0.385507 0.138905
H10   H     H_    0.534367 0.766465 0.614492 0.138908
H11   H     H_    0.448599 0.101387 0.314317 0.149869
H12   H     H_    0.551404 0.898613 0.685683 0.149870
H13   H     H_    0.448217 0.941780 0.308643 0.187250
H14   H     H_    0.551782 0.058221 0.691358 0.187255
N1    N     N_R   0.256180 0.500070 0.500030 -0.190326
N2    N     N_R   0.743820 0.499930 0.499970 -0.190338
O1    O     O_R   0.417720 0.629750 0.499980 -0.593814
O2    O     O_R   0.582280 0.370250 0.500020 -0.593820
O3    O     O_R   0.582260 0.629730 0.499990 -0.575128
O4    O     O_R   0.417740 0.370270 0.500010 -0.575138
O5    O     O_R   0.408190 0.500030 0.613590 -0.559224
O6    O     O_R   0.591810 0.499970 0.386410 -0.559226
O7    O     O_R   0.572730 0.500000 0.613600 -0.608348
O8    O     O_R   0.427270 0.500000 0.386400 -0.608348
C49   C     C_3   0.257555 0.634600 0.404906 -0.746424
H15   H     H_    0.334447 0.622826 0.393058 0.282952
H16   H     H_    0.228597 0.635800 0.346599 0.188636
H17   H     H_    0.246784 0.701242 0.429329 0.226344
C50   C     C_3   0.742445 0.365400 0.595095 -0.746416
H18   H     H_    0.665552 0.377172 0.606941 0.282949
H19   H     H_    0.753217 0.298757 0.570674 0.226338
H20   H     H_    0.771400 0.364203 0.653402 0.188639
C51   C     C_3   0.102449 0.284917 0.621567 -0.845476
H21   H     H_    0.154343 0.250350 0.580908 0.240249
H22   H     H_    0.141871 0.310226 0.669253 0.252856
H23   H     H_    0.050826 0.234973 0.647357 0.235511
C52   C     C_3   0.897550 0.715087 0.378439 -0.845491
H24   H     H_    0.845661 0.749656 0.419100 0.240255
H25   H     H_    0.949174 0.765028 0.352646 0.235510
H26   H     H_    0.858123 0.689780 0.330755 0.252843
C53   C     C_2   0.689886 0.552798 0.254269 0.869981
O9    O     O_2   0.685455 0.628241 0.277450 -0.573775
O10   O     O_R   0.774228 0.499921 0.260655 -0.761356
H27   H     H_    0.826976 0.531488 0.285472 0.322756
C54   C     C_2   0.310111 0.447236 0.745736 0.870005
O11   O     O_2   0.314510 0.371756 0.722636 -0.573774
O12   O     O_R   0.225806 0.500147 0.739266 -0.761331
H28   H     H_    0.173053 0.468568 0.714469 0.322752
C55   C     C_3   0.303110 0.467537 0.913450 -0.824545
H29   H     H_    0.323239 0.411110 0.953503 0.235975
H30   H     H_    0.276757 0.525210 0.947128 0.228424
H31   H     H_    0.241329 0.446017 0.882265 0.249463
C56   C     C_3   0.696862 0.532568 0.086542 -0.824525
H32   H     H_    0.676705 0.588986 0.046491 0.235955
H33   H     H_    0.758630 0.554121 0.117724 0.249487
H34   H     H_    0.723243 0.474907 0.052863 0.228439
C57   C     C_3   0.355656 0.415204 0.117907 -0.856861
H35   H     H_    0.301686 0.390861 0.163681 0.230135
H36   H     H_    0.319253 0.467842 0.082194 0.235781
H37   H     H_    0.378392 0.358120 0.082234 0.238246
C58   C     C_3   0.644343 0.584849 0.882078 -0.856867
H38   H     H_    0.698317 0.609179 0.836302 0.230135
H39   H     H_    0.621608 0.641944 0.917739 0.238241
H40   H     H_    0.680742 0.532219 0.917803 0.235782
C59   C     C_2   0.549044 0.225221 0.641870 0.785752
O13   O     O_2   0.495546 0.284583 0.667086 -0.578888
O14   O     O_R   0.633240 0.200011 0.678914 -0.782537
H41   H     H_    0.641506 0.235441 0.726067 0.333621
C60   C     C_2   0.450937 0.774782 0.358134 0.785749
O15   O     O_2   0.504426 0.715415 0.332916 -0.578882
O16   O     O_R   0.366740 0.800000 0.321094 -0.782538
H42   H     H_    0.358466 0.764572 0.273942 0.333618

loop_
_geom_bond_atom_site_label_1
_geom_bond_atom_site_label_2
_ccdc_geom_bond_type
C33   H5    S    
C21   H3    S    
C52   H24   S    
C26   C32   A    
O10   H27   S    
C27   C29   A    
C57   H36   S    
C54   O11   D    
C24   O8    A    
O12   H28   S    
C48   H7    S    
C39   C41   A    
C20   C30   A    
C34   H6    S    
C24   C36   S    
C16   H12   S    
C13   C18   A    
C20   N2    A    
C35   C37   A    
Cu2   O3    S    
C43   C55   S    
C2    O2    A    
C37   H1    S    
C38   H2    S    
C22   H4    S    
C59   O13   D    
C45   C54   S    
C31   C51   S    
C7    C9    A    
C49   H16   S    
Cu2   O6    S    
C22   N2    A    
Cu1   N1    S    
C58   H39   S    
C47   C48   D    
C59   O14   S    
C57   H35   S    
C31   C33   A    
C4    C60   S    
C36   C46   A    
C58   H40   S    
C3    C13   A    
C40   C42   A    
C30   C33   A    
C41   C43   A    
C14   C17   A    
C42   C44   A    
C23   O7    A    
C7    H9    S    
C44   C56   S    
C44   C46   A    
C60   O16   S    
C41   C47   S    
C1    C6    S    
C23   O5    A    
C4    C6    A    
Cu2   O7    S    
C53   O9    D    
C5    C7    A    
C6    C8    A    
C46   C53   S    
C32   C52   S    
C29   C34   A    
C1    O3    A    
C32   C34   A    
C49   H15   S    
C53   O10   S    
C43   C45   A    
C51   H21   S    
C11   C12   A    
C51   H23   S    
C15   H11   S    
C56   H33   S    
C42   C48   S    
Cu2   N2    S    
O16   H42   S    
C10   C12   A    
C40   C57   S    
C16   C18   A    
C51   H22   S    
C12   C14   A    
C23   C35   S    
Cu1   O4    S    
C9    C11   A    
Cu1   O5    S    
C57   H37   S    
C2    C5    S    
C35   C45   A    
C56   H32   S    
C24   O6    A    
C50   H19   S    
C19   C49   S    
C15   C17   A    
C21   C25   A    
Cu1   O1    S    
C58   H38   S    
C21   N1    A    
C25   C31   A    
C3    C5    A    
C50   H20   S    
C60   O15   D    
C54   O12   S    
C25   C27   A    
C26   C28   A    
C55   H29   S    
C52   H25   S    
C9    C15   A    
C28   C30   A    
C37   C39   A    
C10   C16   A    
O14   H41   S    
C17   H13   S    
C47   H8    S    
C38   C40   A    
C39   C58   S    
C11   C13   A    
C18   H14   S    
C36   C38   A    
C1    O1    A    
C19   N1    A    
C56   H34   S    
C4    C14   A    
C49   H17   S    
C50   H18   S    
C55   H31   S    
C8    C10   A    
Cu1   Cu2   S    
C22   C26   A    
C52   H26   S    
C27   C28   A    
Cu1   O8    S    
C3    C59   S    
C2    O4    A    
Cu2   O2    S    
C55   H30   S    
C8    H10   S    
C20   C50   S    
C19   C29   A    
