data_mof_unit_67272.cif
_audit_creation_date              2012-12-11T18:17:45-0500
_audit_creation_method            fapswitch 2.2
_symmetry_space_group_name_H-M    P1
_symmetry_Int_Tables_number       1
_space_group_crystal_system       triclinic
_cell_length_a                    8.347097
_cell_length_b                    14.782516
_cell_length_c                    14.994616
_cell_angle_alpha                 97.323904
_cell_angle_beta                  96.708483
_cell_angle_gamma                 92.651756
_cell_volume                      1819.02666101

loop_
_atom_site_label
_atom_site_type_symbol
_atom_type_description
_atom_site_fract_x
_atom_site_fract_y
_atom_site_fract_z
_atom_type_partial_charge
Ba1   Ba    Ba6+2 0.833410 0.543320 0.453520 1.784141
Ba2   Ba    Ba6+2 0.356410 0.456750 0.546480 1.756996
C1    C     C_3   0.642542 0.869932 0.188315 -0.187741
C2    C     C_3   0.579710 0.783967 0.225368 0.334002
C3    C     C_3   0.471240 0.259517 0.261361 0.317468
C4    C     C_3   0.509813 0.226542 0.164646 0.705942
C5    C     C_3   0.129726 0.190016 0.793289 0.282571
C6    C     C_3   0.216557 0.191383 0.889688 -0.054452
C7    C     C_3   0.732142 0.231167 0.813311 0.497335
C8    C     C_3   0.703100 0.131563 0.827259 0.296987
C9    C     C_R   0.343844 0.558668 0.166860 -0.000660
C10   C     C_R   0.109593 0.472861 0.205082 0.004053
C11   C     C_R   0.944992 0.461279 0.763947 -0.198782
C12   C     C_3   0.006901 0.730903 0.208147 0.263145
C13   C     C_R   0.847464 0.434593 0.827367 0.025642
C14   C     C_R   0.904891 0.447931 0.919506 -0.136544
C15   C     C_R   0.059887 0.489795 0.951128 0.038449
C16   C     C_R   0.147946 0.528924 0.886682 0.029148
C17   C     C_R   0.126285 0.497446 0.045485 0.005553
C18   C     C_R   0.279003 0.546255 0.073880 -0.059533
C19   C     C_R   0.359889 0.585311 0.009677 -0.090440
C20   C     C_R   0.294072 0.579187 0.919382 0.016740
C21   C     C_R   0.049468 0.455511 0.112131 -0.197154
C22   C     C_R   0.247501 0.532291 0.230993 0.105259
C23   C     C_3   0.999325 0.753151 0.111814 -0.341947
C24   C     C_R   0.085476 0.517803 0.791738 0.096194
C25   C     C_R   0.708819 0.946984 0.560729 0.050622
C26   C     C_R   0.513002 0.804256 0.510936 0.029819
C27   C     C_R   0.354228 0.773286 0.476203 -0.261012
C28   C     C_R   0.247093 0.829749 0.436500 0.025380
C29   C     C_R   0.297928 0.918957 0.430459 -0.143861
C30   C     C_R   0.457319 0.953829 0.463304 0.014810
C31   C     C_R   0.563878 0.900103 0.511908 -0.034251
C32   C     C_R   0.647368 0.090706 0.498627 -0.033469
C33   C     C_R   0.754744 0.038116 0.547913 0.020464
C34   C     C_3   0.223201 0.756123 0.682955 0.373751
C35   C     C_R   0.686935 0.188421 0.504171 0.027723
C36   C     C_R   0.831654 0.226334 0.554419 -0.214949
C37   C     C_R   0.946421 0.170626 0.589577 -0.015970
C38   C     C_R   0.909166 0.077807 0.584847 -0.158455
C39   C     C_R   0.508127 0.042335 0.447253 0.055529
C40   C     C_3   0.248907 0.854798 0.734100 0.361535
C41   C     C_3   0.052205 0.237002 0.290204 0.340823
C42   C     C_3   0.043186 0.184928 0.192877 -0.185619
C43   C     C_3   0.763652 0.698475 0.726556 0.575128
C44   C     C_3   0.773689 0.741275 0.825504 0.233781
H1    H     H_    0.643621 0.784728 0.294880 0.078794
H2    H     H_    0.171409 0.268802 0.317604 -0.023157
H3    H     H_    0.916259 0.180713 0.160181 0.246311
H4    H     H_    0.114855 0.225853 0.152634 0.047850
H5    H     H_    0.882299 0.704598 0.701108 0.052346
H6    H     H_    0.613588 0.932363 0.231508 0.118509
H7    H     H_    0.785698 0.816852 0.830743 0.113168
H8    H     H_    0.661857 0.723015 0.854584 0.048789
H9    H     H_    0.366481 0.216440 0.268896 -0.086267
H10   H     H_    0.397584 0.226110 0.117361 -0.048437
H11   H     H_    0.775622 0.871980 0.192739 0.148084
H12   H     H_    0.038475 0.693632 0.068805 0.148053
H13   H     H_    0.049386 0.247686 0.792642 -0.036440
H14   H     H_    0.059358 0.123775 0.771258 0.008326
H15   H     H_    0.325869 0.152251 0.885854 0.202029
H16   H     H_    0.825812 0.262757 0.868537 -0.046246
H17   H     H_    0.777533 0.231860 0.746453 -0.250842
H18   H     H_    0.816761 0.096801 0.821389 0.015828
H19   H     H_    0.899065 0.686766 0.214015 0.119986
H20   H     H_    0.474595 0.623432 0.028446 0.115976
H21   H     H_    0.943539 0.409549 0.093826 0.145863
H22   H     H_    0.900451 0.447700 0.692529 0.083940
H23   H     H_    0.824697 0.426077 0.965080 0.105126
H24   H     H_    0.361617 0.614413 0.875827 0.113492
H25   H     H_    0.311330 0.704982 0.483268 0.114728
H26   H     H_    0.211064 0.961358 0.399338 0.088221
H27   H     H_    0.003090 0.036469 0.610066 0.079908
H28   H     H_    0.113801 0.691205 0.221056 0.019445
H29   H     H_    0.862713 0.298717 0.557685 0.042444
H30   H     H_    0.874311 0.766299 0.085287 0.163558
H31   H     H_    0.080339 0.813968 0.108249 0.150032
H32   H     H_    0.335532 0.735314 0.655524 -0.045529
H33   H     H_    0.122888 0.751958 0.626556 -0.034408
O1    O     O_2   0.841250 0.444240 0.280450 -0.388736
O2    O     O_3   0.649193 0.744021 0.678419 -0.698905
O3    O     O_3   0.016451 0.811812 0.269601 -0.619348
O4    O     O_2   0.348460 0.555790 0.719610 -0.426267
O5    O     O_3   0.076820 0.552690 0.606290 -0.499526
O6    O     O_3   0.591740 0.384320 0.672310 -0.416457
O7    O     O_3   0.183073 0.699590 0.745424 -0.596485
O8    O     O_3   0.629090 0.386360 0.459240 -0.434983
O9    O     O_3   0.172500 0.335240 0.628910 -0.467765
O10   O     O_2   0.268597 0.173961 0.564543 -0.469697
O11   O     O_3   0.246747 0.199124 0.735015 -0.580608
O12   O     O_3   0.112870 0.447390 0.393710 -0.437167
O13   O     O_3   0.560600 0.613720 0.540760 -0.378935
O14   O     O_2   0.387470 0.270310 0.467210 -0.476195
O15   O     O_3   0.597737 0.242369 0.325377 -0.610495
O16   O     O_2   0.512931 0.449858 0.831425 -0.462874
O17   O     O_3   0.590564 0.278818 0.816024 -0.566791
O18   O     O_3   0.597960 0.615760 0.327700 -0.428437
O19   O     O_2   0.674247 0.534235 0.171751 -0.455429
O20   O     O_3   0.939723 0.303319 0.287264 -0.556521
O21   O     O_3   0.615149 0.705403 0.168579 -0.627987
O22   O     O_2   0.802240 0.729720 0.532850 -0.489936
O23   O     O_3   0.017190 0.664840 0.371090 -0.444516
O24   O     O_2   0.907341 0.827988 0.425256 -0.496350
P1    P     P_3+3 0.018620 0.416870 0.295980 1.068787
P2    P     P_3+3 0.635650 0.716500 0.560900 1.035119
P3    P     P_3+3 0.046919 0.783508 0.380017 0.962204
P4    P     P_3+3 0.171070 0.583210 0.704020 1.039739
P5    P     P_3+3 0.154401 0.217689 0.629236 0.972016
P6    P     P_3+3 0.556785 0.603498 0.208843 0.985610
P7    P     P_3+3 0.568180 0.269411 0.440794 0.977872
P8    P     P_3+3 0.636722 0.388127 0.789153 1.075079
C45   C     C_3   0.397176 0.863657 0.806345 -0.270103
H34   H     H_    0.386112 0.812820 0.854208 0.148803
H35   H     H_    0.508424 0.852527 0.774800 0.056591
H36   H     H_    0.409183 0.932750 0.846465 0.163122
C46   C     C_3   0.264455 0.924023 0.667627 -0.442143
H37   H     H_    0.253843 0.994367 0.701236 0.163144
H38   H     H_    0.382781 0.920848 0.642027 0.080222
H39   H     H_    0.167517 0.910062 0.609521 0.100171
Cl1   Cl    Cl    0.082144 0.883417 0.794201 -0.745766
C47   C     C_3   0.004488 0.175814 0.358696 -0.249551
H40   H     H_    0.879361 0.145072 0.338900 0.130025
H41   H     H_    0.088159 0.120806 0.366968 0.052663
H42   H     H_    0.011701 0.218697 0.425058 0.071240
C48   C     C_3   0.097313 0.086759 0.184563 -0.451608
H43   H     H_    0.073688 0.055100 0.112821 0.172970
H44   H     H_    0.227883 0.085579 0.206257 0.151171
H45   H     H_    0.027623 0.043270 0.223381 0.153229
Cl2   Cl    Cl    0.690757 0.584856 0.718472 -0.677060
Cl3   Cl    Cl    0.941514 0.705074 0.891818 -0.726704
C49   C     C_3   0.398529 0.788020 0.230215 -0.381854
H46   H     H_    0.332153 0.763315 0.162504 0.107777
H47   H     H_    0.363476 0.744536 0.280269 0.095633
H48   H     H_    0.364864 0.858171 0.252261 0.096470
C50   C     C_3   0.573796 0.874471 0.089634 -0.312264
H49   H     H_    0.442948 0.886549 0.084621 0.150478
H50   H     H_    0.637279 0.931668 0.064039 0.203996
H51   H     H_    0.591287 0.810419 0.045433 0.132957
C51   C     C_3   0.434712 0.360003 0.269749 -0.234146
H52   H     H_    0.375419 0.380123 0.330815 0.102669
H53   H     H_    0.546322 0.404399 0.274130 0.187650
H54   H     H_    0.353550 0.370291 0.208738 -0.081064
Cl4   Cl    Cl    0.571813 0.112581 0.153619 -0.700045
Cl5   Cl    Cl    0.659172 0.298048 0.126987 -0.656340
C52   C     C_3   0.269619 0.289497 0.932551 -0.313019
H55   H     H_    0.166858 0.323116 0.960081 0.080089
H56   H     H_    0.369312 0.289913 0.988081 0.179095
H57   H     H_    0.313375 0.330054 0.881971 0.173513
C53   C     C_3   0.113060 0.144362 0.950013 -0.440904
H58   H     H_    0.072779 0.073740 0.918262 0.190598
H59   H     H_    0.187411 0.139627 0.015167 0.160936
H60   H     H_    0.006030 0.183264 0.963512 0.164395
C54   C     C_3   0.574477 0.081672 0.756013 -0.326636
H61   H     H_    0.593654 0.096138 0.687317 0.094479
H62   H     H_    0.578114 0.007865 0.758917 0.091871
H63   H     H_    0.454314 0.101836 0.769685 0.179730
Cl6   Cl    Cl    0.651446 0.122895 0.937885 -0.646594
Cl7   Cl    Cl    0.299013 0.575434 0.345434 -0.718076
C55   C     C_3   0.786773 0.915700 0.646004 -0.342525
H64   H     H_    0.876008 0.864876 0.631780 0.170392
H65   H     H_    0.848968 0.972018 0.695402 0.133686
H66   H     H_    0.691547 0.893795 0.683985 0.117780
C56   C     C_3   0.443353 0.069104 0.358055 -0.394990
H67   H     H_    0.547198 0.088546 0.324442 0.181194
H68   H     H_    0.382281 0.011526 0.309874 0.101339
H69   H     H_    0.355952 0.121517 0.368157 0.131663

loop_
_geom_bond_atom_site_label_1
_geom_bond_atom_site_label_2
_ccdc_geom_bond_type
C42   H3    S    
Ba1   O8    S    
C50   H51   S    
C43   Cl2   S    
C19   H20   S    
C9    P6    S    
C32   C35   A    
Ba2   P4    S    
C34   C40   S    
C56   H67   S    
C16   C24   A    
O12   P1    S    
C49   H48   S    
C45   H35   S    
C3    O15   S    
C5    C6    S    
O8    P7    S    
C2    O21   S    
C43   C44   S    
C25   C31   A    
Ba1   O5    S    
C10   C21   A    
C35   C36   A    
O1    P1    D    
C23   H31   S    
C12   H28   S    
C26   C27   A    
C56   H68   S    
C41   O20   S    
C32   C33   A    
C53   H59   S    
C55   H64   S    
C52   H55   S    
C3    C4    S    
O9    P5    S    
C51   H54   S    
C22   Cl7   S    
C43   H5    S    
C25   C55   S    
C13   C14   A    
C9    C22   A    
O5    P4    S    
C38   H27   S    
O10   P5    D    
Ba2   O6    S    
Ba1   Ba2   S    
C21   H21   S    
C40   C45   S    
C47   H42   S    
Ba2   O5    S    
O7    P4    S    
C46   H38   S    
C14   C15   A    
C48   H45   S    
C30   C39   A    
C55   H65   S    
Ba2   O9    S    
C54   H62   S    
C7    C8    S    
C41   C47   S    
C6    H15   S    
O20   P1    S    
O21   P6    S    
Ba1   O12   S    
O19   P6    D    
C7    H17   S    
C19   C20   A    
C28   P3    S    
Ba2   O4    S    
C32   C39   A    
C8    C54   S    
C5    H13   S    
C45   H34   S    
C52   H56   S    
C3    C51   S    
C2    C49   S    
C36   H29   S    
O22   P2    D    
C37   P5    S    
C42   C48   S    
O17   P8    S    
O2    P2    S    
C9    C18   A    
C7    H16   S    
C13   P8    S    
C50   H49   S    
C56   H69   S    
C53   H60   S    
Ba1   O18   S    
C37   C38   A    
C34   O7    S    
C5    O11   S    
O15   P7    S    
C17   C21   A    
C41   C42   S    
C27   C28   A    
O18   P6    S    
C29   C30   A    
C7    O17   S    
C26   P2    S    
C1    H6    S    
C44   H8    S    
C6    C52   S    
C15   C16   A    
C35   P7    S    
C55   H66   S    
Ba2   O8    S    
C54   H63   S    
Ba2   O13   S    
Ba1   P1    S    
C47   H40   S    
C1    H11   S    
C40   C46   S    
C29   H26   S    
C26   C31   A    
Ba1   O13   S    
C39   C56   S    
C48   H43   S    
C11   C24   A    
C23   H12   S    
C12   O3    S    
C4    Cl5   S    
C49   H46   S    
Ba1   O22   S    
C5    H14   S    
C52   H57   S    
C41   H2    S    
C42   H4    S    
C50   H50   S    
C10   C22   A    
C11   H22   S    
C16   C20   A    
C3    H9    S    
Ba2   O14   S    
C43   O2    S    
C14   H23   S    
C4    H10   S    
C49   H47   S    
C34   H33   S    
C8    Cl6   S    
C24   P4    S    
C44   Cl3   S    
C51   H52   S    
C10   P1    S    
O14   P7    D    
C8    H18   S    
C46   H39   S    
C23   H30   S    
C25   C33   A    
C30   C31   A    
C17   C18   A    
C11   C13   A    
C33   C38   A    
C4    Cl4   S    
O11   P5    S    
C34   H32   S    
C53   H58   S    
C51   H53   S    
C28   C29   A    
C40   Cl1   S    
C36   C37   A    
C44   H7    S    
C15   C17   A    
C12   H19   S    
O4    P4    D    
C46   H37   S    
C6    C53   S    
O24   P3    D    
C1    C50   S    
O3    P3    S    
C12   C23   S    
Ba2   O12   S    
C47   H41   S    
O6    P8    S    
O13   P2    S    
C18   C19   A    
O23   P3    S    
C48   H44   S    
Ba1   O1    S    
O16   P8    D    
C54   H61   S    
Ba1   O23   S    
C20   H24   S    
C45   H36   S    
C1    C2    S    
Ba1   P2    S    
C27   H25   S    
C2    H1    S    
