data_mof_unit_10291.cif
_audit_creation_date              2013-03-05T16:11:14-0500
_audit_creation_method            fapswitch 2.2
_symmetry_space_group_name_H-M    P1
_symmetry_Int_Tables_number       1
_space_group_crystal_system       triclinic
_cell_length_a                    6.954121
_cell_length_b                    20.549697
_cell_length_c                    24.468617
_cell_angle_alpha                 90.147722
_cell_angle_beta                  90.291916
_cell_angle_gamma                 89.243613
_cell_volume                      3496.3285588

loop_
_atom_site_label
_atom_site_type_symbol
_atom_site_description
_atom_site_fract_x
_atom_site_fract_y
_atom_site_fract_z
_atom_type_partial_charge
O1    O     O_R   0.507280 0.423750 0.460310 -0.588775
O2    O     O_R   0.171030 0.555650 0.437630 -0.575361
O3    O     O_R   0.004080 0.576250 0.539690 -0.591861
C1    C     C_R   0.338962 0.575612 0.421762 0.968109
O4    O     O_R   0.177330 0.422980 0.453960 -0.588396
O5    O     O_R   0.010420 0.442640 0.556140 -0.591194
C2    C     C_R   0.346973 0.399275 0.443021 0.931470
O6    O     O_R   0.500930 0.557360 0.443860 -0.586727
O7    O     O_3   0.340310 0.506600 0.533500 -0.275289
V1    V     V_3+5 0.064140 0.498780 0.493780 1.187271
O8    O     O_R   0.680890 0.444350 0.562370 -0.592061
C3    C     C_R   0.850635 0.424448 0.578171 0.975727
O9    O     O_R   0.674590 0.577020 0.546040 -0.591934
C4    C     C_R   0.842274 0.600897 0.556766 0.926089
V2    V     V_3+5 0.564550 0.501220 0.506220 1.177169
O10   O     O_3   0.838250 0.493400 0.466500 -0.261753
C5    C     C_R   0.978330 0.837975 0.911424 -0.160042
C6    C     C_R   0.845964 0.661311 0.589330 -0.100966
C7    C     C_R   0.057606 0.722756 0.906222 0.338379
C8    C     C_R   0.041655 0.780580 0.936118 -0.216317
C9    C     C_R   0.930694 0.838125 0.855679 -0.239253
C10   C     C_R   0.946130 0.780528 0.823356 0.100540
C11   C     C_R   0.007031 0.722111 0.849913 -0.017230
C12   C     C_R   0.904438 0.779074 0.765662 0.093401
C13   C     C_R   0.919312 0.718993 0.735777 0.057317
C14   C     C_R   0.970838 0.662204 0.764722 -0.206340
C15   C     C_R   0.012795 0.663806 0.820171 -0.104849
C16   C     C_R   0.849555 0.835793 0.736735 -0.201336
C17   C     C_R   0.809568 0.834147 0.681131 -0.240804
C18   C     C_R   0.823282 0.776231 0.651602 0.185243
C19   C     C_R   0.879780 0.717588 0.678033 0.110135
C20   C     C_R   0.779131 0.776768 0.595562 -0.176804
C21   C     C_R   0.788464 0.719716 0.564908 -0.163942
C22   C     C_R   0.892699 0.660143 0.645323 -0.238130
H1    H     H_    0.047951 0.617978 0.839662 0.190511
H2    H     H_    0.934913 0.613599 0.661951 0.106955
H3    H     H_    0.750043 0.721054 0.521947 0.110711
H4    H     H_    0.767121 0.879039 0.660939 0.133348
H5    H     H_    0.083902 0.781187 0.978834 0.185418
H6    H     H_    0.885483 0.884264 0.838922 0.104018
H7    H     H_    0.979622 0.614977 0.745720 0.139335
H8    H     H_    0.836180 0.882876 0.755748 0.130176
H9    H     H_    0.734860 0.821495 0.575455 0.116186
H10   H     H_    0.649210 0.238011 0.815762 0.172749
C23   C     C_R   0.747198 0.287333 0.743914 -0.167414
H11   H     H_    0.615236 0.315536 0.739736 0.147766
C24   C     C_R   0.896974 0.295245 0.706472 0.121454
C25   C     C_R   0.066513 0.258130 0.712837 -0.201895
H12   H     H_    0.182637 0.264235 0.683985 0.128572
C26   C     C_R   0.087021 0.213074 0.756049 0.296735
C27   C     C_R   0.935006 0.205297 0.793614 0.112140
C28   C     C_R   0.766419 0.242948 0.787164 -0.177777
C29   C     C_1   0.877410 0.341266 0.661518 0.005053
C30   C     C_1   0.949524 0.159236 0.838846 0.053250
C31   C     C_1   0.961334 0.120959 0.876561 -0.216479
C32   C     C_1   0.863452 0.379392 0.623724 -0.293243
H13   H     H_    0.640557 0.745227 0.324354 0.157547
C33   C     C_R   0.562006 0.789328 0.247843 -0.126331
H14   H     H_    0.684870 0.821201 0.248473 0.152343
C34   C     C_R   0.431050 0.791893 0.204137 -0.033567
C35   C     C_R   0.270489 0.750074 0.204429 0.217388
C36   C     C_R   0.244012 0.706167 0.248739 0.220729
C37   C     C_R   0.378129 0.704414 0.292521 -0.047076
C38   C     C_R   0.536017 0.746162 0.291368 -0.152297
C39   C     C_1   0.458430 0.839400 0.160401 0.154508
C40   C     C_1   0.360363 0.658621 0.337967 0.161484
C41   C     C_1   0.348030 0.620661 0.375969 -0.257862
C42   C     C_1   0.475270 0.878490 0.123388 -0.245437
C43   C     C_R   0.467046 0.163240 0.087164 -0.297637
C44   C     C_R   0.357527 0.339053 0.410179 -0.106280
C45   C     C_R   0.436101 0.281393 0.088221 0.251594
C46   C     C_R   0.445938 0.222250 0.058921 0.237434
C47   C     C_R   0.462866 0.162915 0.144398 -0.254741
C48   C     C_R   0.445408 0.221426 0.175219 0.093784
C49   C     C_R   0.450556 0.281537 0.146436 -0.195451
C50   C     C_R   0.423803 0.221925 0.233655 0.104575
C51   C     C_R   0.422897 0.282296 0.263050 0.006452
C52   C     C_R   0.453991 0.339732 0.233492 -0.290441
C53   C     C_R   0.470886 0.340027 0.176685 0.372751
C54   C     C_R   0.397076 0.164020 0.263513 -0.186441
C55   C     C_R   0.373093 0.164800 0.319801 -0.244161
C56   C     C_R   0.371155 0.223170 0.348919 0.182023
C57   C     C_R   0.395185 0.283128 0.321311 0.137129
C58   C     C_R   0.342540 0.221759 0.405670 -0.176181
C59   C     C_R   0.335564 0.279170 0.435943 -0.167326
C60   C     C_R   0.386903 0.341227 0.353347 -0.223526
H15   H     H_    0.399159 0.388908 0.335616 0.119938
H16   H     H_    0.312427 0.276909 0.479652 0.109200
H17   H     H_    0.352801 0.118975 0.340737 0.131885
H18   H     H_    0.475628 0.115931 0.163612 0.111120
H19   H     H_    0.472982 0.385751 0.253772 0.175553
H20   H     H_    0.389261 0.116856 0.244454 0.126306
H21   H     H_    0.324223 0.175931 0.426728 0.116840
O11   O     O_R   0.323320 0.942780 0.056240 -0.586599
O12   O     O_R   0.647300 0.077050 0.046060 -0.579438
O13   O     O_R   0.813840 0.057330 0.943840 -0.571219
C61   C     C_R   0.477742 0.101032 0.056771 1.037338
O14   O     O_R   0.653250 0.944380 0.062400 -0.589365
O15   O     O_R   0.819830 0.923720 0.960300 -0.588588
C62   C     C_R   0.485251 0.924382 0.078226 0.961490
O16   O     O_R   0.317330 0.076390 0.039790 -0.589176
O17   O     O_3   0.483830 0.993470 0.966560 -0.273345
V3    V     V_3+5 0.760140 0.001210 0.006210 1.215954
O18   O     O_R   0.149290 0.922840 0.953850 -0.595805
C63   C     C_R   0.981567 0.898922 0.943300 0.957326
O19   O     O_R   0.143340 0.055500 0.937510 -0.585223
C64   C     C_R   0.973663 0.075637 0.921899 0.997262
V4    V     V_3+5 0.259690 0.998600 0.993650 1.211529
O20   O     O_3   0.986130 0.006520 0.033440 -0.277608
C65   C     C_3   0.270311 0.173778 0.761604 -1.015900
H22   H     H_    0.376371 0.186614 0.729725 0.248687
H23   H     H_    0.336318 0.182893 0.802258 0.270529
H24   H     H_    0.238439 0.121167 0.757701 0.246939
N1    N     N_R   0.131001 0.753548 0.160900 0.262932
O21   O     O_R   0.948400 0.757822 0.171880 -0.359544
O22   O     O_R   0.185808 0.753341 0.110129 -0.326784
N2    N     N_R   0.084983 0.662149 0.248163 0.263078
O23   O     O_R   0.979247 0.655052 0.291408 -0.403705
O24   O     O_R   0.047309 0.628052 0.204614 -0.241888
N3    N     N_R   0.529076 0.399506 0.151299 0.265259
O25   O     O_R   0.450201 0.454605 0.165890 -0.279265
O26   O     O_R   0.684664 0.400114 0.121984 -0.281102
N4    N     N_R   0.397101 0.340439 0.058649 0.277379
O27   O     O_R   0.503924 0.356566 0.017446 -0.242099
O28   O     O_R   0.244067 0.375029 0.069739 -0.266186
N5    N     N_R   0.427080 0.222088 0.000379 0.246866
O29   O     O_R   0.556519 0.193459 0.970174 -0.387997
O30   O     O_R   0.276730 0.248630 0.977189 -0.324227
N6    N     N_R   0.132586 0.665866 0.933398 0.242461
O31   O     O_R   0.078184 0.652769 0.982930 -0.262708
O32   O     O_R   0.281139 0.635013 0.913453 -0.352139

loop_
_geom_bond_atom_site_label_1
_geom_bond_atom_site_label_2
_geom_bond_distance
_ccdc_geom_bond_type
C7    N6    1.437066 S    
O15   V3    1.986966 S    
C13   C19   1.438335 A    
N5    O29   1.301204 A    
C47   C48   1.421849 A    
C4    C6    1.473904 S    
C7    C11   1.420331 A    
C7    C8    1.397238 A    
C1    O6    1.298221 A    
C2    C44   1.475049 S    
C55   C56   1.393479 A    
N4    O27   1.301508 A    
C23   H11   1.083417 S    
C29   C32   1.216253 T    
O11   V4    1.961076 S    
C14   C15   1.386711 A    
C36   C37   1.417025 A    
C48   C50   1.438472 A    
C45   N4    1.436388 S    
C16   C17   1.387708 A    
C47   H18   1.077387 S    
N2    O24   1.301236 A    
O5    C3    1.297359 A    
C18   C19   1.419096 A    
N4    O28   1.301320 A    
O19   C64   1.301063 A    
C51   C57   1.439531 A    
C33   C34   1.401753 A    
V2    O10   2.145478 S    
C26   C65   1.505606 S    
C5    C8    1.391894 A    
V4    O20   2.145529 S    
C65   H22   1.110888 S    
C36   N2    1.437933 S    
O8    V2    1.969757 S    
O12   V3    1.990751 S    
C17   H4    1.084409 S    
O17   V4    1.698779 S    
O1    V2    1.989449 S    
C11   C15   1.400481 A    
O7    V1    2.155718 S    
C24   C29   1.457135 S    
C55   H17   1.084364 S    
H10   C28   1.082913 S    
O16   V4    1.998418 S    
C25   C26   1.412646 A    
C40   C41   1.219329 T    
C37   C40   1.465352 S    
O1    C2    1.297534 A    
O9    C4    1.296425 A    
C35   C36   1.426530 A    
O18   C63   1.296157 A    
N3    O26   1.301413 A    
N1    O21   1.301066 A    
C65   H23   1.109935 S    
C50   C51   1.432386 A    
C23   C24   1.401993 A    
C33   C38   1.401708 A    
O15   C63   1.298569 A    
C45   C49   1.427478 A    
C48   C49   1.424449 A    
C27   C28   1.404567 A    
C50   C54   1.412766 A    
C12   C13   1.436136 A    
O4    C2    1.299248 A    
C8    H5    1.084331 S    
C52   C53   1.395563 A    
C23   C28   1.403576 A    
C15   H1    1.081280 S    
C33   H14   1.083446 S    
C51   C52   1.405574 A    
C5    C9    1.402027 A    
C31   C64   1.451798 S    
C34   C35   1.417997 A    
C54   H20   1.076385 S    
C43   C46   1.402912 A    
O2    C1    1.304193 A    
C42   C62   1.457130 S    
C17   C18   1.393156 A    
C5    C63   1.474113 S    
C24   C25   1.403924 A    
O11   C62   1.297710 A    
C39   C42   1.219216 T    
C53   N3    1.436332 S    
C26   C27   1.415288 A    
C19   C22   1.426622 A    
C58   C59   1.391853 A    
C43   C47   1.400919 A    
C6    C22   1.406680 A    
C65   H24   1.110275 S    
C3    C32   1.452494 S    
O3    C4    1.298408 A    
C25   H12   1.084060 S    
O13   C64   1.297371 A    
C34   C39   1.465253 S    
O6    V2    1.960523 S    
O14   C62   1.304543 A    
O9    V2    1.994316 S    
C10   C12   1.440018 A    
C44   C60   1.407441 A    
O18   V4    1.994412 S    
N3    O25   1.301494 A    
H13   C38   1.083536 S    
N6    O31   1.301338 A    
C59   H16   1.083554 S    
C30   C31   1.215876 T    
N5    O30   1.301201 A    
C60   H15   1.077194 S    
C12   C16   1.412428 A    
C54   C55   1.388218 A    
O5    V1    1.955762 S    
C1    C41   1.457430 S    
N1    O22   1.301273 A    
O8    C3    1.301369 A    
O12   C61   1.299629 A    
C52   H19   1.076196 S    
C56   C58   1.404248 A    
V3    O20   1.708546 S    
C27   C30   1.460414 S    
C20   C21   1.391166 A    
C13   C14   1.408026 A    
C45   C46   1.410535 A    
O3    V1    1.987156 S    
V1    O10   1.708487 S    
N2    O23   1.301223 A    
C18   C20   1.403677 A    
C9    H6    1.076452 S    
O19   V4    1.969977 S    
C16   H8    1.075634 S    
C20   H9    1.083955 S    
C22   H2    1.076979 S    
C58   H21   1.083930 S    
O7    V2    1.701518 S    
O17   V3    2.155681 S    
C6    C21   1.395007 A    
C21   H3    1.083614 S    
C37   C38   1.402724 A    
O4    V1    1.990693 S    
C57   C60   1.427255 A    
C56   C57   1.418908 A    
O13   V3    1.955683 S    
C46   N5    1.437786 S    
C35   N1    1.438226 S    
C10   C11   1.424951 A    
C9    C10   1.424995 A    
C44   C59   1.394642 A    
C49   C53   1.418232 A    
C61   O16   1.297138 A    
O14   V3    1.961713 S    
C14   H7    1.076181 S    
C43   C61   1.478498 S    
N6    O32   1.301369 A    
O2    V1    1.961522 S    
