data_mof_unit_5738.cif
_audit_creation_date              2012-12-11T15:29:23-0500
_audit_creation_method            fapswitch 2.2
_symmetry_space_group_name_H-M    P1
_symmetry_Int_Tables_number       1
_space_group_crystal_system       triclinic
_cell_length_a                    13.478882
_cell_length_b                    13.488189
_cell_length_c                    27.58294
_cell_angle_alpha                 90.552424
_cell_angle_beta                  90.035178
_cell_angle_gamma                 60.109609
_cell_volume                      4347.42457657

loop_
_atom_site_label
_atom_site_type_symbol
_atom_type_description
_atom_site_fract_x
_atom_site_fract_y
_atom_site_fract_z
_atom_type_partial_charge
C1    C     C_R   0.620275 0.101126 0.569865 0.545356
C2    C     C_1   0.631042 0.732364 0.616054 -0.014113
C3    C     C_3   0.687704 0.566461 0.767503 -0.094189
C4    C     C_3   0.679708 0.656132 0.804582 0.048648
C5    C     C_3   0.582520 0.661599 0.740986 -0.095457
C6    C     C_3   0.663632 0.684581 0.710162 0.055596
C7    C     C_3   0.574741 0.750854 0.778770 -0.106512
C8    C     C_3   0.655690 0.774322 0.747202 -0.102834
C9    C     C_1   0.688405 0.634826 0.856751 -0.061054
C10   C     C_1   0.649525 0.705563 0.657995 -0.053780
C11   C     C_3   0.064205 0.215711 0.736680 -0.100400
C12   C     C_R   0.599697 0.779348 0.568499 0.546025
C13   C     C_3   0.102495 0.112415 0.770840 -0.090821
C14   C     C_1   0.098681 0.199628 0.900477 -0.017989
C15   C     C_1   0.230996 0.137071 0.617384 -0.025434
C16   C     C_3   0.111657 0.270052 0.772886 -0.101878
C17   C     C_3   0.150382 0.166625 0.806275 0.047414
C18   C     C_3   0.229706 0.207240 0.747288 -0.100364
C19   C     C_3   0.181866 0.153042 0.711784 0.053929
C20   C     C_3   0.268091 0.104006 0.781411 -0.107005
C21   C     C_3   0.220741 0.049473 0.745103 -0.094634
C22   C     C_1   0.127224 0.180127 0.858507 -0.060354
C23   C     C_R   0.277996 0.121508 0.569475 0.544843
C24   C     C_1   0.203958 0.145647 0.659504 -0.067953
C25   C     C_3   0.610465 0.275810 0.740666 0.119309
C26   C     C_3   0.549252 0.242003 0.778599 -0.104957
C27   C     C_1   0.690891 0.206150 0.901756 -0.016122
C28   C     C_1   0.634743 0.132530 0.617923 -0.010493
C29   C     C_3   0.721864 0.221316 0.770111 -0.076041
C30   C     C_3   0.661753 0.183986 0.807581 0.024042
C31   C     C_3   0.760450 0.107712 0.742202 0.008692
C32   C     C_3   0.649621 0.164565 0.712508 0.067059
C33   C     C_3   0.702287 0.069659 0.780368 -0.117364
C34   C     C_R   0.622042 0.100327 0.431606 0.542847
C35   C     C_3   0.589962 0.127614 0.750316 -0.136199
C36   C     C_1   0.673562 0.194875 0.859795 -0.058944
C37   C     C_1   0.642354 0.150778 0.660150 -0.040926
C38   C     C_R   0.639786 0.722093 0.383042 0.023340
C39   C     C_R   0.724107 0.734003 0.358218 -0.127065
C40   C     C_R   0.737027 0.715880 0.308649 -0.124508
C41   C     C_R   0.668457 0.682036 0.283435 0.036524
C42   C     C_R   0.592435 0.658705 0.308982 -0.123130
C43   C     C_R   0.577524 0.679445 0.358601 -0.133326
C44   C     C_R   0.576137 0.705658 0.202996 -0.118182
C45   C     C_R   0.601917 0.776790 0.430464 0.540499
C46   C     C_R   0.585104 0.682864 0.153486 -0.125158
C47   C     C_R   0.790279 0.607492 0.157893 -0.126913
C48   C     C_R   0.781689 0.627595 0.207362 -0.123067
C49   C     C_R   0.675237 0.672751 0.230532 0.038079
C50   C     C_R   0.693037 0.628815 0.131184 0.024871
C51   C     C_R   0.230304 0.134050 0.382769 0.026421
C52   C     C_R   0.269229 0.036855 0.352846 -0.125558
C53   C     C_R   0.247033 0.048621 0.303639 -0.124049
C54   C     C_R   0.182316 0.157675 0.283705 0.034952
C55   C     C_R   0.136668 0.254764 0.314256 -0.118303
C56   C     C_R   0.279393 0.119729 0.430959 0.540691
C57   C     C_R   0.162031 0.243066 0.363503 -0.128235
C58   C     C_R   0.162613 0.261771 0.207160 -0.131965
C59   C     C_R   0.134081 0.279726 0.158515 -0.149107
C60   C     C_R   0.123919 0.104433 0.155107 0.083969
C61   C     C_R   0.148412 0.089757 0.204579 -0.107031
C62   C     C_R   0.164425 0.169834 0.231082 0.013911
C63   C     C_R   0.109046 0.204829 0.132580 0.044147
C64   C     C_R   0.643758 0.141654 0.386174 0.023472
C65   C     C_R   0.558107 0.244179 0.365951 -0.124832
C66   C     C_R   0.568508 0.271772 0.318455 -0.121434
C67   C     C_3   0.768693 0.589819 0.735913 -0.097795
C68   C     C_R   0.664841 0.197523 0.290851 0.037456
C69   C     C_R   0.753388 0.098686 0.312062 -0.118769
C70   C     C_R   0.743195 0.071224 0.359422 -0.128389
C71   C     C_R   0.776751 0.196788 0.220160 -0.132634
C72   C     C_R   0.790064 0.200089 0.170774 -0.125755
C73   C     C_R   0.590301 0.254443 0.157890 -0.022265
C74   C     C_R   0.578171 0.249458 0.208272 -0.117822
C75   C     C_R   0.671975 0.218295 0.239245 0.017818
C76   C     C_R   0.698735 0.226475 0.139187 0.026230
C77   C     C_R   0.050098 0.234754 0.948028 0.541051
C78   C     C_3   0.760987 0.679091 0.773841 -0.102727
C79   C     C_R   0.712007 0.561929 0.946416 0.544726
C80   C     C_R   0.722400 0.223950 0.949248 0.542313
C81   C     C_R   0.049132 0.242950 0.086077 0.545674
C82   C     C_R   0.709337 0.572255 0.084272 0.539916
C83   C     C_R   0.721515 0.234199 0.088132 0.530653
C84   C     C_1   0.697326 0.608061 0.898718 -0.017993
Cr1   Cr    Cr6+3 0.417550 0.169090 0.500530 1.022123
Cr2   Cr    Cr6+3 0.669180 0.913420 0.499920 1.021799
Cr3   Cr    Cr6+3 0.413260 0.917540 0.499520 1.018245
Cr4   Cr    Cr6+3 0.909770 0.175810 0.018240 1.036272
Cr5   Cr    Cr6+3 0.913300 0.427650 0.016090 1.004983
Cr6   Cr    Cr6+3 0.657770 0.431010 0.016900 1.033417
H1    H     H_    0.834023 0.686779 0.787976 0.100811
H2    H     H_    0.351739 0.058214 0.800199 0.099108
H3    H     H_    0.282063 0.246483 0.737058 0.103934
H4    H     H_    0.066744 0.361010 0.784865 0.105598
H5    H     H_    0.462259 0.298364 0.793694 0.102749
H6    H     H_    0.535837 0.089117 0.741716 0.101755
H7    H     H_    0.738209 0.984847 0.797771 0.100704
H8    H     H_    0.775540 0.260509 0.778354 0.097962
H9    H     H_    0.773575 0.766745 0.376169 0.131239
H10   H     H_    0.848083 0.523468 0.717819 0.103187
H11   H     H_    0.492487 0.744698 0.220015 0.098705
H12   H     H_    0.508968 0.701051 0.133326 0.123357
H13   H     H_    0.796186 0.734596 0.289840 0.101411
H14   H     H_    0.859472 0.601174 0.227726 0.098185
H15   H     H_    0.874827 0.565556 0.141595 0.130455
H16   H     H_    0.541774 0.628277 0.290379 0.103562
H17   H     H_    0.512867 0.668573 0.377193 0.124285
H18   H     H_    0.324217 0.951704 0.366715 0.137331
H19   H     H_    0.179505 0.322142 0.226394 0.105766
H20   H     H_    0.125063 0.356289 0.142067 0.131262
H21   H     H_    0.642691 0.860033 0.738176 0.104021
H22   H     H_    0.285180 0.972351 0.281039 0.100223
H23   H     H_    0.150780 0.017706 0.222626 0.092935
H24   H     H_    0.083710 0.339752 0.299940 0.103510
H25   H     H_    0.131663 0.318839 0.386154 0.120193
H26   H     H_    0.480614 0.300348 0.385941 0.127917
H27   H     H_    0.849224 0.175645 0.243481 0.116039
H28   H     H_    0.872419 0.183407 0.157143 0.161067
H29   H     H_    0.500247 0.349300 0.302901 0.099093
H30   H     H_    0.497173 0.264822 0.223067 0.108673
H31   H     H_    0.495255 0.817152 0.796825 0.101087
H32   H     H_    0.828175 0.039450 0.291248 0.104248
H33   H     H_    0.810331 0.991623 0.374019 0.125873
H34   H     H_    0.509300 0.654202 0.726873 0.108600
H35   H     H_    0.701170 0.480633 0.776586 0.111552
H36   H     H_    0.050292 0.073186 0.781269 0.123307
H37   H     H_    0.980545 0.261758 0.717923 0.101169
H38   H     H_    0.265656 0.958582 0.733057 0.106224
O1    O     O_R   0.301780 0.195490 0.553940 -0.506222
O2    O     O_R   0.658840 0.818280 0.449970 -0.505864
O3    O     O_R   0.503160 0.801780 0.445740 -0.523470
O4    O     O_R   0.319320 0.022190 0.450230 -0.505893
O5    O     O_3   0.499990 0.000010 0.499990 -0.244641
O6    O     O_R   0.819250 0.149410 0.965240 -0.507891
O7    O     O_R   0.006940 0.180310 0.968270 -0.494571
O8    O     O_R   0.028420 0.332670 0.963010 -0.513274
O9    O     O_R   0.810130 0.520390 0.966030 -0.494252
O10   O     O_R   0.636050 0.541380 0.962520 -0.507774
O11   O     O_R   0.666480 0.323610 0.968170 -0.493515
O12   O     O_R   0.522450 0.158840 0.550250 -0.495552
O13   O     O_R   0.817280 0.156800 0.072180 -0.509632
O14   O     O_R   0.005110 0.187160 0.067410 -0.465840
O15   O     O_R   0.026450 0.340060 0.069950 -0.542388
O16   O     O_R   0.808300 0.527240 0.065170 -0.508134
O17   O     O_R   0.634070 0.548770 0.069460 -0.514498
O18   O     O_R   0.664650 0.330470 0.067300 -0.487196
O19   O     O_3   0.826940 0.344820 0.017080 -0.249126
O20   O     O_R   0.694460 0.003360 0.553820 -0.504172
O21   O     O_R   0.657750 0.819520 0.549120 -0.493403
O22   O     O_R   0.501990 0.803120 0.552700 -0.508172
O23   O     O_R   0.318230 0.023430 0.549370 -0.496345
O24   O     O_R   0.302950 0.194150 0.446980 -0.516319
O25   O     O_R   0.523540 0.157600 0.451100 -0.503219
O26   O     O_R   0.695630 0.002030 0.446860 -0.523120
N1    N     N_3   0.561174 0.387837 0.718407 -0.639581
H39   H     H_    0.536617 0.448213 0.746473 0.217079
H40   H     H_    0.486123 0.402927 0.700978 0.229002
C85   C     C_R   0.877822 0.036916 0.720366 0.026791
C86   C     C_R   0.951503 0.924595 0.735697 -0.098138
C87   C     C_R   0.060214 0.860135 0.714805 -0.117090
C88   C     C_R   0.095691 0.906961 0.678343 -0.103315
C89   C     C_R   0.022669 0.018497 0.662827 -0.104693
C90   C     C_R   0.914423 0.083590 0.683946 -0.099439
H41   H     H_    0.925562 0.886684 0.763773 0.096465
H42   H     H_    0.116908 0.773747 0.726832 0.103623
H43   H     H_    0.179804 0.856953 0.662192 0.111265
H44   H     H_    0.050063 0.054713 0.634560 0.116813
H45   H     H_    0.858942 0.170226 0.671811 0.115382
N2    N     N_3   0.109340 0.020427 0.128443 -0.605425
H46   H     H_    0.176942 0.981461 0.103590 0.224822
H47   H     H_    0.116332 0.955839 0.151285 0.210749
C91   C     C_R   0.490822 0.284489 0.126010 0.036909
C92   C     C_R   0.385742 0.384323 0.135152 -0.093646
C93   C     C_R   0.291585 0.412565 0.105335 -0.121569
C94   C     C_R   0.301097 0.340919 0.066533 -0.101091
C95   C     C_R   0.404880 0.240972 0.057427 -0.109189
C96   C     C_R   0.499456 0.212655 0.087000 -0.081579
H48   H     H_    0.377040 0.440740 0.165077 0.096987
H49   H     H_    0.211051 0.489824 0.112430 0.099344
H50   H     H_    0.227960 0.362657 0.043630 0.131502
H51   H     H_    0.411987 0.185250 0.027509 0.107866
H52   H     H_    0.578922 0.134242 0.079776 0.102056

loop_
_geom_bond_atom_site_label_1
_geom_bond_atom_site_label_2
_ccdc_geom_bond_type
C91   C96   A    
C58   C62   A    
C66   C68   A    
C4    C9    S    
C25   N1    S    
C58   H19   S    
C73   C74   A    
Cr3   O5    S    
C81   O14   A    
C72   C76   A    
C2    C12   S    
C17   C20   S    
Cr6   O11   S    
C7    C8    S    
C57   H25   S    
C35   H6    S    
C52   C53   A    
C68   C75   S    
C46   H12   S    
C5    H34   S    
C11   C19   S    
C29   C30   S    
C29   H8    S    
C63   C81   S    
C60   C63   A    
C60   N2    S    
C92   H48   S    
C19   C21   S    
C51   C56   S    
Cr6   O17   S    
C5    C6    S    
N1    H40   S    
C96   H52   S    
C48   H14   S    
C59   H20   S    
C80   O6    A    
C23   O1    A    
C18   C19   S    
C41   C42   A    
C14   C77   S    
Cr3   O3    S    
C93   C94   A    
C38   C45   S    
Cr1   O1    S    
C70   H33   S    
C41   C49   S    
C47   C48   A    
C28   C37   T    
C16   C17   S    
C47   H15   S    
Cr3   O22   S    
C1    C28   S    
C31   C33   S    
C51   C57   A    
C77   O8    A    
C64   C70   A    
C56   O24   A    
C18   C20   S    
C88   H43   S    
C61   C62   A    
C25   C32   S    
C15   C23   S    
C45   O2    A    
Cr5   O8    S    
Cr3   O23   S    
C8    C78   S    
N2    H47   S    
Cr1   O25   S    
C67   C78   S    
C7    H31   S    
C4    C7    S    
C76   C83   S    
Cr4   O14   S    
Cr6   O10   S    
C44   C46   A    
C88   C89   A    
C47   C50   A    
C34   O26   A    
C25   C29   S    
C95   H51   S    
C3    C67   S    
C43   H17   S    
C74   C75   A    
C71   H27   S    
C51   C52   A    
C32   C35   S    
C12   O22   A    
C38   C39   A    
C82   O16   A    
C27   C80   S    
Cr2   O21   S    
C39   C40   A    
C5    C7    S    
C68   C69   A    
C6    C8    S    
C54   C62   S    
C25   C26   S    
C53   C54   A    
C44   C49   A    
C60   C61   A    
C73   C91   S    
Cr3   O4    S    
C11   H37   S    
C4    C78   S    
Cr6   O19   S    
C83   O18   A    
C20   H2    S    
C11   C16   S    
Cr2   O5    S    
C39   H9    S    
C86   C87   A    
C34   C64   S    
C13   C21   S    
N2    H46   S    
C15   C24   T    
C32   C37   S    
C20   C21   S    
C21   H38   S    
C42   H16   S    
Cr1   O12   S    
C56   O4    A    
C1    O12   A    
C85   C90   A    
C13   H36   S    
C67   H10   S    
C53   H22   S    
C16   C18   S    
C95   C96   A    
C79   O9    A    
C26   C30   S    
Cr5   O9    S    
C66   H29   S    
C55   C57   A    
C61   H23   S    
C85   C86   A    
C27   C36   T    
C65   H26   S    
C8    H21   S    
C42   C43   A    
C3    C4    S    
Cr5   O16   S    
C6    C67   S    
C82   O17   A    
C91   C92   A    
C50   C82   S    
C83   O13   A    
C89   C90   A    
C34   O25   A    
C26   H5    S    
Cr5   O19   S    
C23   O23   A    
C54   C55   A    
C40   C41   A    
C30   C33   S    
C59   C63   A    
C12   O21   A    
C31   C32   S    
Cr2   O2    S    
Cr4   O7    S    
C3    C5    S    
Cr2   O20   S    
C6    C10   S    
C44   H11   S    
C3    H35   S    
C45   O3    A    
C94   H50   S    
C55   H24   S    
C13   C17   S    
C78   H1    S    
C80   O11   A    
C74   H30   S    
C46   C50   A    
C16   H4    S    
C17   C22   S    
C30   C36   S    
C64   C65   A    
C14   C22   T    
C87   H42   S    
C19   C24   S    
C58   C59   A    
Cr1   O24   S    
Cr4   O6    S    
C38   C43   A    
Cr6   O18   S    
C94   C95   A    
Cr5   O15   S    
C87   C88   A    
C40   H13   S    
C71   C75   A    
C11   C13   S    
C79   C84   S    
C69   H32   S    
C48   C49   A    
C33   C35   S    
Cr4   O19   S    
C90   H45   S    
C33   H7    S    
Cr2   O26   S    
C69   C70   A    
C31   C85   S    
C9    C84   T    
C92   C93   A    
C89   H44   S    
C26   C35   S    
C81   O15   A    
C79   O10   A    
C71   C72   A    
C73   C76   A    
C52   H18   S    
C29   C31   S    
C65   C66   A    
C72   H28   S    
N1    H39   S    
C18   H3    S    
C86   H41   S    
C1    O20   A    
C77   O7    A    
Cr4   O13   S    
C93   H49   S    
Cr1   O5    S    
C2    C10   T    
