data_mof_unit_18512.cif
_audit_creation_date              2012-12-10T16:50:17-0500
_audit_creation_method            fapswitch 2.2
_symmetry_space_group_name_H-M    P1
_symmetry_Int_Tables_number       1
_space_group_crystal_system       triclinic
_cell_length_a                    23.467248
_cell_length_b                    8.748689
_cell_length_c                    7.496695
_cell_angle_alpha                 103.341461
_cell_angle_beta                  93.678679
_cell_angle_gamma                 93.220757
_cell_volume                      1490.50611588

loop_
_atom_site_label
_atom_site_type_symbol
_atom_type_description
_atom_site_fract_x
_atom_site_fract_y
_atom_site_fract_z
_atom_type_partial_charge
C1    C     C_R   0.497714 0.200282 0.454074 0.865821
C2    C     C_R   0.699927 0.570665 0.374503 -0.207820
C3    C     C_R   0.240661 0.428977 0.624807 -0.082025
C4    C     C_R   0.759339 0.571005 0.375181 -0.082029
C5    C     C_R   0.209917 0.505931 0.509160 0.323437
C6    C     C_R   0.790084 0.494065 0.490843 0.323439
C7    C     C_2   0.489204 0.033777 0.433695 0.131977
C8    C     C_2   0.510796 0.966223 0.566305 0.131978
C9    C     C_R   0.391300 0.500464 0.502849 0.795259
C10   C     C_R   0.608700 0.499536 0.497151 0.795266
C11   C     C_R   0.883925 0.558374 0.655180 0.541172
C12   C     C_R   0.502286 0.799718 0.545926 0.865826
C13   C     C_R   0.116076 0.441626 0.344821 0.541171
C14   C     C_R   0.876260 0.435358 0.333894 0.548100
C15   C     C_R   0.123741 0.564631 0.666111 0.548101
C16   C     C_R   0.936017 0.437202 0.332926 -0.014880
C17   C     C_R   0.063984 0.562789 0.667078 -0.014881
C18   C     C_R   0.969909 0.499214 0.498621 -0.018518
C19   C     C_R   0.030092 0.500780 0.501383 -0.018517
C20   C     C_R   0.943777 0.559700 0.661557 -0.017362
C21   C     C_R   0.056224 0.440297 0.338445 -0.017364
C22   C     C_R   0.962542 0.378014 0.170893 -0.163177
C23   C     C_R   0.239279 0.582915 0.393930 -0.083864
C24   C     C_R   0.037459 0.621977 0.829111 -0.163179
C25   C     C_R   0.022040 0.379506 0.173638 -0.173003
C26   C     C_R   0.977961 0.620490 0.826365 -0.173001
C27   C     C_2   0.429819 0.398084 0.950443 0.778009
C28   C     C_2   0.570181 0.601914 0.049558 0.778020
C29   C     C_R   0.760721 0.417096 0.606087 -0.083868
C30   C     C_R   0.298520 0.580601 0.391956 -0.193819
C31   C     C_R   0.701480 0.419412 0.608060 -0.193820
C32   C     C_R   0.329230 0.504372 0.508310 -0.021011
C33   C     C_R   0.670771 0.495627 0.491691 -0.021013
C34   C     C_R   0.300073 0.429319 0.625484 -0.207825
Cl1   Cl    Cl    0.441712 0.934145 0.242584 -0.543399
Cl2   Cl    Cl    0.558288 0.065855 0.757416 -0.543401
Cu1   Cu    Cu3+1 0.506340 0.517380 0.684380 1.050732
Cu2   Cu    Cu3+1 0.493660 0.482620 0.315620 1.050741
H1    H     H_    0.937468 0.330522 0.041469 0.193749
H2    H     H_    0.677090 0.632994 0.286916 0.163785
H3    H     H_    0.218419 0.367521 0.712777 0.170491
H4    H     H_    0.781580 0.632450 0.287199 0.170494
H5    H     H_    0.395051 0.475492 0.959807 -0.007598
H6    H     H_    0.604950 0.524510 0.040177 -0.007613
H7    H     H_    0.062533 0.669467 0.958535 0.193750
H8    H     H_    0.041107 0.333096 0.046243 0.193416
H9    H     H_    0.958894 0.666902 0.953759 0.193416
H10   H     H_    0.216096 0.643728 0.305032 0.173907
H11   H     H_    0.783904 0.356292 0.694996 0.173911
H12   H     H_    0.320455 0.639530 0.300915 0.178104
H13   H     H_    0.679546 0.360495 0.699113 0.178104
H14   H     H_    0.322911 0.366980 0.713060 0.163787
N1    N     N_R   0.851400 0.495957 0.493282 -0.468735
N2    N     N_R   0.148601 0.504037 0.506721 -0.468738
N3    N     N_2   0.484110 0.456420 0.038520 -0.201567
N4    N     N_2   0.515890 0.543580 0.961480 -0.201572
O1    O     O_R   0.504120 0.286130 0.619770 -0.556312
O2    O     O_2   0.141561 0.379414 0.190824 -0.526821
O3    O     O_2   0.843236 0.371884 0.177262 -0.526276
O4    O     O_2   0.156765 0.628096 0.822746 -0.526270
O5    O     O_2   0.420858 0.258685 0.875211 -0.548571
O6    O     O_2   0.579139 0.741309 0.124814 -0.548574
O7    O     O_R   0.495880 0.713870 0.380230 -0.556301
O8    O     O_R   0.493410 0.256770 0.308360 -0.527295
O9    O     O_R   0.506590 0.743230 0.691640 -0.527301
O10   O     O_R   0.423230 0.514630 0.655730 -0.619115
O11   O     O_R   0.576770 0.485370 0.344270 -0.619108
O12   O     O_R   0.412530 0.485280 0.344320 -0.606795
O13   O     O_R   0.587470 0.514720 0.655680 -0.606801
O14   O     O_2   0.858440 0.620596 0.809174 -0.526827

loop_
_geom_bond_atom_site_label_1
_geom_bond_atom_site_label_2
_ccdc_geom_bond_type
C2    C4    A    
N3    N4    D    
C31   C33   A    
C28   O6    D    
C8    Cl2   S    
Cu1   Cu2   S    
C13   O2    S    
Cu1   O13   S    
C15   O4    S    
C13   N2    A    
C27   N3    S    
Cu2   O8    S    
C5    C23   A    
C8    C12   S    
C20   C26   A    
Cu1   O10   S    
C14   N1    A    
C28   N4    S    
C11   O14   S    
C13   C21   A    
C7    C8    D    
C29   C31   A    
C29   H11   S    
C10   O11   A    
Cu2   O11   S    
C30   C32   A    
C14   O3    S    
C15   N2    A    
C11   N1    A    
C3    C34   A    
C4    H4    S    
C26   H9    S    
C22   H1    S    
C25   H8    S    
C2    C33   A    
C16   C18   A    
C19   C21   A    
Cu2   O12   S    
C18   C19   A    
C10   C33   S    
C18   C20   A    
C1    C7    S    
C30   H12   S    
C14   C16   A    
C11   C20   A    
C9    O12   A    
C17   C24   A    
C24   H7    S    
C6    N1    S    
C10   O13   A    
C2    H2    S    
C5    N2    S    
C7    Cl1   S    
C6    C29   A    
C23   C30   A    
C4    C6    A    
Cu2   O7    S    
C12   O9    A    
C31   H13   S    
C15   C17   A    
C27   H5    S    
C21   C25   A    
C9    O10   A    
C3    H3    S    
C16   C22   A    
C23   H10   S    
C27   O5    D    
C9    C32   S    
C17   C19   A    
C32   C34   A    
C12   O7    A    
Cu1   N4    S    
C34   H14   S    
C1    O8    A    
C28   H6    S    
Cu1   O1    S    
Cu2   N3    S    
Cu1   O9    S    
C24   C26   A    
C3    C5    A    
C22   C25   A    
C1    O1    A    
