data_mof_unit_55985.cif
_audit_creation_date              2012-12-11T14:45:59-0500
_audit_creation_method            fapswitch 2.2
_symmetry_space_group_name_H-M    P1
_symmetry_Int_Tables_number       1
_space_group_crystal_system       triclinic
_cell_length_a                    10.845451
_cell_length_b                    11.04538
_cell_length_c                    18.830641
_cell_angle_alpha                 89.899008
_cell_angle_beta                  90.663613
_cell_angle_gamma                 119.944344
_cell_volume                      1954.49022605

loop_
_atom_site_label
_atom_site_type_symbol
_atom_type_description
_atom_site_fract_x
_atom_site_fract_y
_atom_site_fract_z
_atom_type_partial_charge
C1    C     C_R   0.866659 0.634836 0.604665 0.577483
C2    C     C_R   0.441113 0.646687 0.776745 -0.116590
C3    C     C_R   0.416615 0.635581 0.704416 -0.131020
C4    C     C_R   0.318839 0.669458 0.676085 0.031947
C5    C     C_R   0.838455 0.166667 0.823442 -0.023706
C6    C     C_R   0.093495 0.250001 0.833346 -0.117715
C7    C     C_R   0.222371 0.283884 0.802391 -0.100852
C8    C     C_R   0.231015 0.270265 0.729278 0.150070
C9    C     C_R   0.108293 0.228847 0.686922 -0.053974
C10   C     C_R   0.977121 0.201885 0.716668 -0.030316
C11   C     C_R   0.969254 0.204469 0.791610 -0.016464
C12   C     C_R   0.269597 0.631755 0.603879 0.539329
C13   C     C_R   0.720502 0.116512 0.707744 0.003035
C14   C     C_R   0.720267 0.145751 0.779825 0.025034
C15   C     C_R   0.590278 0.052161 0.669091 -0.081456
C16   C     C_R   0.468544 0.043584 0.697701 -0.100588
C17   C     C_R   0.474760 0.097475 0.764999 -0.115440
C18   C     C_R   0.599667 0.150261 0.805347 -0.082233
C19   C     C_R   0.851901 0.165677 0.674376 -0.051249
C20   C     C_R   0.756789 0.525959 0.718795 -0.178360
C21   C     C_R   0.745213 0.539146 0.791488 -0.175814
C22   C     C_R   0.802962 0.672224 0.821073 0.006022
C23   C     C_R   0.863406 0.225475 0.602747 0.549553
C24   C     C_R   0.860895 0.790776 0.777498 -0.123157
C25   C     C_R   0.871801 0.777859 0.705201 0.068812
C26   C     C_R   0.824167 0.646138 0.675903 0.058589
C27   C     C_R   0.339364 0.571066 0.287251 -0.170943
C28   C     C_R   0.344782 0.576536 0.215051 -0.152704
C29   C     C_R   0.354290 0.691006 0.178324 0.011486
C30   C     C_R   0.352492 0.799413 0.216062 -0.111732
C31   C     C_R   0.338982 0.791101 0.290253 0.130983
C32   C     C_R   0.328240 0.672996 0.325564 0.055672
C33   C     C_R   0.768472 0.262535 0.268280 0.116315
C34   C     C_R   0.862477 0.641605 0.399138 0.538055
C35   C     C_R   0.765338 0.233704 0.196410 -0.109059
C36   C     C_R   0.861802 0.199773 0.166319 0.020616
C37   C     C_R   0.986851 0.233093 0.204105 0.061688
C38   C     C_R   0.995279 0.266819 0.276807 -0.135773
C39   C     C_R   0.882397 0.272578 0.310531 0.002861
C40   C     C_R   0.920351 0.796584 0.297834 -0.091883
C41   C     C_R   0.909925 0.815204 0.226349 0.081825
C42   C     C_R   0.786562 0.718112 0.188354 0.048491
C43   C     C_R   0.673843 0.609269 0.225392 -0.153388
C44   C     C_R   0.688644 0.588956 0.297589 -0.158110
C45   C     C_R   0.272101 0.634404 0.396916 0.542702
C46   C     C_R   0.817498 0.676619 0.332323 0.005313
C47   C     C_R   0.807639 0.106670 0.895840 0.530846
C48   C     C_R   0.399599 0.702364 0.895580 0.544376
C49   C     C_R   0.795291 0.694284 0.896022 0.551299
C50   C     C_R   0.812918 0.114826 0.100420 0.544680
C51   C     C_R   0.398628 0.705742 0.104608 0.542563
C52   C     C_R   0.774696 0.735118 0.111594 0.567876
C53   C     C_R   0.887650 0.295294 0.388389 0.569371
C54   C     C_R   0.249361 0.719438 0.720016 -0.128642
C55   C     C_R   0.275870 0.732786 0.792515 -0.137151
C56   C     C_R   0.368429 0.692198 0.820861 0.045961
Cr1   Cr    Cr6+3 0.791660 0.390250 0.499930 0.982703
Cr2   Cr    Cr6+3 0.098520 0.708290 0.500540 1.017567
Cr3   Cr    Cr6+3 0.109770 0.401430 0.499480 0.988804
Cr4   Cr    Cr6+3 0.874790 0.925890 0.000070 1.028811
Cr5   Cr    Cr6+3 0.574120 0.948670 0.999300 1.009349
Cr6   Cr    Cr6+3 0.551420 0.625320 0.000920 0.998270
H1    H     H_    0.170803 0.743421 0.698718 0.142545
H2    H     H_    0.371098 0.000211 0.666577 0.123706
H3    H     H_    0.584262 0.014010 0.615472 0.121866
H4    H     H_    0.382435 0.097321 0.786319 0.129469
H5    H     H_    0.720063 0.422669 0.696949 0.155086
H6    H     H_    0.696001 0.447233 0.824651 0.116542
H7    H     H_    0.899003 0.894274 0.799557 0.147251
H8    H     H_    0.335202 0.480785 0.312360 0.126465
H9    H     H_    0.349484 0.492580 0.188463 0.131203
H10   H     H_    0.365112 0.890925 0.188437 0.124042
H11   H     H_    0.221613 0.770138 0.826331 0.118636
H12   H     H_    0.680321 0.228594 0.163924 0.151258
H13   H     H_    0.088314 0.285217 0.307264 0.131929
H14   H     H_    0.017197 0.872199 0.324854 0.145046
H15   H     H_    0.577061 0.537024 0.197780 0.124121
H16   H     H_    0.602367 0.503208 0.325223 0.115084
H17   H     H_    0.516012 0.618352 0.798500 0.136182
H18   H     H_    0.470110 0.596675 0.671078 0.128949
H19   H     H_    0.315687 0.317511 0.836012 0.114200
H20   H     H_    0.092672 0.262945 0.890264 0.132526
H21   H     H_    0.113618 0.206948 0.631851 0.151362
H22   H     H_    0.601079 0.197605 0.855746 0.132902
O1    O     O_R   0.766500 0.250040 0.579790 -0.520106
O2    O     O_R   0.218690 0.701900 0.425960 -0.468785
O3    O     O_R   0.249490 0.516440 0.419420 -0.551616
O4    O     O_R   0.982880 0.281910 0.424890 -0.505898
O5    O     O_3   0.999980 0.499990 0.499980 -0.262395
O6    O     O_R   0.895110 0.806860 0.920430 -0.517582
O7    O     O_R   0.872260 0.046970 0.925000 -0.507955
O8    O     O_R   0.691430 0.085060 0.918550 -0.526167
O9    O     O_R   0.451490 0.822460 0.925250 -0.492768
O10   O     O_R   0.413330 0.603360 0.920440 -0.528453
O11   O     O_R   0.676110 0.626250 0.926750 -0.504594
O12   O     O_R   0.798570 0.516780 0.574780 -0.525900
O13   O     O_R   0.895350 0.809870 0.080950 -0.472088
O14   O     O_R   0.872490 0.049760 0.073800 -0.498320
O15   O     O_R   0.691680 0.088070 0.079070 -0.538511
O16   O     O_R   0.451720 0.825250 0.074050 -0.501156
O17   O     O_R   0.413580 0.606370 0.080960 -0.539331
O18   O     O_R   0.676340 0.629040 0.075550 -0.508814
O19   O     O_3   0.666780 0.833290 0.000090 -0.271359
O20   O     O_R   0.984000 0.732950 0.581090 -0.483980
O21   O     O_R   0.218600 0.700890 0.574760 -0.518280
O22   O     O_R   0.249390 0.515350 0.579940 -0.526987
O23   O     O_R   0.982790 0.280900 0.573700 -0.505129
O24   O     O_R   0.766600 0.251130 0.419260 -0.521031
O25   O     O_R   0.798660 0.517790 0.425980 -0.538846
O26   O     O_R   0.984100 0.734040 0.420570 -0.510411
N1    N     N_3   0.935108 0.898786 0.661375 -0.619945
H23   H     H_    0.036405 0.966593 0.682077 0.234496
H24   H     H_    0.871075 0.944001 0.663688 0.227109
N2    N     N_2   0.335989 0.900425 0.328689 -0.503454
H25   H     H_    0.306192 0.960417 0.299155 0.232525
C57   C     C_3   0.459288 0.981114 0.374038 -0.250140
H26   H     H_    0.464192 0.916444 0.417866 0.151340
H27   H     H_    0.453532 0.069964 0.397948 0.154048
H28   H     H_    0.558133 0.021143 0.342861 0.187745
N3    N     N_2   0.654950 0.275072 0.298676 -0.514143
H29   H     H_    0.685902 0.355991 0.333498 0.290175
C58   C     C_3   0.526690 0.240084 0.258220 -0.339617
H30   H     H_    0.445883 0.240233 0.293837 0.124038
H31   H     H_    0.481667 0.134708 0.234210 0.152459
H32   H     H_    0.549963 0.317310 0.215525 0.143784
N4    N     N_3   0.104843 0.236990 0.168380 -0.647460
H33   H     H_    0.142344 0.318175 0.131499 0.245968
H34   H     H_    0.187352 0.258424 0.204424 0.207596
N5    N     N_3   0.027797 0.929977 0.192087 -0.583799
H35   H     H_    0.988252 0.992288 0.173493 0.290940
H36   H     H_    0.110473 0.991035 0.227751 0.203600
N6    N     N_2   0.363277 0.294589 0.700946 -0.540776
H37   H     H_    0.453521 0.364326 0.728751 0.250028
C59   C     C_3   0.380714 0.285490 0.625414 -0.311847
H38   H     H_    0.489460 0.304132 0.615172 0.155085
H39   H     H_    0.366978 0.365591 0.596630 0.171308
H40   H     H_    0.303768 0.179315 0.605279 0.134993

loop_
_geom_bond_atom_site_label_1
_geom_bond_atom_site_label_2
_ccdc_geom_bond_type
C8    C9    A    
C41   N5    S    
C55   C56   A    
C35   H12   S    
N4    H33   S    
C6    H20   S    
C41   C42   A    
C14   C18   A    
C20   H5    S    
C35   C36   A    
C49   O6    A    
C59   H40   S    
N2    H25   S    
C7    C8    A    
C39   C53   S    
C40   C46   A    
C5    C47   S    
C52   O18   A    
C17   H4    S    
C33   C39   A    
Cr1   O5    S    
C28   H9    S    
C21   C22   A    
C36   C37   A    
Cr5   O19   S    
C5    C11   A    
Cr4   O14   S    
Cr3   O5    S    
C30   C31   A    
Cr5   O9    S    
C54   H1    S    
C15   C16   A    
C15   H3    S    
C52   O13   A    
C57   H26   S    
C32   C45   S    
Cr3   O4    S    
C2    H17   S    
Cr1   O25   S    
N1    H23   S    
N3    C58   S    
C16   C17   A    
Cr1   O12   S    
C8    N6    S    
C18   H22   S    
C34   C46   S    
C4    C12   S    
Cr4   O19   S    
C9    C10   A    
C31   N2    S    
Cr5   O8    S    
Cr6   O17   S    
C4    C54   A    
C13   C14   A    
Cr5   O15   S    
C47   O8    A    
C3    H18   S    
Cr2   O2    S    
C44   C46   A    
C24   H7    S    
C38   H13   S    
C38   C39   A    
C50   O14   A    
Cr3   O22   S    
C48   O9    A    
C13   C19   A    
C24   C25   A    
Cr4   O13   S    
C6    C11   A    
N6    H37   S    
C59   H39   S    
C25   C26   A    
Cr3   O23   S    
C40   H14   S    
C19   C23   S    
C43   C44   A    
C37   C38   A    
N2    C57   S    
C31   C32   A    
C10   C19   A    
C23   O23   A    
C17   C18   A    
C50   O15   A    
N1    H24   S    
C49   O11   A    
C1    O20   A    
C5    C14   A    
C59   H38   S    
C27   H8    S    
C48   O10   A    
C9    H21   S    
C22   C49   S    
C40   C41   A    
C7    H19   S    
C13   C15   A    
C21   H6    S    
C1    C26   S    
C34   O26   A    
C22   C24   A    
Cr5   O16   S    
C43   H15   S    
C42   C43   A    
C58   H31   S    
C3    C4    A    
C36   C50   S    
N3    H29   S    
C37   N4    S    
C29   C51   S    
Cr4   O7    S    
C51   O16   A    
C48   C56   S    
C54   C55   A    
C28   C29   A    
N4    H34   S    
C45   O3    A    
C27   C32   A    
Cr2   O26   S    
C47   O7    A    
Cr6   O19   S    
C30   H10   S    
C6    C7    A    
Cr4   O6    S    
C51   O17   A    
C57   H28   S    
Cr2   O21   S    
C58   H32   S    
Cr6   O10   S    
C2    C3    A    
N5    H35   S    
C2    C56   A    
C12   O22   A    
C53   O24   A    
C12   O21   A    
C20   C26   A    
C1    O12   A    
C44   H16   S    
C33   C35   A    
C57   H27   S    
C45   O2    A    
C53   O4    A    
Cr2   O5    S    
Cr3   O3    S    
C10   C11   A    
C25   N1    S    
C29   C30   A    
C55   H11   S    
Cr1   O24   S    
Cr2   O20   S    
C20   C21   A    
C33   N3    S    
N6    C59   S    
C23   O1    A    
C27   C28   A    
C34   O25   A    
C16   H2    S    
N5    H36   S    
C58   H30   S    
Cr6   O11   S    
Cr1   O1    S    
C42   C52   S    
Cr6   O18   S    
