data_mof_unit_20251.cif
_audit_creation_date              2012-12-10T17:33:00-0500
_audit_creation_method            fapswitch 2.2
_symmetry_space_group_name_H-M    P1
_symmetry_Int_Tables_number       1
_space_group_crystal_system       triclinic
_cell_length_a                    15.507824
_cell_length_b                    15.507427
_cell_length_c                    17.868704
_cell_angle_alpha                 90.168786
_cell_angle_beta                  109.57205
_cell_angle_gamma                 68.604603
_cell_volume                      3734.86903255

loop_
_atom_site_label
_atom_site_type_symbol
_atom_type_description
_atom_site_fract_x
_atom_site_fract_y
_atom_site_fract_z
_atom_type_partial_charge
C1    C     C_R   0.463627 0.740421 0.531505 0.494494
C2    C     C_R   0.605722 0.414347 0.084473 -0.132276
C3    C     C_R   0.660659 0.354981 0.044347 -0.091933
C4    C     C_R   0.533415 0.259951 0.468453 0.493037
C5    C     C_R   0.638031 0.376651 0.962506 0.053738
C6    C     C_R   0.559322 0.462327 0.920584 0.003130
C7    C     C_R   0.691382 0.313570 0.921141 0.238460
C8    C     C_R   0.665455 0.334551 0.838863 -0.061771
C9    C     C_R   0.533687 0.479644 0.836988 -0.135607
C10   C     C_R   0.331272 0.988546 0.552617 0.024868
C11   C     C_R   0.445150 0.837510 0.540961 0.030011
C12   C     C_R   0.322945 0.656137 0.151554 0.265110
C13   C     C_R   0.648686 0.104759 0.458796 -0.092685
C14   C     C_R   0.685320 0.007034 0.472807 -0.000405
C15   C     C_R   0.627929 0.964725 0.491415 -0.099678
C16   C     C_R   0.757877 0.447426 0.532860 0.540843
C17   C     C_R   0.532141 0.017654 0.492815 0.015108
C18   C     C_R   0.495634 0.115937 0.476174 -0.017487
C19   C     C_R   0.472920 0.975889 0.512482 -0.010212
C20   C     C_R   0.381041 0.033064 0.521363 0.063111
C21   C     C_R   0.342412 0.130488 0.495108 0.216579
C22   C     C_R   0.398347 0.169108 0.471120 -0.062416
C23   C     C_R   0.483807 0.538810 0.165833 -0.185577
C24   C     C_R   0.501349 0.878317 0.520771 -0.116717
C25   C     C_R   0.362928 0.891166 0.558874 -0.116522
C26   C     C_R   0.556555 0.159450 0.463611 0.012667
C27   C     C_R   0.023496 0.392292 0.655738 0.242277
C28   C     C_R   0.241581 0.552993 0.469311 0.490646
C29   C     C_R   0.862870 0.427279 0.551415 0.000160
C30   C     C_R   0.067031 0.620826 0.376116 -0.110140
C31   C     C_R   0.969518 0.626123 0.350057 -0.010174
C32   C     C_R   0.941189 0.578733 0.398026 -0.096335
C33   C     C_R   0.007620 0.530046 0.474875 0.047182
C34   C     C_R   0.466469 0.559810 0.084321 -0.021713
C35   C     C_R   0.103721 0.532758 0.503273 0.037202
C36   C     C_R   0.981417 0.480021 0.525008 0.001981
C37   C     C_R   0.048929 0.440072 0.604585 0.023949
C38   C     C_R   0.139280 0.451439 0.632746 -0.086908
C39   C     C_R   0.165446 0.497778 0.583608 -0.106930
C40   C     C_R   0.560622 0.440171 0.711789 0.505853
C41   C     C_R   0.889176 0.470606 0.499465 -0.178640
C42   C     C_R   0.930703 0.385667 0.628741 0.258175
C43   C     C_R   0.135508 0.572038 0.451130 0.008355
C44   C     C_R   0.439627 0.559529 0.286915 0.531843
C45   C     C_R   0.383570 0.641458 0.040043 0.018505
C46   C     C_R   0.414522 0.586822 0.200458 -0.016641
C47   C     C_R   0.586541 0.416894 0.797182 0.000091
C48   C     C_R   0.306977 0.682586 0.071263 0.242513
C49   C     C_3   0.323196 0.779159 0.929085 -0.231074
C50   C     C_3   0.390343 0.823797 0.913041 -0.328179
C51   C     C_3   0.333152 0.927985 0.882223 -0.430333
C52   C     C_3   0.250143 0.037767 0.585765 -0.222572
C53   C     C_3   0.288662 0.082535 0.659759 -0.297477
C54   C     C_3   0.207730 0.130458 0.693715 -0.389153
C55   C     C_3   0.786900 0.943914 0.472809 -0.257822
C56   C     C_R   0.527856 0.500709 0.045282 0.045180
C57   C     C_3   0.850382 0.994056 0.458707 -0.301620
C58   C     C_3   0.952113 0.924147 0.463584 -0.435055
C59   C     C_3   0.896219 0.678638 0.269040 -0.246865
C60   C     C_3   0.814696 0.766535 0.277752 -0.308080
C61   C     C_3   0.740102 0.819488 0.196016 -0.429409
C62   C     C_R   0.506911 0.526311 0.962940 0.032634
C63   C     C_R   0.436604 0.616472 0.926145 -0.108247
C64   C     C_R   0.379665 0.676619 0.965408 0.021158
Cl1   Cl    Cl    0.791113 0.207148 0.969414 -0.543300
Cl2   Cl    Cl    0.220622 0.209855 0.479654 -0.640698
Cl3   Cl    Cl    0.897340 0.328043 0.693193 -0.494886
Cl4   Cl    Cl    0.103654 0.346153 0.756126 -0.550556
Cl5   Cl    Cl    0.183639 0.750181 0.006954 -0.507209
Cl6   Cl    Cl    0.224877 0.707944 0.187727 -0.469104
H1    H     H_    0.322745 0.856029 0.577135 0.097638
H2    H     H_    0.866025 0.582918 0.373703 0.101163
H3    H     H_    0.234012 0.508002 0.610663 0.136536
H4    H     H_    0.706680 0.286499 0.807254 0.171851
H5    H     H_    0.719348 0.290135 0.078053 0.184791
H6    H     H_    0.552263 0.485841 0.204557 0.145761
H7    H     H_    0.427260 0.643723 0.867449 0.100422
H8    H     H_    0.625563 0.388684 0.146246 0.116029
H9    H     H_    0.269684 0.938668 0.825636 0.160849
H10   H     H_    0.305012 0.965500 0.927554 0.188133
H11   H     H_    0.382936 0.957973 0.870131 0.154564
H12   H     H_    0.562402 0.832101 0.505538 0.102444
H13   H     H_    0.453683 0.814804 0.969401 0.176563
H14   H     H_    0.420431 0.790203 0.867343 0.161844
H15   H     H_    0.261777 0.785006 0.872275 0.179665
H16   H     H_    0.291703 0.821294 0.970657 0.210956
H17   H     H_    0.145474 0.188510 0.649020 0.210333
H18   H     H_    0.179318 0.079761 0.709784 0.158264
H19   H     H_    0.238928 0.159119 0.748652 0.205217
H20   H     H_    0.351812 0.027422 0.706740 0.156509
H21   H     H_    0.315795 0.134802 0.644753 0.216510
H22   H     H_    0.182466 0.087626 0.539172 0.217857
H23   H     H_    0.693664 0.139321 0.448433 0.135739
H24   H     H_    0.224036 0.986832 0.605269 0.116030
H25   H     H_    0.992928 0.881976 0.523872 0.156486
H26   H     H_    0.944195 0.876651 0.417453 0.155880
H27   H     H_    0.996117 0.962333 0.453057 0.162245
H28   H     H_    0.812306 0.036377 0.398392 0.171351
H29   H     H_    0.861711 0.040819 0.505112 0.177298
H30   H     H_    0.828851 0.898621 0.531749 0.157698
H31   H     H_    0.776187 0.897718 0.425768 0.139191
H32   H     H_    0.777793 0.841755 0.161408 0.182231
H33   H     H_    0.703606 0.774607 0.161624 0.158685
H34   H     H_    0.662257 0.889887 0.506859 0.101471
H35   H     H_    0.682282 0.882684 0.204290 0.154995
H36   H     H_    0.774457 0.747224 0.311612 0.156646
H37   H     H_    0.848702 0.813456 0.311376 0.167267
H38   H     H_    0.934494 0.699593 0.234112 0.172349
H39   H     H_    0.862644 0.631745 0.234647 0.159491
H40   H     H_    0.363325 0.242385 0.446762 0.182956
H41   H     H_    0.471323 0.540092 0.800242 0.098893
H42   H     H_    0.191030 0.425267 0.693530 0.179883
H43   H     H_    0.833314 0.500827 0.441099 0.111762
H44   H     H_    0.090449 0.652421 0.336584 0.162726
O1    O     O_3   0.500000 0.500000 0.500000 -0.455983
O2    O     O_R   0.596500 0.492780 0.688380 -0.513535
O3    O     O_R   0.388780 0.611210 0.325000 -0.479772
O4    O     O_R   0.499860 0.410860 0.661600 -0.539046
O5    O     O_R   0.514860 0.485140 0.325020 -0.555236
O6    O     O_R   0.707110 0.418540 0.472990 -0.540684
O7    O     O_R   0.267620 0.606720 0.435250 -0.536144
O8    O     O_R   0.540230 0.674660 0.578090 -0.541331
O9    O     O_R   0.485030 0.300080 0.513670 -0.537632
O10   O     O_R   0.403610 0.721990 0.472930 -0.531620
O11   O     O_R   0.571130 0.303270 0.435320 -0.540518
O12   O     O_R   0.717650 0.497270 0.578120 -0.502306
O13   O     O_R   0.307610 0.477470 0.513630 -0.534143
Zn1   Zn    Zn3+2 0.572030 0.427990 0.434470 0.950678
Zn2   Zn    Zn3+2 0.587090 0.540470 0.584680 0.982731
Zn3   Zn    Zn3+2 0.449010 0.423430 0.546420 0.958180
Zn4   Zn    Zn3+2 0.391880 0.608100 0.434430 0.984730

loop_
_geom_bond_atom_site_label_1
_geom_bond_atom_site_label_2
_ccdc_geom_bond_type
C9    H41   S    
C40   C47   S    
C40   O4    A    
C34   C56   A    
C29   C42   A    
C19   C20   A    
C18   C26   A    
C23   H6    S    
C12   C48   A    
C10   C52   S    
C6    C9    A    
C50   H14   S    
C7    C8    A    
C32   H2    S    
O1    Zn4   S    
C53   C54   S    
C62   C63   A    
C4    O11   A    
C2    H8    S    
C36   C37   A    
C61   H33   S    
C16   O6    A    
C30   H44   S    
C30   C31   A    
C21   Cl2   S    
C11   C25   A    
C57   H29   S    
C11   C24   A    
C33   C36   A    
C31   C59   S    
C58   H26   S    
C51   H10   S    
C24   H12   S    
C27   Cl4   S    
C59   H39   S    
C1    O8    A    
O2    Zn2   S    
C10   C20   A    
C22   H40   S    
C1    C11   S    
C55   H30   S    
C53   H21   S    
O11   Zn1   S    
C52   H24   S    
C25   H1    S    
C15   H34   S    
C35   C43   A    
C51   H11   S    
O8    Zn2   S    
C28   O13   A    
O5    Zn1   S    
C63   H7    S    
C14   C55   S    
C59   C60   S    
C49   C64   S    
C13   C14   A    
C36   C41   A    
C58   H27   S    
O7    Zn4   S    
O3    Zn4   S    
C44   C46   S    
C50   H13   S    
C50   C51   S    
C48   Cl5   S    
C38   C39   A    
C49   H15   S    
C54   H19   S    
C12   C46   A    
C5    C7    A    
C28   O7    A    
C17   C19   A    
C44   O5    A    
C16   C29   S    
O1    Zn1   S    
C4    O9    A    
C13   H23   S    
C60   C61   S    
C35   C39   A    
C58   H25   S    
C37   C38   A    
O4    Zn3   S    
C7    Cl1   S    
C1    O10   A    
C31   C32   A    
C23   C34   A    
C8    H4    S    
C17   C18   A    
C34   C45   A    
C60   H37   S    
C54   H17   S    
C10   C25   A    
C9    C47   A    
C55   C57   S    
O9    Zn3   S    
C42   Cl3   S    
C56   C62   A    
C13   C26   A    
C52   H22   S    
C38   H42   S    
C61   H35   S    
C52   C53   S    
O1    Zn2   S    
C45   C48   A    
C15   C17   A    
C12   Cl6   S    
C45   C64   A    
C29   C41   A    
C18   C22   A    
C49   H16   S    
C41   H43   S    
C3    C5    A    
C40   O2    A    
C4    C26   S    
O6    Zn1   S    
C60   H36   S    
C55   H31   S    
C28   C43   S    
C59   H38   S    
O12   Zn2   S    
C32   C33   A    
C6    C62   A    
C19   C24   A    
C3    H5    S    
C8    C47   A    
C2    C56   A    
C54   H18   S    
C27   C42   A    
C57   C58   S    
C5    C6    A    
C44   O3    A    
C27   C37   A    
C57   H28   S    
C33   C35   A    
C2    C3    A    
C39   H3    S    
C30   C43   A    
C51   H9    S    
O13   Zn3   S    
C63   C64   A    
C20   C21   A    
O10   Zn4   S    
C49   C50   S    
C53   H20   S    
C23   C46   A    
C14   C15   A    
C21   C22   A    
C16   O12   A    
C61   H32   S    
O1    Zn3   S    
