data_mof_unit_65177.cif
_audit_creation_date              2012-12-11T15:14:56-0500
_audit_creation_method            fapswitch 2.2
_symmetry_space_group_name_H-M    P1
_symmetry_Int_Tables_number       1
_space_group_crystal_system       triclinic
_cell_length_a                    11.269342
_cell_length_b                    11.437966
_cell_length_c                    18.326032
_cell_angle_alpha                 89.242803
_cell_angle_beta                  91.01832
_cell_angle_gamma                 120.438982
_cell_volume                      2036.26603254

loop_
_atom_site_label
_atom_site_type_symbol
_atom_type_description
_atom_site_fract_x
_atom_site_fract_y
_atom_site_fract_z
_atom_type_partial_charge
C1    C     C_R   0.522661 0.455859 0.644098 0.603174
C2    C     C_R   0.460074 0.520683 0.353424 0.591548
C3    C     C_R   0.448889 0.872757 0.137252 0.510061
C4    C     C_R   0.070338 0.545146 0.357003 0.549390
C5    C     C_3   0.400638 0.028000 0.462420 0.247729
C6    C     C_3   0.635846 0.600086 0.039025 0.249926
C7    C     C_3   0.015551 0.393540 0.486609 0.215400
C8    C     C_3   0.412126 0.023768 0.037265 0.168999
C9    C     C_3   0.636512 0.591291 0.468839 0.216585
C10   C     C_3   0.943464 0.366574 0.030827 0.200956
C11   C     C_3   0.052559 0.419597 0.971761 0.188013
C12   C     C_R   0.938306 0.479021 0.854060 0.542196
C13   C     C_3   0.569841 0.628549 0.529714 0.250070
C14   C     C_3   0.364006 0.964071 0.960241 0.250794
C15   C     C_3   0.080767 0.502052 0.547119 0.221656
C16   C     C_3   0.588753 0.614093 0.961385 0.167761
C17   C     C_3   0.389732 0.963201 0.538030 0.252735
C18   C     C_3   0.540739 0.149754 0.484420 -0.226914
C19   C     C_3   0.612737 0.459364 0.018866 -0.211558
C20   C     C_3   0.872169 0.362446 0.508907 -0.199034
C21   C     C_3   0.561799 0.108919 0.010134 -0.184627
C22   C     C_3   0.597800 0.457704 0.509685 -0.229967
C23   C     C_R   0.575277 0.122935 0.636924 0.510834
C24   C     C_3   0.863607 0.420649 0.986232 -0.182922
C25   C     C_3   0.134612 0.553766 0.014073 -0.185267
C26   C     C_3   0.430747 0.558244 0.486185 -0.120137
C27   C     C_3   0.384323 0.844624 0.981670 -0.211853
C28   C     C_3   0.089122 0.610896 0.492859 -0.078029
C29   C     C_3   0.439217 0.551871 0.988329 -0.190818
C30   C     C_3   0.459498 0.887064 0.508182 -0.143702
C31   C     C_3   0.533414 0.081324 0.559322 -0.043166
C32   C     C_3   0.556465 0.469139 0.941625 -0.034035
C33   C     C_3   0.937422 0.472316 0.565979 -0.019585
C34   C     C_R   0.550108 0.424329 0.863359 0.501884
C35   C     C_3   0.513494 0.045477 0.934086 -0.001403
C36   C     C_3   0.522241 0.491529 0.567557 0.012640
C37   C     C_3   0.979335 0.481857 0.930201 -0.020607
C38   C     C_3   0.018981 0.502940 0.070175 -0.006038
C39   C     C_3   0.498114 0.516058 0.428367 0.000133
C40   C     C_3   0.441599 0.909161 0.058356 -0.035975
C41   C     C_3   0.020589 0.501981 0.432137 -0.013611
C42   C     C_3   0.486446 0.534108 0.065055 0.002514
C43   C     C_3   0.472209 0.954372 0.433507 -0.021390
C44   C     C_3   0.602523 0.009509 0.527196 -0.042832
C45   C     C_R   0.883082 0.457550 0.638235 0.531170
C46   C     C_3   0.413437 0.408875 0.971727 -0.050550
C47   C     C_3   0.942445 0.577415 0.513437 -0.029178
C48   C     C_3   0.530584 0.926324 0.953404 -0.132821
C49   C     C_3   0.388131 0.421876 0.524616 -0.035670
C50   C     C_3   0.058465 0.613958 0.971328 -0.105613
C51   C     C_3   0.942086 0.557496 0.026603 -0.097959
C52   C     C_3   0.459866 0.384732 0.467212 -0.136455
C53   C     C_3   0.584761 0.989484 0.027815 -0.041138
C54   C     C_3   0.876894 0.467941 0.454303 -0.164684
C55   C     C_3   0.466439 0.397079 0.046693 -0.126981
C56   C     C_R   0.569163 0.109957 0.863221 0.521211
C57   C     C_3   0.609866 0.075541 0.453290 -0.144797
C58   C     C_R   0.431646 0.541478 0.136466 0.518460
C59   C     C_R   0.459368 0.890424 0.363081 0.534023
C60   C     C_R   0.061441 0.541349 0.146035 0.525452
Cr1   Cr    Cr6+3 0.769930 0.543130 0.750000 1.154660
Cr2   Cr    Cr6+3 0.773200 0.230070 0.750000 1.172871
Cr3   Cr    Cr6+3 0.456870 0.226800 0.750000 1.164803
Cr4   Cr    Cr6+3 0.543130 0.769930 0.250000 1.152186
Cr5   Cr    Cr6+3 0.230070 0.773200 0.250000 1.145771
Cr6   Cr    Cr6+3 0.226800 0.456870 0.250000 1.129730
H1    H     H_    0.699592 0.032049 0.553593 0.252396
H2    H     H_    0.792035 0.445458 0.415260 0.182016
H3    H     H_    0.430480 0.319850 0.089032 0.232065
H4    H     H_    0.692898 0.126151 0.413195 0.218614
H5    H     H_    0.588117 0.251710 0.461824 0.118134
H6    H     H_    0.668035 0.415869 0.046936 0.112139
H7    H     H_    0.792330 0.264230 0.528414 0.127905
H8    H     H_    0.630849 0.210040 0.031882 0.127061
H9    H     H_    0.665154 0.421831 0.531907 0.079011
H10   H     H_    0.760734 0.366379 0.959998 0.085476
H11   H     H_    0.237737 0.599418 0.039900 0.092552
H12   H     H_    0.334053 0.318112 0.945636 0.287938
H13   H     H_    0.355364 0.588976 0.469695 0.105776
H14   H     H_    0.327557 0.747541 0.953637 0.107625
H15   H     H_    0.181788 0.709588 0.480847 0.163496
H16   H     H_    0.370754 0.584760 0.965413 0.113915
H17   H     H_    0.427573 0.781476 0.518071 0.169401
H18   H     H_    0.088111 0.892671 0.352050 0.385312
H19   H     H_    0.881970 0.746693 0.192401 0.388804
H20   H     H_    0.127055 0.223363 0.378495 0.405436
H21   H     H_    0.467229 0.165642 0.163711 0.325678
H22   H     H_    0.830071 0.887057 0.346099 0.371103
H23   H     H_    0.897798 0.634074 0.537083 0.241589
H24   H     H_    0.802836 0.259311 0.166809 0.333290
H25   H     H_    0.201586 0.468430 0.845462 0.318433
H26   H     H_    0.870098 0.853314 0.645509 0.382899
H27   H     H_    0.118190 0.871232 0.806710 0.388010
H28   H     H_    0.225970 0.602080 0.734699 0.366852
H29   H     H_    0.534908 0.701417 0.833140 0.326305
H30   H     H_    0.166127 0.029804 0.654313 0.367881
H31   H     H_    0.563773 0.882894 0.911697 0.227303
H32   H     H_    0.288629 0.348212 0.548552 0.270529
H33   H     H_    0.105454 0.704609 0.938190 0.226512
H34   H     H_    0.895644 0.603088 0.057171 0.229216
H35   H     H_    0.420896 0.294292 0.434637 0.231601
H36   H     H_    0.662706 0.974146 0.053327 0.286145
O1    O     O_R   0.913270 0.574260 0.668550 -0.418374
O2    O     O_R   0.574260 0.913270 0.331450 -0.448957
O3    O     O_R   0.086730 0.660990 0.168550 -0.467969
O4    O     O_R   0.339010 0.425740 0.331450 -0.464604
O5    O     O_R   0.640160 0.530400 0.673300 -0.460056
O6    O     O_R   0.890240 0.359840 0.826700 -0.466795
O7    O     O_R   0.469600 0.109760 0.673300 -0.409261
O8    O     O_R   0.640160 0.530400 0.826700 -0.432392
O9    O     O_R   0.890240 0.359840 0.673300 -0.449952
O10   O     O_R   0.469600 0.109760 0.826700 -0.443580
O11   O     O_R   0.530400 0.640160 0.173300 -0.451009
O12   O     O_R   0.660990 0.086730 0.831450 -0.425652
O13   O     O_R   0.359840 0.890240 0.326700 -0.440900
O14   O     O_R   0.109760 0.469600 0.173300 -0.481348
O15   O     O_R   0.530400 0.640160 0.326700 -0.454864
O16   O     O_R   0.359840 0.890240 0.173300 -0.426669
O17   O     O_R   0.109760 0.469600 0.326700 -0.493993
O18   O     O_3   0.666667 0.333333 0.750000 -0.434471
O19   O     O_3   0.333333 0.666667 0.250000 -0.401781
O20   O     O_2   0.200678 0.089076 0.467952 -0.164399
O21   O     O_2   0.312733 0.119814 0.349033 -0.296025
O22   O     O_3   0.138975 0.878224 0.392473 -0.430174
O23   O     O_R   0.425740 0.339010 0.668550 -0.461367
O24   O     O_2   0.903382 0.806663 0.045897 -0.142582
O25   O     O_2   0.741278 0.838548 0.113494 -0.220672
O26   O     O_3   0.807765 0.668066 0.165770 -0.525639
O27   O     O_2   0.033791 0.183369 0.542408 -0.175524
O28   O     O_2   0.901887 0.141500 0.429639 -0.287752
O29   O     O_3   0.162890 0.284499 0.421235 -0.490358
O30   O     O_2   0.241968 0.126843 0.046178 -0.183503
O31   O     O_2   0.170961 0.915986 0.108172 -0.164331
O32   O     O_3   0.367747 0.132889 0.168412 -0.465517
O33   O     O_2   0.908289 0.793268 0.461081 -0.162365
O34   O     O_R   0.913270 0.574260 0.831450 -0.459009
O35   O     O_2   0.810568 0.644681 0.354605 -0.318614
O36   O     O_3   0.750427 0.830794 0.377846 -0.423359
O37   O     O_2   0.876552 0.108674 0.028759 -0.142169
O38   O     O_2   0.029871 0.238092 0.125775 -0.170928
O39   O     O_3   0.775998 0.175920 0.138763 -0.535727
O40   O     O_2   0.120709 0.230245 0.976889 -0.142361
O41   O     O_2   0.959453 0.201648 0.882090 -0.153577
O42   O     O_3   0.212114 0.391406 0.861950 -0.511795
O43   O     O_2   0.763871 0.889759 0.523834 -0.203713
O44   O     O_2   0.610232 0.817756 0.630839 -0.230436
O45   O     O_R   0.660990 0.086730 0.668550 -0.455106
O46   O     O_3   0.806154 0.762395 0.625149 -0.465523
O47   O     O_2   0.095722 0.899547 0.953026 -0.147835
O48   O     O_2   0.257292 0.100076 0.887430 -0.213971
O49   O     O_3   0.194446 0.867991 0.832540 -0.513325
O50   O     O_2   0.168245 0.382914 0.647138 -0.232722
O51   O     O_2   0.337940 0.614207 0.610658 -0.315870
O52   O     O_3   0.151757 0.581719 0.698498 -0.427193
O53   O     O_2   0.761783 0.888012 0.949877 -0.179411
O54   O     O_2   0.829656 0.745804 0.889883 -0.167905
O55   O     O_3   0.634047 0.769633 0.828798 -0.459035
O56   O     O_R   0.425740 0.339010 0.831450 -0.425434
O57   O     O_2   0.111171 0.839878 0.553345 -0.226098
O58   O     O_2   0.244541 0.842676 0.660671 -0.201753
O59   O     O_3   0.243719 0.061432 0.620103 -0.440937
O60   O     O_R   0.574260 0.913270 0.168550 -0.426554
O61   O     O_R   0.086730 0.660990 0.331450 -0.450783
O62   O     O_R   0.339010 0.425740 0.168550 -0.438259
S1    S     S_3+6 0.261728 0.033428 0.416733 0.066240
S2    S     S_3+6 0.189550 0.519287 0.625723 0.056445
S3    S     S_3+6 0.707816 0.759622 0.907634 0.092597
S4    S     S_3+6 0.242482 0.920048 0.594400 0.104802
S5    S     S_3+6 0.776271 0.734716 0.090659 0.081978
S6    S     S_3+6 0.025913 0.245176 0.471012 0.056161
S7    S     S_3+6 0.294087 0.050995 0.089919 0.093546
S8    S     S_3+6 0.782157 0.714271 0.414992 0.056768
S9    S     S_3+6 0.907243 0.218253 0.081997 0.077118
S10   S     S_3+6 0.085590 0.305947 0.922246 0.090960
S11   S     S_3+6 0.686266 0.779918 0.578598 0.073650
S12   S     S_3+6 0.223481 0.959929 0.908631 0.087533

loop_
_geom_bond_atom_site_label_1
_geom_bond_atom_site_label_2
_ccdc_geom_bond_type
C27   C48   S    
O48   S12   D    
C28   C47   S    
C13   C26   S    
C37   C50   S    
O51   S2    D    
H26   O46   S    
C33   C45   S    
C60   O3    A    
C58   O62   A    
O55   S3    S    
O40   S10   D    
H30   O59   S    
O58   S4    D    
C48   H31   S    
C50   H33   S    
Cr6   O14   S    
C25   H11   S    
C59   O2    A    
C22   C52   S    
Cr1   O1    S    
C1    O23   A    
Cr2   O12   S    
C29   C42   S    
H20   O29   S    
Cr2   O6    S    
C4    C41   S    
C35   C48   S    
C16   S3    S    
Cr4   O19   S    
C28   C41   S    
C9    C39   S    
O57   S4    D    
C13   S11   S    
C30   H17   S    
C11   C37   S    
C9    C13   S    
C25   C50   S    
O35   S8    D    
C14   S12   S    
C42   C58   S    
C45   O1    A    
C3    O60   A    
C49   H32   S    
C2    C39   S    
Cr2   O9    S    
O43   S11   D    
O53   S3    D    
O38   S9    D    
C46   C55   S    
C58   O11   A    
Cr5   O16   S    
C15   S2    S    
C16   C32   S    
O49   S12   S    
O30   S7    D    
C5    S1    S    
C14   C27   S    
C53   H36   S    
Cr2   O18   S    
C8    S7    S    
C43   C59   S    
C24   C51   S    
C7    C15   S    
C39   C52   S    
C5    C43   S    
O26   S5    S    
O20   S1    D    
H29   O55   S    
Cr1   O18   S    
O39   S9    S    
C17   C30   S    
Cr5   O13   S    
H21   O32   S    
C30   C44   S    
C19   H6    S    
C22   H9    S    
Cr6   O4    S    
Cr1   O5    S    
Cr1   O8    S    
Cr5   O3    S    
C7    C20   S    
C2    O15   A    
C8    C21   S    
C48   C53   S    
C23   O7    A    
C52   H35   S    
Cr6   O19   S    
O46   S11   S    
C31   C44   S    
C44   H1    S    
O36   S8    S    
O59   S4    S    
O27   S6    D    
C13   C36   S    
Cr4   O60   S    
C27   H14   S    
C26   C49   S    
C14   C35   S    
C12   O6    A    
C24   H10   S    
C38   C51   S    
O54   S3    D    
C10   C24   S    
C16   C29   S    
C23   O45   A    
C21   H8    S    
C2    O4    A    
Cr4   O15   S    
C23   C31   S    
Cr3   O7    S    
C36   C49   S    
C6    C19   S    
C3    O16   A    
C42   C55   S    
C26   C39   S    
C18   C57   S    
C44   C57   S    
H28   O52   S    
C49   C52   S    
C19   C32   S    
O44   S11   D    
Cr5   O61   S    
C50   C51   S    
C4    O61   A    
Cr6   O62   S    
C4    O17   A    
Cr3   O23   S    
O33   S8    D    
O29   S6    S    
H22   O36   S    
C55   H3    S    
C1    O5    A    
C47   C54   S    
C38   C60   S    
C20   C33   S    
C34   O56   A    
C20   C54   S    
C3    C40   S    
C47   H23   S    
C5    C17   S    
Cr5   O19   S    
O32   S7    S    
C6    C42   S    
C33   C47   S    
C30   C43   S    
C60   O14   A    
O25   S5    D    
C25   C38   S    
C46   H12   S    
H25   O42   S    
C19   C55   S    
C18   H5    S    
Cr4   O2    S    
C24   C37   S    
C11   S10   S    
C8    C14   S    
Cr4   O11   S    
C27   C40   S    
C35   C56   S    
Cr3   O10   S    
C32   C46   S    
C9    S8    S    
C17   S4    S    
O50   S2    D    
C45   O9    A    
C5    C18   S    
Cr6   O17   S    
H18   O22   S    
C22   C36   S    
C26   H13   S    
Cr3   O56   S    
C10   C38   S    
C29   C46   S    
C51   H34   S    
O47   S12   D    
C21   C35   S    
O31   S7    D    
C28   H15   S    
C29   H16   S    
O24   S5    D    
C12   C37   S    
C21   C53   S    
Cr3   O18   S    
C15   C28   S    
O28   S6    D    
C34   O8    A    
Cr2   O45   S    
C15   C33   S    
C20   H7    S    
C7    C41   S    
C10   S9    S    
C9    C22   S    
O37   S9    D    
C41   C54   S    
H24   O39   S    
H27   O49   S    
C10   C11   S    
C43   C57   S    
C57   H4    S    
C6    C16   S    
O22   S1    S    
O21   S1    D    
C56   O12   A    
C54   H2    S    
C1    C36   S    
C59   O13   A    
C40   C53   S    
C12   O34   A    
C7    S6    S    
O42   S10   S    
C11   C25   S    
O52   S2    S    
H19   O26   S    
C18   C31   S    
C8    C40   S    
O41   S10   D    
C56   O10   A    
C17   C31   S    
Cr1   O34   S    
C32   C34   S    
C6    S5    S    
