data_mof_unit_14301.cif
_audit_creation_date              2012-12-10T19:09:34-0500
_audit_creation_method            fapswitch 2.2
_symmetry_space_group_name_H-M    P1
_symmetry_Int_Tables_number       1
_space_group_crystal_system       triclinic
_cell_length_a                    9.526838
_cell_length_b                    10.834334
_cell_length_c                    17.11678
_cell_angle_alpha                 89.37892
_cell_angle_beta                  94.054522
_cell_angle_gamma                 90.094637
_cell_volume                      1762.21573774

loop_
_atom_site_label
_atom_site_type_symbol
_atom_type_description
_atom_site_fract_x
_atom_site_fract_y
_atom_site_fract_z
_atom_type_partial_charge
C1    C     C_R   0.499808 0.262285 0.499559 0.790938
C2    C     C_R   0.659076 0.510912 0.778960 -0.223260
C3    C     C_R   0.578614 0.535487 0.141508 -0.160174
C4    C     C_R   0.583194 0.537366 0.222699 -0.265571
C5    C     C_R   0.460072 0.487488 0.098481 0.369221
C6    C     C_R   0.470791 0.491063 0.263014 -0.073810
C7    C     C_R   0.350846 0.441839 0.219820 -0.031571
C8    C     C_R   0.347189 0.442501 0.137906 -0.234895
C9    C     C_R   0.622268 0.064161 0.484920 0.128603
C10   C     C_R   0.498146 0.129219 0.493882 -0.094344
C11   C     C_R   0.370579 0.064072 0.494187 -0.233427
C12   C     C_R   0.517666 0.498808 0.650912 0.797192
C13   C     C_R   0.370447 0.935672 0.493310 -0.220152
C14   C     C_R   0.498276 0.870997 0.493544 -0.093263
C15   C     C_R   0.622464 0.936905 0.485122 0.118494
C16   C     C_3   0.759960 0.930339 0.532778 -0.462291
C17   C     C_3   0.760117 0.070319 0.532067 -0.482303
C18   C     C_R   0.070824 0.602002 0.475214 0.256302
C19   C     C_R   0.078421 0.405130 0.532583 -0.073636
C20   C     C_R   0.929542 0.405385 0.532875 -0.090605
C21   C     C_R   0.923267 0.601356 0.474353 0.262743
C22   C     C_3   0.909042 0.658288 0.394472 -0.508671
C23   C     C_R   0.499898 0.737731 0.499308 0.803781
C24   C     C_3   0.068571 0.662109 0.396502 -0.499378
C25   C     C_R   0.481949 0.497464 0.349095 0.789042
C26   C     C_R   0.527840 0.499890 0.736782 -0.028836
C27   C     C_R   0.405280 0.491386 0.777299 -0.237761
C28   C     C_R   0.413483 0.493707 0.858582 -0.159446
C29   C     C_R   0.545309 0.504529 0.901102 0.385600
C30   C     C_R   0.667279 0.513652 0.860552 -0.198539
Cu1   Cu    Cu3+1 0.640670 0.499980 0.500000 0.936218
Cu2   Cu    Cu3+1 0.359330 0.500020 0.500000 0.944977
H1    H     H_    0.674627 0.577129 0.253974 0.151442
H2    H     H_    0.271231 0.887661 0.496692 0.158736
H3    H     H_    0.750049 0.889336 0.591990 0.201614
H4    H     H_    0.845164 0.890721 0.499828 0.188277
H5    H     H_    0.751067 0.110794 0.590936 0.197030
H6    H     H_    0.844363 0.110714 0.497945 0.186528
H7    H     H_    0.137083 0.327344 0.557810 0.134866
H8    H     H_    0.877083 0.328196 0.558720 0.138530
H9    H     H_    0.861884 0.594069 0.349925 0.210769
H10   H     H_    0.860120 0.751244 0.393897 0.189506
H11   H     H_    0.113229 0.602959 0.352067 0.233768
H12   H     H_    0.667282 0.572718 0.112736 0.152991
H13   H     H_    0.111793 0.757409 0.399478 0.184139
H14   H     H_    0.769073 0.522541 0.892414 0.138271
H15   H     H_    0.755223 0.518110 0.749023 0.159427
H16   H     H_    0.316471 0.487633 0.887749 0.150667
H17   H     H_    0.256703 0.404891 0.104166 0.143898
H18   H     H_    0.302655 0.483035 0.746281 0.160772
H19   H     H_    0.271856 0.111562 0.499269 0.154503
N1    N     N_2   0.559451 0.507900 0.984102 -0.266203
N2    N     N_2   0.448540 0.483504 0.015604 -0.265205
N3    N     N_R   0.147870 0.500930 0.499500 -0.177846
N4    N     N_R   0.851960 0.500890 0.499500 -0.182536
O1    O     O_R   0.618810 0.319640 0.500000 -0.585059
O2    O     O_R   0.381230 0.319680 0.499990 -0.590656
O3    O     O_R   0.631790 0.498830 0.613930 -0.585882
O4    O     O_R   0.394210 0.498870 0.613920 -0.584088
O5    O     O_R   0.618770 0.680320 0.500010 -0.579045
O6    O     O_R   0.381190 0.680360 0.500000 -0.585860
O7    O     O_R   0.605790 0.501130 0.386080 -0.582574
O8    O     O_R   0.368210 0.501170 0.386070 -0.571376
C31   C     C_R   0.229571 0.385318 0.256860 0.126823
C32   C     C_R   0.092602 0.429715 0.237887 -0.186974
C33   C     C_R   0.977429 0.375127 0.271070 -0.134219
C34   C     C_R   0.997596 0.274833 0.322515 -0.102871
C35   C     C_R   0.132799 0.228020 0.340103 -0.129883
C36   C     C_R   0.248609 0.282727 0.307483 -0.073649
H20   H     H_    0.075277 0.507544 0.198144 0.130359
H21   H     H_    0.872472 0.410336 0.256702 0.135294
H22   H     H_    0.908324 0.232592 0.348127 0.125855
H23   H     H_    0.147312 0.148466 0.378368 0.117025
H24   H     H_    0.352703 0.244881 0.321250 0.101660

loop_
_geom_bond_atom_site_label_1
_geom_bond_atom_site_label_2
_ccdc_geom_bond_type
Cu1   O5    S    
C18   C21   A    
C19   C20   A    
C7    C8    A    
C26   C27   A    
C18   C24   S    
C24   H13   S    
Cu1   O3    S    
C5    N2    S    
C28   C29   A    
C1    O1    A    
Cu2   O6    S    
C16   H3    S    
C20   H8    S    
C22   H9    S    
C32   H20   S    
C34   H22   S    
C25   O8    A    
C12   O4    A    
Cu1   Cu2   S    
C35   C36   A    
Cu1   O1    S    
C9    C10   A    
C27   H18   S    
C17   H6    S    
C12   O3    A    
C33   C34   A    
C21   C22   S    
Cu1   O7    S    
Cu2   O2    S    
C20   N4    A    
Cu2   N3    S    
C23   O5    A    
C3    H12   S    
C34   C35   A    
C4    C6    A    
C21   N4    A    
C16   C17   S    
C35   H23   S    
C12   C26   S    
C14   C23   S    
C29   C30   A    
C1    O2    A    
C33   H21   S    
C36   H24   S    
C2    C26   A    
C17   H5    S    
C31   C36   A    
C19   H7    S    
C19   N3    A    
C9    C17   S    
C22   C24   S    
C3    C4    A    
N1    N2    D    
C4    H1    S    
C28   H16   S    
C30   H14   S    
C1    C10   S    
Cu2   O8    S    
C3    C5    A    
C5    C8    A    
C6    C7    A    
C2    H15   S    
C2    C30   A    
C31   C32   A    
C9    C15   A    
C13   H2    S    
C16   H4    S    
C11   C13   A    
C22   H10   S    
C25   O7    A    
C7    C31   S    
C11   H19   S    
C10   C11   A    
C18   N3    A    
C6    C25   S    
C23   O6    A    
C32   C33   A    
C27   C28   A    
C24   H11   S    
C14   C15   A    
Cu2   O4    S    
Cu1   N4    S    
C13   C14   A    
C8    H17   S    
C15   C16   S    
C29   N1    S    
