data_mof_unit_61623.cif
_audit_creation_date              2013-03-05T16:59:12-0500
_audit_creation_method            fapswitch 2.2
_symmetry_space_group_name_H-M    P1
_symmetry_Int_Tables_number       1
_space_group_crystal_system       triclinic
_cell_length_a                    16.877596
_cell_length_b                    16.562259
_cell_length_c                    17.459693
_cell_angle_alpha                 86.749982
_cell_angle_beta                  89.203752
_cell_angle_gamma                 95.561092
_cell_volume                      4848.8208766

loop_
_atom_site_label
_atom_site_type_symbol
_atom_site_description
_atom_site_fract_x
_atom_site_fract_y
_atom_site_fract_z
_atom_type_partial_charge
O1    O     O_R   0.433430 0.500000 0.610870 -0.554078
O2    O     O_R   0.566570 0.500000 0.389130 -0.550203
O3    O     O_R   0.566520 0.499990 0.610900 -0.616048
O4    O     O_R   0.433480 0.500010 0.389100 -0.619489
C1    C     C_R   0.500020 0.504234 0.646519 0.953547
C2    C     C_R   0.500366 0.499478 0.353516 0.937071
O5    O     O_R   0.426030 0.383870 0.500690 -0.555683
O6    O     O_R   0.573970 0.616130 0.499310 -0.562884
O7    O     O_R   0.559120 0.383870 0.500710 -0.585804
O8    O     O_R   0.440880 0.616130 0.499290 -0.585029
C3    C     C_R   0.489654 0.346054 0.494391 0.964278
C4    C     C_R   0.510916 0.654313 0.503755 0.949599
Zn1   Zn    Zn3+2 0.411140 0.500000 0.499980 1.093315
Zn2   Zn    Zn3+2 0.588860 0.500000 0.500020 1.101234
C5    C     C_R   0.486391 0.260980 0.471644 -0.356137
C6    C     C_R   0.517203 0.740712 0.522069 -0.351817
C7    C     C_R   0.552265 0.235184 0.430997 0.210170
C8    C     C_R   0.454019 0.770165 0.563480 0.212853
C9    C     C_R   0.555288 0.152765 0.418962 0.099268
C10   C     C_R   0.454147 0.853440 0.572823 0.095821
C11   C     C_R   0.494443 0.096263 0.448778 0.094201
C12   C     C_R   0.515199 0.907220 0.539164 0.095152
C13   C     C_R   0.422792 0.122787 0.474169 0.109504
C14   C     C_R   0.584696 0.877584 0.512026 0.106585
C15   C     C_R   0.419248 0.204792 0.487671 0.195615
C16   C     C_R   0.585440 0.794563 0.501310 0.196754
N1    N     N_2   0.508088 0.013792 0.458996 -0.102945
N2    N     N_2   0.503634 0.990177 0.528358 -0.102930
C17   C     C_R   0.453463 0.462238 0.148790 0.267648
C18   C     C_R   0.559021 0.580549 0.839582 0.262242
C19   C     C_R   0.455311 0.449774 0.228725 0.098752
C20   C     C_R   0.563195 0.567167 0.761134 0.095477
C21   C     C_R   0.501257 0.506282 0.270894 -0.146869
C22   C     C_R   0.499907 0.519489 0.727916 -0.169726
C23   C     C_R   0.544496 0.574113 0.234465 -0.180664
C24   C     C_R   0.431775 0.491391 0.771847 -0.173258
H1    H     H_    0.577984 0.618393 0.267651 0.220419
H2    H     H_    0.381967 0.457277 0.746606 0.227510
C25   C     C_R   0.542491 0.587194 0.155610 0.191102
C26   C     C_R   0.426795 0.506375 0.848755 0.185886
C27   C     C_R   0.496711 0.531559 0.112898 -0.116118
C28   C     C_R   0.491162 0.549098 0.882912 -0.102991
C29   C     C_1   0.494299 0.544527 0.032106 0.131766
C30   C     C_1   0.492299 0.550103 0.963947 0.140783
C31   C     C_R   0.160562 0.462946 0.558288 0.049521
C32   C     C_R   0.836976 0.545517 0.441054 0.049269
C33   C     C_R   0.242704 0.451060 0.550967 0.312903
C34   C     C_R   0.752507 0.539652 0.440576 0.375560
N3    N     N_R   0.292770 0.500020 0.499970 -0.179049
N4    N     N_R   0.707230 0.499980 0.500030 -0.187651
C35   C     C_R   0.258215 0.553439 0.449489 0.205742
C36   C     C_R   0.745269 0.457954 0.556741 0.199952
C37   C     C_R   0.174332 0.557984 0.449103 0.187789
C38   C     C_R   0.829693 0.461975 0.558677 0.186834
C39   C     C_R   0.124828 0.512942 0.504551 -0.139800
C40   C     C_R   0.876530 0.507307 0.501091 -0.149962
C41   C     C_1   0.037247 0.513481 0.503392 0.172971
C42   C     C_1   0.964426 0.511510 0.502337 0.166470
N5    N     N_R   0.390693 0.715705 0.598053 0.245355
O9    O     O_R   0.404953 0.666312 0.655661 -0.382482
O10   O     O_R   0.318196 0.717800 0.574188 -0.323213
N6    N     N_R   0.615358 0.292422 0.400095 0.246889
O11   O     O_R   0.602455 0.341654 0.341926 -0.344860
O12   O     O_R   0.686736 0.292395 0.427297 -0.321522
N7    N     N_R   0.268498 0.380117 0.590472 0.249365
O13   O     O_R   0.221048 0.313191 0.594997 -0.250642
O14   O     O_R   0.331197 0.383897 0.632432 -0.356876
N8    N     N_R   0.714776 0.568953 0.373459 0.232021
O15   O     O_R   0.721196 0.532879 0.309688 -0.320274
O16   O     O_R   0.682274 0.636740 0.373114 -0.326923
I1    I     I_    0.326344 0.635147 0.368963 -0.088918
I2    I     I_    0.680845 0.373469 0.637030 -0.047464
N9    N     N_R   0.139867 0.610395 0.393413 0.233135
O17   O     O_R   0.100564 0.669027 0.415529 -0.306701
O18   O     O_R   0.141493 0.595043 0.321188 -0.298897
N10   N     N_R   0.867552 0.417043 0.617705 0.229637
O19   O     O_R   0.864348 0.437587 0.688411 -0.291507
O20   O     O_R   0.902853 0.353667 0.601126 -0.302055
I3    I     I_    0.366658 0.897388 0.644389 -0.014362
I4    I     I_    0.647494 0.114635 0.349275 -0.005653
I5    I     I_    0.317471 0.040707 0.480793 -0.007145
I6    I     I_    0.692066 0.956363 0.500628 -0.015332
N11   N     N_R   0.347680 0.229670 0.518475 0.257331
O21   O     O_R   0.323297 0.200967 0.586555 -0.260703
O22   O     O_R   0.297767 0.260576 0.471760 -0.301614
N12   N     N_R   0.654850 0.766653 0.467847 0.259492
O23   O     O_R   0.679695 0.796371 0.400190 -0.283513
O24   O     O_R   0.703014 0.728823 0.511355 -0.317126
N13   N     N_R   0.408439 0.404544 0.104134 0.225791
O25   O     O_R   0.443554 0.368233 0.050937 -0.323608
O26   O     O_R   0.331825 0.390130 0.114844 -0.288691
N14   N     N_R   0.623490 0.626069 0.875366 0.225128
O27   O     O_R   0.611179 0.691934 0.908998 -0.316445
O28   O     O_R   0.693681 0.599847 0.877425 -0.283646
I7    I     I_    0.394453 0.342666 0.284364 -0.066260
I8    I     I_    0.660594 0.629748 0.694873 -0.055937
I9    I     I_    0.608724 0.692771 0.105276 -0.023298
I10   I     I_    0.320968 0.460807 0.910378 -0.039234
I11   I     I_    0.091285 0.410053 0.655366 0.042403
I12   I     I_    0.903988 0.612528 0.349861 0.063930

loop_
_geom_bond_atom_site_label_1
_geom_bond_atom_site_label_2
_geom_bond_distance
_ccdc_geom_bond_type
C27   C29   1.416514 S    
N9    O17   1.300909 A    
O7    Zn2   1.939474 S    
C17   N13   1.434781 S    
C25   C27   1.399332 A    
O5    C3    1.300903 A    
C35   I1    2.137275 S    
O1    C1    1.290175 A    
C23   H1    1.081650 S    
C14   C16   1.399383 A    
C26   I10   2.123819 S    
N12   O24   1.300885 A    
C5    C15   1.409166 A    
C31   C33   1.424045 A    
O4    Zn1   1.967144 S    
C14   I6    2.127945 S    
N6    O12   1.301078 A    
C21   C23   1.395124 A    
C3    C5    1.481595 S    
C4    C6    1.478011 S    
N8    O15   1.301175 A    
N7    O14   1.293960 A    
N4    C36   1.379574 A    
C19   C21   1.404520 A    
N13   O26   1.300898 A    
C22   C24   1.399456 A    
N11   O22   1.300850 A    
O6    C4    1.293125 A    
C34   N4    1.377136 A    
C11   N1    1.408903 S    
N5    O9    1.300153 A    
C12   N2    1.408922 S    
N9    O18   1.300905 A    
O2    C2    1.285793 A    
C28   C30   1.416258 S    
C36   C38   1.420923 A    
C32   C34   1.419698 A    
C37   C39   1.402371 A    
C6    C16   1.416297 A    
C38   C40   1.405978 A    
N5    O10   1.301047 A    
C24   C26   1.382189 A    
N10   O19   1.300796 A    
C18   N14   1.433876 S    
C31   I11   2.141365 S    
N12   O23   1.301469 A    
N3    C35   1.387658 A    
C35   C37   1.425100 A    
C20   C22   1.416514 A    
C23   C25   1.382925 A    
C29   C30   1.189592 T    
N6    O11   1.300165 A    
C36   I2    2.132043 S    
C7    N6    1.433225 S    
N11   O21   1.301027 A    
C16   N12   1.429656 S    
C1    C22   1.457496 S    
N14   O28   1.300923 A    
C34   N8    1.424919 S    
O7    C3    1.283785 A    
O3    Zn2   1.967144 S    
O8    C4    1.290934 A    
Zn1   N3    1.997835 S    
O4    C2    1.281990 A    
C20   I8    2.143814 S    
C10   C12   1.395147 A    
C39   C41   1.479475 S    
C12   C14   1.401334 A    
O1    Zn1   1.977444 S    
C24   H2    1.080094 S    
C5    C7    1.423651 A    
C32   I12   2.133618 S    
O6    Zn2   1.963096 S    
C13   I5    2.128207 S    
C10   I3    2.128776 S    
C17   C27   1.409584 A    
C38   N10   1.430991 S    
C37   N9    1.433589 S    
N10   O20   1.300527 A    
O3    C1    1.285395 A    
O8    Zn1   1.939471 S    
C33   N3    1.388804 A    
C2    C21   1.440318 S    
C11   C13   1.400739 A    
C17   C19   1.400423 A    
C18   C20   1.401735 A    
C41   C42   1.226720 T    
Zn2   N4    1.997836 S    
C19   I7    2.137606 S    
C26   C28   1.397640 A    
N14   O27   1.300445 A    
C7    C9    1.398495 A    
C40   C42   1.478873 S    
C8    C10   1.397789 A    
C13   C15   1.398381 A    
C9    I4    2.127438 S    
O2    Zn2   1.977441 S    
C25   I9    2.121121 S    
C8    N5    1.433091 S    
O5    Zn1   1.963096 S    
C31   C39   1.397892 A    
C6    C8    1.420309 A    
N7    O13   1.300962 A    
C32   C40   1.403946 A    
N1    N2    1.250321 D    
C15   N11   1.421830 S    
N8    O16   1.296191 A    
C18   C28   1.403922 A    
N13   O25   1.301040 A    
C33   N7    1.435762 S    
C9    C11   1.394611 A    
