data_mof_unit_27476.cif
_audit_creation_date              2012-12-10T18:50:53-0500
_audit_creation_method            fapswitch 2.2
_symmetry_space_group_name_H-M    P1
_symmetry_Int_Tables_number       1
_space_group_crystal_system       triclinic
_cell_length_a                    10.683722
_cell_length_b                    9.950671
_cell_length_c                    15.711805
_cell_angle_alpha                 91.732436
_cell_angle_beta                  91.181299
_cell_angle_gamma                 89.524082
_cell_volume                      1669.15750652

loop_
_atom_site_label
_atom_site_type_symbol
_atom_type_description
_atom_site_fract_x
_atom_site_fract_y
_atom_site_fract_z
_atom_type_partial_charge
C1    C     C_R   0.260229 0.500269 0.500076 0.856821
C2    C     C_R   0.935882 0.611332 0.535025 -0.187863
C3    C     C_R   0.872251 0.499052 0.501409 -0.011250
C4    C     C_R   0.127613 0.500019 0.500723 -0.004164
C5    C     C_R   0.553889 0.074176 0.565705 -0.124896
C6    C     C_R   0.559749 0.930998 0.563359 -0.129906
C7    C     C_R   0.499864 0.498258 0.338504 0.897939
C8    C     C_R   0.433208 0.926377 0.439580 0.207249
C9    C     C_R   0.451970 0.066655 0.431758 0.220464
C10   C     C_R   0.739676 0.499618 0.500509 0.856372
C11   C     C_R   0.500094 0.501801 0.661514 0.912073
C12   C     C_3   0.633417 0.480218 0.952541 -0.627795
C13   C     C_3   0.439243 0.632730 0.053979 -0.488053
C14   C     C_3   0.417994 0.381548 0.044766 -0.449725
C15   C     C_3   0.410665 0.389113 0.945994 0.750598
C16   C     C_3   0.449958 0.645975 0.955803 0.778531
C17   C     C_1   0.499887 0.505814 0.750421 -0.180741
C18   C     C_3   0.497279 0.498209 0.082773 0.172701
C19   C     C_3   0.498838 0.506404 0.917514 0.115801
C20   C     C_3   0.326508 0.861352 0.388352 -0.375971
C21   C     C_3   0.200720 0.904129 0.425481 -0.879050
C22   C     C_3   0.454746 0.115677 0.341341 -0.357240
C23   C     C_3   0.633124 0.484184 0.050693 -0.421278
C24   C     C_3   0.333446 0.184590 0.312057 -0.817408
C25   C     C_3   0.442304 0.248787 0.904090 -0.463709
C26   C     C_3   0.342634 0.142986 0.919734 -0.760771
C27   C     C_3   0.532478 0.771246 0.939072 -0.440331
C28   C     C_3   0.545024 0.807305 0.845673 -0.822357
C29   C     C_1   0.499695 0.507863 0.825849 0.011999
C30   C     C_1   0.498146 0.494750 0.174195 -0.050538
C31   C     C_1   0.499047 0.494791 0.249563 -0.203052
C32   C     C_R   0.063900 0.387063 0.468087 -0.192525
C33   C     C_R   0.064261 0.611423 0.535092 -0.176361
C34   C     C_R   0.935620 0.386547 0.468488 -0.188834
F1    F     F_    0.331271 0.672891 0.922423 -0.618843
F2    F     F_    0.288264 0.420857 0.922089 -0.614698
H1    H     H_    0.338983 0.637657 0.071985 0.218652
H2    H     H_    0.113729 0.696856 0.563104 0.157041
H3    H     H_    0.886230 0.299642 0.442122 0.152721
H4    H     H_    0.886635 0.697712 0.561990 0.153885
H5    H     H_    0.597343 0.129559 0.618562 0.151736
H6    H     H_    0.608385 0.879577 0.614094 0.147693
H7    H     H_    0.123576 0.850699 0.390609 0.250934
H8    H     H_    0.198059 0.879135 0.493727 0.267177
H9    H     H_    0.185265 0.013986 0.420492 0.256718
H10   H     H_    0.327873 0.885976 0.320188 0.180712
H11   H     H_    0.330364 0.752188 0.387542 0.265888
H12   H     H_    0.321932 0.385787 0.070992 0.203024
H13   H     H_    0.298267 0.255927 0.361357 0.276518
H14   H     H_    0.350629 0.240035 0.253210 0.239809
H15   H     H_    0.259739 0.109490 0.296748 0.235066
H16   H     H_    0.539691 0.175454 0.332552 0.220235
H17   H     H_    0.473336 0.030851 0.295654 0.152644
H18   H     H_    0.333681 0.125588 0.988759 0.238261
H19   H     H_    0.250415 0.174625 0.892957 0.298889
H20   H     H_    0.369624 0.046428 0.887695 0.249286
H21   H     H_    0.449624 0.256170 0.834047 0.216863
H22   H     H_    0.533544 0.210352 0.928662 0.170104
H23   H     H_    0.460742 0.285048 0.065327 0.149617
H24   H     H_    0.615693 0.741683 0.814140 0.245550
H25   H     H_    0.453622 0.799877 0.811000 0.299593
H26   H     H_    0.578451 0.912365 0.842198 0.234465
H27   H     H_    0.488401 0.859904 0.971694 0.210878
H28   H     H_    0.627250 0.761058 0.968547 0.178138
H29   H     H_    0.485873 0.717540 0.089712 0.137608
H30   H     H_    0.690174 0.570467 0.075505 0.195642
H31   H     H_    0.677565 0.390609 0.074582 0.196387
H32   H     H_    0.700081 0.555492 0.929566 0.220567
H33   H     H_    0.669697 0.381381 0.928918 0.203178
H34   H     H_    0.112775 0.300095 0.441777 0.144697
N1    N     N_R   0.499970 0.857200 0.499980 -0.110036
N2    N     N_R   0.499970 0.142800 0.499980 -0.107909
O1    O     O_R   0.316750 0.614620 0.499990 -0.631806
O2    O     O_R   0.316750 0.385380 0.499990 -0.618662
O3    O     O_R   0.499990 0.614720 0.377140 -0.638074
O4    O     O_R   0.499990 0.385280 0.377140 -0.616370
O5    O     O_R   0.683220 0.614710 0.500000 -0.620599
O6    O     O_R   0.683220 0.385290 0.500000 -0.624906
O7    O     O_R   0.499980 0.614620 0.622860 -0.611612
O8    O     O_R   0.499980 0.385380 0.622860 -0.614117
Zn1   Zn    Zn3+2 0.499980 0.653120 0.500000 0.937155
Zn2   Zn    Zn3+2 0.499980 0.346880 0.500000 0.943574

loop_
_geom_bond_atom_site_label_1
_geom_bond_atom_site_label_2
_ccdc_geom_bond_type
C12   H33   S    
C7    O3    A    
C17   C29   T    
C14   C18   S    
C9    N2    A    
C26   H19   S    
C10   O6    A    
C13   H29   S    
C15   C19   S    
C14   H23   S    
C12   H32   S    
C12   C23   S    
C8    C20   S    
C13   C18   S    
C1    O2    A    
C23   H30   S    
C5    N2    A    
C16   F1    S    
C30   C31   T    
C9    C22   S    
C15   C25   S    
C23   H31   S    
C21   H7    S    
C8    C9    A    
C18   C30   S    
C13   H1    S    
C28   H25   S    
C16   C27   S    
C25   H21   S    
O2    Zn2   S    
C26   H18   S    
O1    Zn1   S    
C10   O5    A    
C22   H17   S    
C21   H9    S    
C28   H24   S    
C24   H14   S    
C6    N1    A    
C7    C31   S    
C18   C23   S    
O8    Zn2   S    
C27   H28   S    
O4    Zn2   S    
O7    Zn1   S    
O3    Zn1   S    
C32   H34   S    
C3    C34   A    
C25   C26   S    
C34   H3    S    
C32   C34   A    
C21   H8    S    
O6    Zn2   S    
O5    Zn1   S    
C4    C32   A    
C11   O7    A    
C2    C33   A    
C22   C24   S    
C25   H22   S    
C19   C29   S    
C15   F2    S    
C22   H16   S    
C24   H13   S    
C5    H5    S    
C4    C33   A    
C11   C17   S    
C8    N1    A    
C26   H20   S    
C14   H12   S    
C7    O4    A    
C33   H2    S    
C1    C4    S    
C1    O1    A    
C2    C3    A    
C3    C10   S    
C5    C6    A    
C24   H15   S    
C16   C19   S    
C12   C19   S    
N2    Zn2   S    
C20   H11   S    
C11   O8    A    
C2    H4    S    
C20   C21   S    
C6    H6    S    
C13   C16   S    
C27   C28   S    
C14   C15   S    
C27   H27   S    
C20   H10   S    
N1    Zn1   S    
C28   H26   S    
