data_mof_unit_60600.cif
_audit_creation_date              2012-12-10T18:13:13-0500
_audit_creation_method            fapswitch 2.2
_symmetry_space_group_name_H-M    P1
_symmetry_Int_Tables_number       1
_space_group_crystal_system       triclinic
_cell_length_a                    18.293625
_cell_length_b                    18.302169
_cell_length_c                    25.989561
_cell_angle_alpha                 90.000382
_cell_angle_beta                  90.000541
_cell_angle_gamma                 90.000916
_cell_volume                      8701.64331092

loop_
_atom_site_label
_atom_site_type_symbol
_atom_type_description
_atom_site_fract_x
_atom_site_fract_y
_atom_site_fract_z
_atom_type_partial_charge
Br1   Br    Br    0.301402 0.929118 0.250746 -0.431984
Br2   Br    Br    0.814110 0.186277 0.364818 -0.411776
Br3   Br    Br    0.070801 0.301254 0.750824 -0.395527
Br4   Br    Br    0.070782 0.301321 0.249851 -0.394888
Br5   Br    Br    0.429197 0.801257 0.250764 -0.395650
Br6   Br    Br    0.429202 0.801271 0.749372 -0.395465
Br7   Br    Br    0.686744 0.685365 0.135244 -0.412220
Br8   Br    Br    0.686578 0.685545 0.864787 -0.412127
Br9   Br    Br    0.301407 0.929105 0.749419 -0.431939
Br10  Br    Br    0.814452 0.813247 0.135178 -0.390118
Br11  Br    Br    0.814292 0.813394 0.864834 -0.390037
Br12  Br    Br    0.685697 0.313389 0.635176 -0.390084
Br13  Br    Br    0.686400 0.314051 0.364873 -0.389757
Br14  Br    Br    0.198614 0.429103 0.750799 -0.431978
Br15  Br    Br    0.198555 0.429118 0.249864 -0.431671
Br16  Br    Br    0.813466 0.185594 0.635225 -0.412068
C1    C     C_R   0.859180 0.139355 0.250753 0.854687
C2    C     C_R   0.777389 0.223158 0.300028 0.244922
C3    C     C_R   0.226853 0.327283 0.250164 0.238116
C4    C     C_R   0.172691 0.273065 0.750148 0.237591
C5    C     C_R   0.172672 0.273086 0.250130 0.237589
C6    C     C_R   0.327309 0.773067 0.250123 0.237605
C7    C     C_R   0.327312 0.773069 0.749939 0.237598
C8    C     C_R   0.722974 0.722789 0.200002 0.244626
C9    C     C_R   0.722893 0.722874 0.800007 0.244701
C10   C     C_R   0.801414 0.193787 0.747315 -0.105967
C11   C     C_R   0.801383 0.193756 0.252720 -0.106197
C12   C     C_R   0.193516 0.198855 0.752398 -0.126741
C13   C     C_R   0.859191 0.139365 0.749259 0.854878
C14   C     C_R   0.193482 0.198889 0.247579 -0.126977
C15   C     C_R   0.306487 0.698859 0.252399 -0.126734
C16   C     C_R   0.306493 0.698865 0.747597 -0.126816
C17   C     C_R   0.698584 0.693788 0.247324 -0.105879
C18   C     C_R   0.698593 0.693780 0.752686 -0.105956
C19   C     C_R   0.769912 0.216484 0.793622 -0.200116
C20   C     C_R   0.769543 0.216121 0.206444 -0.200401
C21   C     C_R   0.267153 0.179419 0.756629 -0.194292
C22   C     C_R   0.267089 0.179486 0.243023 -0.194321
C23   C     C_R   0.232855 0.679427 0.256660 -0.194314
C24   C     C_R   0.139310 0.140863 0.249245 0.852973
C25   C     C_R   0.232865 0.679438 0.743274 -0.194279
C26   C     C_R   0.729982 0.716591 0.293641 -0.200030
C27   C     C_R   0.730104 0.716467 0.706381 -0.200147
C28   C     C_R   0.179390 0.732913 0.256615 -0.208868
C29   C     C_R   0.179401 0.732923 0.743319 -0.208906
C30   C     C_R   0.783432 0.770081 0.293616 -0.207118
C31   C     C_R   0.783552 0.769957 0.706406 -0.207139
C32   C     C_R   0.716469 0.269978 0.793599 -0.207114
C33   C     C_R   0.716103 0.269609 0.206468 -0.207219
C34   C     C_R   0.320618 0.232905 0.756582 -0.208905
C35   C     C_R   0.139323 0.140850 0.750746 0.853009
C36   C     C_R   0.320551 0.232968 0.243070 -0.209054
C37   C     C_R   0.198880 0.806507 0.252314 -0.117987
C38   C     C_R   0.198885 0.806511 0.747688 -0.117998
C39   C     C_R   0.806161 0.801468 0.247275 -0.114619
C40   C     C_R   0.806173 0.801457 0.752735 -0.114689
C41   C     C_R   0.693835 0.301465 0.747267 -0.114686
C42   C     C_R   0.693802 0.301432 0.252769 -0.114921
C43   C     C_R   0.301125 0.306502 0.752307 -0.117933
C44   C     C_R   0.301092 0.306534 0.247667 -0.118092
C45   C     C_R   0.066302 0.001496 0.026693 -0.169303
C46   C     C_R   0.360681 0.640854 0.749252 0.853051
C47   C     C_R   0.066302 0.001496 0.973308 -0.169260
C48   C     C_R   0.933640 0.997673 0.026695 -0.148404
C49   C     C_R   0.933640 0.997673 0.973304 -0.148394
C50   C     C_R   0.566360 0.497670 0.526696 -0.148396
C51   C     C_R   0.566360 0.497670 0.473305 -0.148407
C52   C     C_R   0.433698 0.501500 0.526691 -0.169275
C53   C     C_R   0.433698 0.501500 0.473307 -0.169227
C54   C     C_R   0.999975 0.999683 0.946312 -0.007839
C55   C     C_R   0.999974 0.999683 0.053688 -0.007829
C56   C     C_R   0.500026 0.499683 0.446312 -0.007907
C57   C     C_R   0.360677 0.640851 0.250746 0.852940
C58   C     C_R   0.500025 0.499683 0.553688 -0.007870
C59   C     C_R   0.140870 0.860711 0.250663 0.854150
C60   C     C_R   0.140873 0.860712 0.749336 0.854085
C61   C     C_R   0.860618 0.859223 0.249179 0.852317
C62   C     C_R   0.860622 0.859220 0.750824 0.852365
C63   C     C_R   0.639379 0.359221 0.749176 0.852371
C64   C     C_R   0.639369 0.359210 0.250837 0.852356
C65   C     C_R   0.359132 0.360708 0.750661 0.854101
C66   C     C_R   0.359119 0.360721 0.249329 0.853961
C67   C     C_R   0.999993 0.999893 0.109792 0.804570
C68   C     C_R   0.640809 0.639365 0.750740 0.854852
C69   C     C_R   0.999993 0.999893 0.890208 0.804566
C70   C     C_R   0.500006 0.499893 0.609792 0.804545
C71   C     C_R   0.500007 0.499893 0.390208 0.804454
C72   C     C_R   0.999933 0.999960 0.389896 0.817712
C73   C     C_R   0.999933 0.999959 0.610104 0.817802
C74   C     C_R   0.500066 0.499960 0.889896 0.817839
C75   C     C_R   0.500066 0.499959 0.110104 0.817845
C76   C     C_R   0.998188 0.063103 0.474059 0.115695
C77   C     C_R   0.998187 0.063102 0.525942 0.115796
C78   C     C_R   0.501874 0.563101 0.974059 0.115794
C79   C     C_R   0.640806 0.639367 0.249263 0.854915
C80   C     C_R   0.501875 0.563100 0.025942 0.115818
C81   C     C_R   0.999879 0.999090 0.445495 -0.067304
C82   C     C_R   0.999879 0.999089 0.554505 -0.067279
C83   C     C_R   0.500105 0.499091 0.945495 -0.067299
C84   C     C_R   0.500105 0.499090 0.054505 -0.067292
C85   C     C_R   0.001554 0.932507 0.472967 -0.206068
C86   C     C_R   0.001554 0.932507 0.527033 -0.206090
C87   C     C_R   0.498338 0.432510 0.972967 -0.206082
C88   C     C_R   0.498338 0.432509 0.027033 -0.206124
C89   C     C_3   0.995814 0.144273 0.529641 -0.416388
C90   C     C_R   0.777121 0.222889 0.699998 0.244689
C91   C     C_3   0.995815 0.144274 0.470365 -0.416069
C92   C     C_3   0.504394 0.644266 0.029640 -0.416375
C93   C     C_3   0.504393 0.644267 0.970363 -0.416291
C94   C     C_R   0.273132 0.827270 0.250092 0.238102
C95   C     C_R   0.273133 0.827269 0.749977 0.238115
C96   C     C_R   0.777135 0.777011 0.199978 0.241354
C97   C     C_R   0.777060 0.777088 0.800030 0.241383
C98   C     C_R   0.722947 0.277098 0.699975 0.241379
C99   C     C_R   0.723218 0.277366 0.300052 0.241442
C100  C     C_R   0.226873 0.327266 0.750112 0.238095
H1    H     H_    0.002925 0.880603 0.452982 0.184081
H2    H     H_    0.453713 0.667329 0.953251 0.215530
H3    H     H_    0.556422 0.664145 0.046717 0.255115
H4    H     H_    0.556421 0.664146 0.953287 0.255142
H5    H     H_    0.787849 0.193797 0.830014 0.174892
H6    H     H_    0.787215 0.193182 0.170064 0.175165
H7    H     H_    0.283385 0.122553 0.758889 0.206725
H8    H     H_    0.283314 0.122640 0.240513 0.206895
H9    H     H_    0.216624 0.622565 0.258940 0.206755
H10   H     H_    0.216635 0.622579 0.740941 0.206780
H11   H     H_    0.711959 0.693987 0.330037 0.174812
H12   H     H_    0.002925 0.880602 0.547016 0.184067
H13   H     H_    0.712173 0.693774 0.669990 0.174903
H14   H     H_    0.122493 0.716727 0.258874 0.185250
H15   H     H_    0.122507 0.716739 0.741008 0.185278
H16   H     H_    0.806065 0.788141 0.329995 0.175151
H17   H     H_    0.806270 0.787927 0.670032 0.175253
H18   H     H_    0.693761 0.287957 0.829975 0.175244
H19   H     H_    0.693142 0.287323 0.170103 0.175507
H20   H     H_    0.377518 0.216719 0.758817 0.185199
H21   H     H_    0.377432 0.216789 0.240584 0.185391
H22   H     H_    0.118184 0.003039 0.046743 0.175271
H23   H     H_    0.496898 0.380608 0.952982 0.184058
H24   H     H_    0.118184 0.003039 0.953259 0.175295
H25   H     H_    0.881763 0.996078 0.046753 0.185025
H26   H     H_    0.881763 0.996078 0.953245 0.185055
H27   H     H_    0.618237 0.496071 0.546755 0.185096
H28   H     H_    0.618237 0.496071 0.453247 0.185176
H29   H     H_    0.381816 0.503046 0.546741 0.175303
H30   H     H_    0.381816 0.503046 0.453257 0.175345
H31   H     H_    0.496898 0.380607 0.047016 0.184031
H32   H     H_    0.943821 0.164243 0.546719 0.255129
H33   H     H_    0.943823 0.164247 0.453288 0.255238
H34   H     H_    0.046536 0.167245 0.546754 0.215492
H35   H     H_    0.046537 0.167248 0.453254 0.215553
H36   H     H_    0.453714 0.667328 0.046752 0.215506
O1    O     O_3   0.000000 0.000010 0.249960 -0.511612
O2    O     O_R   0.414520 0.646190 0.219700 -0.605939
O3    O     O_R   0.585480 0.646190 0.780300 -0.586225
O4    O     O_R   0.585480 0.646190 0.219700 -0.586249
O5    O     O_R   0.085460 0.853840 0.280340 -0.644947
O6    O     O_R   0.085460 0.853840 0.719660 -0.645017
O7    O     O_R   0.914540 0.853840 0.280340 -0.647922
O8    O     O_R   0.914540 0.853840 0.719660 -0.647973
O9    O     O_R   0.585460 0.353840 0.780340 -0.647973
O10   O     O_R   0.585460 0.353840 0.219660 -0.648118
O11   O     O_R   0.414540 0.353840 0.780340 -0.644977
O12   O     O_3   0.000000 0.000010 0.750040 -0.511620
O13   O     O_R   0.414540 0.353840 0.219660 -0.645189
O14   O     O_R   0.853820 0.914550 0.219610 -0.599396
O15   O     O_R   0.853820 0.914550 0.780390 -0.599341
O16   O     O_R   0.146180 0.914550 0.219610 -0.602834
O17   O     O_R   0.146180 0.914550 0.780390 -0.602799
O18   O     O_R   0.353820 0.414550 0.719610 -0.602842
O19   O     O_R   0.353820 0.414550 0.280390 -0.602705
O20   O     O_R   0.646180 0.414550 0.719610 -0.599326
O21   O     O_R   0.646180 0.414550 0.280390 -0.599202
O22   O     O_R   0.146170 0.085440 0.219600 -0.630185
O23   O     O_3   0.500000 0.500010 0.749960 -0.511619
O24   O     O_R   0.146170 0.085440 0.780400 -0.629984
O25   O     O_R   0.853830 0.085440 0.219600 -0.647706
O26   O     O_R   0.853830 0.085440 0.780400 -0.647531
O27   O     O_R   0.646170 0.585440 0.719600 -0.647522
O28   O     O_R   0.646170 0.585440 0.280400 -0.647402
O29   O     O_R   0.353830 0.585440 0.719600 -0.630046
O30   O     O_R   0.353830 0.585440 0.280400 -0.629934
O31   O     O_R   0.939270 0.999980 0.134160 -0.631506
O32   O     O_R   0.939270 0.999980 0.865840 -0.631506
O33   O     O_R   0.060730 0.999980 0.134160 -0.645222
O34   O     O_3   0.500000 0.500010 0.250040 -0.511621
O35   O     O_R   0.060730 0.999980 0.865840 -0.645175
O36   O     O_R   0.439270 0.499980 0.634160 -0.645204
O37   O     O_R   0.439270 0.499980 0.365840 -0.645132
O38   O     O_R   0.560730 0.499980 0.634160 -0.631502
O39   O     O_R   0.560730 0.499980 0.365840 -0.631470
O40   O     O_R   0.000000 0.060760 0.365760 -0.625347
O41   O     O_R   0.000000 0.060760 0.634240 -0.625438
O42   O     O_R   0.500000 0.560760 0.865760 -0.625431
O43   O     O_R   0.500000 0.560760 0.134240 -0.625451
O44   O     O_R   0.000000 0.939310 0.365770 -0.651182
O45   O     O_R   0.914520 0.146190 0.280300 -0.586072
O46   O     O_R   0.000000 0.939310 0.634230 -0.651181
O47   O     O_R   0.500000 0.439310 0.865770 -0.651168
O48   O     O_R   0.500000 0.439310 0.134230 -0.651191
O49   O     O_R   0.914520 0.146190 0.719700 -0.586209
O50   O     O_R   0.085480 0.146190 0.280300 -0.605736
O51   O     O_R   0.085480 0.146190 0.719700 -0.605914
O52   O     O_R   0.414520 0.646190 0.780300 -0.605878
Zn1   Zn    Zn3+2 0.000000 0.913260 0.293350 0.989478
Zn2   Zn    Zn3+2 0.413230 0.500000 0.293420 1.020561
Zn3   Zn    Zn3+2 0.586770 0.500000 0.706580 1.023564
Zn4   Zn    Zn3+2 0.586770 0.500000 0.293420 1.023721
Zn5   Zn    Zn3+2 0.000000 0.086780 0.293330 1.045318
Zn6   Zn    Zn3+2 0.000000 0.086780 0.706670 1.045177
Zn7   Zn    Zn3+2 0.500000 0.586780 0.793330 1.045207
Zn8   Zn    Zn3+2 0.500000 0.586780 0.206670 1.045132
Zn9   Zn    Zn3+2 1.000000 0.913260 0.706650 0.989428
Zn10  Zn    Zn3+2 0.500000 0.413260 0.793350 0.989467
Zn11  Zn    Zn3+2 0.500000 0.413260 0.206650 0.989229
Zn12  Zn    Zn3+2 0.913230 0.000000 0.206580 1.023362
Zn13  Zn    Zn3+2 0.913230 0.000000 0.793420 1.023563
Zn14  Zn    Zn3+2 0.086770 0.000000 0.206580 1.020430
Zn15  Zn    Zn3+2 0.086770 0.000000 0.793420 1.020552
Zn16  Zn    Zn3+2 0.413230 0.500000 0.706580 1.020493

loop_
_geom_bond_atom_site_label_1
_geom_bond_atom_site_label_2
_ccdc_geom_bond_type
O12   Zn13  S    
C37   C94   A    
C83   C87   A    
O9    Zn10  S    
C69   O35   A    
C85   C86   A    
C23   H9    S    
O34   Zn8   S    
C39   C96   A    
O4    Zn8   S    
O47   Zn10  S    
O23   Zn16  S    
C72   O44   A    
O26   Zn13  S    
Br6   C7    S    
Br9   C95   S    
C8    C96   A    
O23   Zn3   S    
C10   C90   A    
C32   C41   A    
O35   Zn15  S    
C71   O37   A    
O6    Zn9   S    
Br15  C3    S    
C89   H34   S    
C89   C91   S    
C60   O6    A    
C62   O15   A    
C90   C98   A    
C17   C26   A    
C12   C21   A    
C32   H18   S    
C3    C5    A    
C64   O21   A    
C51   C56   A    
C86   H12   S    
C30   H16   S    
C39   C61   S    
C68   O3    A    
C45   H22   S    
C15   C57   S    
C22   C36   A    
C48   H25   S    
C19   C32   A    
C28   H14   S    
Br7   C8    S    
C50   C58   A    
C84   C88   A    
O48   Zn11  S    
C40   C62   S    
C92   C93   S    
C14   C22   A    
O25   Zn12  S    
C79   O4    A    
C47   H24   S    
C48   C55   A    
O44   Zn1   S    
C45   C47   A    
C41   C63   S    
O2    Zn8   S    
C36   C44   A    
C77   C89   S    
O42   Zn7   S    
C21   H7    S    
C44   C66   S    
C28   C37   A    
O13   Zn11  S    
Br5   C6    S    
C72   O40   A    
O12   Zn6   S    
C52   C53   A    
C6    C94   A    
O24   Zn15  S    
C57   O2    A    
C76   C81   A    
C40   C97   A    
O51   Zn6   S    
Br10  C96   S    
C59   O16   A    
O22   Zn14  S    
O23   Zn7   S    
C75   C84   S    
C2    C11   A    
C55   C67   S    
C72   C81   S    
C42   C64   S    
C9    C18   A    
C78   C80   A    
C91   H35   S    
C45   C55   A    
C50   C51   A    
C33   H19   S    
C92   H36   S    
C31   H17   S    
Br8   C9    S    
C65   O11   A    
C88   H31   S    
C37   C59   S    
C18   C68   S    
C63   O9    A    
C59   O5    A    
C51   H28   S    
C17   C79   S    
C35   O51   A    
C93   H2    S    
O7    Zn1   S    
O18   Zn16  S    
O10   Zn11  S    
O36   Zn16  S    
O27   Zn3   S    
C70   O38   A    
C13   O49   A    
C6    C15   A    
O34   Zn2   S    
C14   C24   S    
C1    C11   S    
O23   Zn10  S    
C27   H13   S    
O5    Zn1   S    
O33   Zn14  S    
C4    C100  A    
C43   C100  A    
C74   O47   A    
C4    C12   A    
C61   O14   A    
C82   C86   A    
C89   H32   S    
C79   O28   A    
C33   C42   A    
O30   Zn2   S    
C63   O20   A    
C30   C39   A    
C68   O27   A    
C20   H6    S    
C20   C33   A    
C73   O46   A    
C60   O17   A    
C87   H23   S    
Br1   C94   S    
C75   O43   A    
C10   C19   A    
C76   C91   S    
C74   O42   A    
C47   C54   A    
C19   H5    S    
O37   Zn2   S    
C16   C25   A    
C73   O41   A    
O34   Zn11  S    
O29   Zn16  S    
C36   H21   S    
C67   O31   A    
Br3   C4    S    
C65   O18   A    
C58   C70   S    
O19   Zn2   S    
C1    O45   A    
C56   C71   S    
C46   O52   A    
O1    Zn14  S    
Br13  C99   S    
C26   H11   S    
C61   O7    A    
Br12  C98   S    
O1    Zn1   S    
C9    C97   A    
O12   Zn15  S    
C62   O8    A    
O32   Zn13  S    
O17   Zn15  S    
C24   O50   A    
C29   C38   A    
C29   H15   S    
C69   O32   A    
C13   O26   A    
C26   C30   A    
C42   C99   A    
C3    C44   A    
C23   C28   A    
C38   C60   S    
C75   O48   A    
O50   Zn5   S    
O49   Zn6   S    
C53   C56   A    
C71   O39   A    
C1    O25   A    
O31   Zn12  S    
C74   C83   S    
C66   O19   A    
C49   H26   S    
C12   C35   S    
C25   H10   S    
O20   Zn3   S    
C18   C27   A    
C43   C65   S    
Br2   C2    S    
C92   H3    S    
C2    C99   A    
C41   C98   A    
C50   H27   S    
Br16  C90   S    
O12   Zn9   S    
C7    C95   A    
C5    C14   A    
C78   C93   S    
C53   H30   S    
C8    C17   A    
O34   Zn4   S    
C73   C82   S    
C11   C20   A    
C85   H1    S    
C7    C16   A    
O3    Zn7   S    
C34   C43   A    
C16   C46   S    
O43   Zn8   S    
C34   H20   S    
C48   C49   A    
C46   O29   A    
O1    Zn5   S    
Br4   C5    S    
O46   Zn9   S    
C57   O30   A    
O41   Zn6   S    
C78   C83   A    
Br14  C100  S    
O8    Zn9   S    
C80   C84   A    
O52   Zn7   S    
C21   C34   A    
C76   C77   A    
O11   Zn10  S    
C15   C23   A    
C38   C95   A    
O21   Zn4   S    
O39   Zn4   S    
C80   C92   S    
C35   O24   A    
Br11  C97   S    
C22   H8    S    
O40   Zn5   S    
O45   Zn5   S    
C52   H29   S    
C91   H33   S    
O38   Zn3   S    
C24   O22   A    
C10   C13   S    
C64   O10   A    
C87   C88   A    
C25   C29   A    
C67   O33   A    
O16   Zn14  S    
O28   Zn4   S    
C54   C69   S    
C27   C31   A    
C77   C82   A    
O15   Zn13  S    
O1    Zn12  S    
C81   C85   A    
C70   O36   A    
C49   C54   A    
C93   H4    S    
O14   Zn12  S    
C31   C40   A    
C52   C58   A    
C66   O13   A    
