data_mof_unit_40322.cif
_audit_creation_date              2012-12-11T17:01:25-0500
_audit_creation_method            fapswitch 2.2
_symmetry_space_group_name_H-M    P1
_symmetry_Int_Tables_number       1
_space_group_crystal_system       triclinic
_cell_length_a                    19.304072
_cell_length_b                    7.099851
_cell_length_c                    17.724364
_cell_angle_alpha                 89.999966
_cell_angle_beta                  108.472978
_cell_angle_gamma                 90.000015
_cell_volume                      2304.06054315

loop_
_atom_site_label
_atom_site_type_symbol
_atom_type_description
_atom_site_fract_x
_atom_site_fract_y
_atom_site_fract_z
_atom_type_partial_charge
O1    O     O_R   0.413720 0.494330 0.415730 -0.534041
O2    O     O_R   0.586280 0.994330 0.584270 -0.534040
O3    O     O_R   0.560210 0.819300 0.430070 -0.538707
O4    O     O_R   0.439790 0.319300 0.569930 -0.538707
C1    C     C_R   0.582940 0.656551 0.416109 0.736864
C2    C     C_R   0.417060 0.156551 0.583891 0.736863
O5    O     O_R   0.412670 0.823730 0.406310 -0.548076
O6    O     O_R   0.587330 0.323730 0.593690 -0.548076
O7    O     O_R   0.437690 0.998790 0.560340 -0.543065
O8    O     O_R   0.562310 0.498790 0.439660 -0.543064
C3    C     C_R   0.384715 0.654985 0.384197 0.690970
C4    C     C_R   0.615285 0.154985 0.615803 0.690968
O9    O     O_3   0.508380 0.662350 0.550560 -0.377943
O10   O     O_3   0.491620 0.162350 0.449440 -0.377943
V1    V     V_3+5 0.498450 0.935370 0.490620 1.375712
V2    V     V_3+5 0.501550 0.435370 0.509380 1.375713
C5    C     C_R   0.738047 0.004695 0.688355 0.058929
C6    C     C_R   0.261953 0.504695 0.311645 0.058930
C7    C     C_R   0.685695 0.147097 0.681949 -0.134878
C8    C     C_R   0.314305 0.647097 0.318051 -0.134877
C9    C     C_R   0.705624 0.293094 0.739114 -0.179699
C10   C     C_R   0.294376 0.793094 0.260886 -0.179700
C11   C     C_R   0.770852 0.283097 0.804207 -0.178971
C12   C     C_R   0.229148 0.783097 0.195792 -0.178972
H1    H     H_    0.782783 0.394729 0.848043 0.123038
H2    H     H_    0.217217 0.894729 0.151956 0.123039
C13   C     C_R   0.817552 0.125125 0.815038 -0.092042
C14   C     C_R   0.182448 0.625124 0.184962 -0.092041
C15   C     C_R   0.800052 0.992014 0.754180 0.041515
C16   C     C_R   0.199948 0.492014 0.245820 0.041516
C17   C     C_3   0.802086 0.782895 0.753430 -0.430000
C18   C     C_3   0.197915 0.282895 0.246570 -0.430003
C19   C     C_3   0.735859 0.794532 0.677908 0.135671
C20   C     C_3   0.264141 0.294533 0.322092 0.135670
H3    H     H_    0.852834 0.728177 0.744354 0.179739
H4    H     H_    0.147166 0.228176 0.255646 0.179740
H5    H     H_    0.684901 0.728504 0.681953 0.125544
H6    H     H_    0.315099 0.228505 0.318048 0.125545
C21   C     C_R   0.310257 0.295069 0.620483 0.264406
C22   C     C_R   0.689742 0.795070 0.379516 0.264404
C23   C     C_R   0.365258 0.154400 0.630762 -0.142596
C24   C     C_R   0.634741 0.654400 0.369237 -0.142598
C25   C     C_R   0.372646 0.014644 0.688629 -0.291304
C26   C     C_R   0.627354 0.514644 0.311370 -0.291303
C27   C     C_R   0.325281 0.007086 0.734381 0.106515
C28   C     C_R   0.674719 0.507086 0.265619 0.106514
C29   C     C_R   0.270120 0.144449 0.723842 -0.009746
C30   C     C_R   0.729880 0.644450 0.276158 -0.009746
C31   C     C_R   0.262089 0.287677 0.666592 0.014562
C32   C     C_R   0.737910 0.787678 0.333407 0.014565
C33   C     C_R   0.331832 0.862312 0.790093 -0.192468
C34   C     C_R   0.668168 0.362312 0.209907 -0.192466
C35   C     C_R   0.284170 0.852885 0.835039 -0.173125
C36   C     C_R   0.715830 0.352884 0.164961 -0.173126
C37   C     C_R   0.229812 0.989882 0.826101 0.119626
C38   C     C_R   0.770188 0.489882 0.173899 0.119625
C39   C     C_R   0.222629 0.137237 0.770423 0.009945
C40   C     C_R   0.777371 0.637237 0.229577 0.009945
C41   C     C_R   0.168084 0.276576 0.761488 0.029369
C42   C     C_R   0.831916 0.776576 0.238511 0.029369
C43   C     C_R   0.159234 0.419234 0.703451 0.274861
C44   C     C_R   0.840766 0.919234 0.296549 0.274859
C45   C     C_R   0.205050 0.419208 0.655402 -0.212930
C46   C     C_R   0.794950 0.919208 0.344598 -0.212928
C47   C     C_R   0.182544 0.981423 0.871937 -0.192097
C48   C     C_R   0.817456 0.481423 0.128063 -0.192096
C49   C     C_R   0.129919 0.122155 0.865432 -0.089863
C50   C     C_R   0.870081 0.622155 0.134568 -0.089863
C51   C     C_R   0.123576 0.269797 0.811056 -0.211971
C52   C     C_R   0.876424 0.769797 0.188944 -0.211970
H7    H     H_    0.373484 0.754944 0.798351 0.125724
H8    H     H_    0.626517 0.254943 0.201649 0.125724
H9    H     H_    0.290055 0.738629 0.877149 0.125749
H10   H     H_    0.709946 0.238628 0.122851 0.125749
H11   H     H_    0.187826 0.867538 0.914174 0.118175
H12   H     H_    0.812174 0.367538 0.085826 0.118175
O11   O     O_R   0.937800 0.775460 0.060470 -0.537781
O12   O     O_R   0.062200 0.275460 0.939530 -0.537781
O13   O     O_R   0.087350 0.441340 0.093710 -0.537807
O14   O     O_R   0.912650 0.941340 0.906290 -0.537807
C53   C     C_R   0.115112 0.610506 0.115701 0.693330
C54   C     C_R   0.884888 0.110506 0.884298 0.693331
O15   O     O_R   0.939820 0.446010 0.069950 -0.540352
O16   O     O_R   0.060180 0.946010 0.930050 -0.540352
O17   O     O_R   0.913690 0.271230 0.915700 -0.541589
O18   O     O_R   0.086310 0.771230 0.084300 -0.541589
C55   C     C_R   0.918670 0.614303 0.084745 0.700847
C56   C     C_R   0.081330 0.114303 0.915254 0.700846
O19   O     O_3   0.991670 0.603050 0.949510 -0.373507
O20   O     O_3   0.008330 0.103050 0.050490 -0.373507
V3    V     V_3+5 0.001550 0.329940 0.009370 1.401241
V4    V     V_3+5 0.998450 0.829940 0.990630 1.401241
H13   H     H_    0.669510 0.411781 0.735426 0.127255
H14   H     H_    0.330490 0.911781 0.264574 0.127255
H15   H     H_    0.082704 0.377111 0.806922 0.146147
H16   H     H_    0.917296 0.877111 0.193078 0.146148
N1    N     N_2   0.102851 0.557452 0.692781 -0.520918
H17   H     H_    0.050839 0.503444 0.680340 0.247110
C57   C     C_3   0.106860 0.733340 0.652990 -0.540663
H18   H     H_    0.068885 0.836798 0.665716 0.201788
H19   H     H_    0.090560 0.711255 0.587660 0.182856
H20   H     H_    0.162900 0.792631 0.675013 0.214832
N2    N     N_2   0.897150 0.057450 0.307219 -0.520918
H21   H     H_    0.949161 0.003440 0.319661 0.247110
C58   C     C_3   0.893141 0.233337 0.347011 -0.540663
H22   H     H_    0.931118 0.336793 0.334287 0.201787
H23   H     H_    0.909439 0.211250 0.412340 0.182855
H24   H     H_    0.837102 0.292633 0.324986 0.214833
H25   H     H_    0.195327 0.521308 0.608059 0.173951
H26   H     H_    0.804673 0.021308 0.391941 0.173951
H27   H     H_    0.788685 0.721142 0.804701 0.147347
H28   H     H_    0.211315 0.221142 0.195299 0.147347
N3    N     N_2   0.754695 0.740911 0.607744 -0.524153
H29   H     H_    0.799760 0.808610 0.601059 0.271460
C59   C     C_3   0.753417 0.541629 0.591253 -0.558534
H30   H     H_    0.697990 0.485254 0.581958 0.219932
H31   H     H_    0.767310 0.517905 0.535796 0.189184
H32   H     H_    0.793654 0.465997 0.640958 0.208723
N4    N     N_2   0.245305 0.240912 0.392256 -0.524153
H33   H     H_    0.200239 0.308607 0.398940 0.271460
C60   C     C_3   0.246586 0.041631 0.408749 -0.558541
H34   H     H_    0.302014 0.985263 0.418049 0.219934
H35   H     H_    0.232689 0.017905 0.464203 0.189184
H36   H     H_    0.206353 0.965993 0.359043 0.208726
N5    N     N_2   0.301430 0.440929 0.562667 -0.538445
H37   H     H_    0.314531 0.405118 0.512795 0.294617
C61   C     C_3   0.331648 0.621308 0.594224 -0.524320
H38   H     H_    0.391803 0.611408 0.621527 0.209943
H39   H     H_    0.307583 0.670413 0.639696 0.200272
H40   H     H_    0.318986 0.726807 0.545493 0.189943
N6    N     N_2   0.698571 0.940926 0.437333 -0.538445
H41   H     H_    0.685469 0.905114 0.487205 0.294616
C62   C     C_3   0.668354 0.121308 0.405778 -0.524319
H42   H     H_    0.608201 0.111406 0.378475 0.209945
H43   H     H_    0.692420 0.170421 0.360308 0.200272
H44   H     H_    0.681014 0.226804 0.454513 0.189939
H45   H     H_    0.415963 0.911372 0.698373 0.133902
H46   H     H_    0.584037 0.411371 0.301627 0.133902

loop_
_geom_bond_atom_site_label_1
_geom_bond_atom_site_label_2
_ccdc_geom_bond_type
O15   C55   A    
C1    C24   S    
O11   V4    S    
C45   H25   S    
C31   C45   A    
C13   C15   A    
C5    C15   A    
C35   C37   A    
C48   C50   A    
O1    C3    A    
O2    C4    A    
C2    O7    A    
N1    H17   S    
O17   V3    S    
C29   C31   A    
N6    C62   S    
O5    C3    A    
C58   H23   S    
C49   C56   S    
C24   C26   A    
C21   N5    S    
C18   H4    S    
C7    C9    A    
C12   H2    S    
C44   N2    S    
C38   C48   A    
C39   C41   A    
C27   C33   A    
C40   C42   A    
C59   H30   S    
C28   C34   A    
C32   C46   A    
C6    C8    A    
C42   C44   A    
C27   C29   A    
C43   C45   A    
C60   H36   S    
C44   C46   A    
C37   C47   A    
C36   H10   S    
O20   V4    S    
N2    C58   S    
C26   C28   A    
C59   H31   S    
C2    C23   S    
C62   H44   S    
C17   C19   S    
C6    C16   A    
C11   C13   A    
O19   V3    S    
C23   C25   A    
O13   V3    S    
C53   O18   A    
C30   C32   A    
O6    V2    S    
C10   H14   S    
C33   H7    S    
N1    C57   S    
C34   C36   A    
C36   C38   A    
N4    C60   S    
C58   H24   S    
C28   C30   A    
C3    C8    S    
C41   C43   A    
C12   C14   A    
C21   C23   A    
O13   C53   A    
C47   C49   A    
C19   H5    S    
C49   C51   A    
C18   C20   S    
O4    V2    S    
C52   H16   S    
C61   H39   S    
C37   C39   A    
C34   H8    S    
C29   C39   A    
C6    C20   S    
C46   H26   S    
C57   H18   S    
C42   C52   A    
O6    C4    A    
C59   H32   S    
C48   H12   S    
C43   N1    S    
C5    C19   S    
O1    V2    S    
O19   V4    S    
O2    V1    S    
C25   C27   A    
C60   H34   S    
C41   C51   A    
O4    C2    A    
C57   H19   S    
C22   N6    S    
C8    C10   A    
C9    C11   A    
C62   H42   S    
C17   H3    S    
N6    H41   S    
O3    C1    A    
O3    V1    S    
N5    C61   S    
N3    H29   S    
O12   C56   A    
C20   N4    S    
C50   C55   S    
C26   H46   S    
C18   H28   S    
C21   C31   A    
C14   C53   S    
C20   H6    S    
C13   C54   S    
C35   H9    S    
O16   C56   A    
C22   C24   A    
C51   H15   S    
N4    H33   S    
C30   C40   A    
O12   V3    S    
C54   O17   A    
O15   V3    S    
C58   H22   S    
C19   N3    S    
C47   H11   S    
C14   C16   A    
O7    V1    S    
C61   H40   S    
C1    O8    A    
O14   V4    S    
O8    V2    S    
C16   C18   S    
O20   V3    S    
N5    H37   S    
C9    H13   S    
C22   C32   A    
C4    C7    S    
O5    V1    S    
C5    C7    A    
O14   C54   A    
C38   C40   A    
C25   H45   S    
C10   C12   A    
C11   H1    S    
C60   H35   S    
C57   H20   S    
O11   C55   A    
C15   C17   S    
O9    V2    S    
N2    H21   S    
C62   H43   S    
C50   C52   A    
C17   H27   S    
O10   V1    S    
O18   V4    S    
O16   V4    S    
C33   C35   A    
C61   H38   S    
N3    C59   S    
