data_mof_unit_51746.cif
_audit_creation_date              2013-03-05T15:50:15-0500
_audit_creation_method            fapswitch 2.2
_symmetry_space_group_name_H-M    P1
_symmetry_Int_Tables_number       1
_space_group_crystal_system       triclinic
_cell_length_a                    18.427559
_cell_length_b                    25.793077
_cell_length_c                    18.202824
_cell_angle_alpha                 89.394864
_cell_angle_beta                  90.134379
_cell_angle_gamma                 89.851854
_cell_volume                      8651.32919705

loop_
_atom_site_label
_atom_site_type_symbol
_atom_site_description
_atom_site_fract_x
_atom_site_fract_y
_atom_site_fract_z
_atom_type_partial_charge
Zn1   Zn    Zn3+2 0.249990 0.293780 0.913250 1.011501
Zn2   Zn    Zn3+2 0.249990 0.706220 0.086750 0.972060
Zn3   Zn    Zn3+2 0.249990 0.706220 0.913250 0.998666
Zn4   Zn    Zn3+2 0.249990 0.293780 0.086750 0.986382
Zn5   Zn    Zn3+2 0.749990 0.793780 0.413250 0.994961
Zn6   Zn    Zn3+2 0.749990 0.206220 0.586750 1.006813
Zn7   Zn    Zn3+2 0.749990 0.206220 0.413250 0.989056
Zn8   Zn    Zn3+2 0.749990 0.793780 0.586750 0.989621
Zn9   Zn    Zn3+2 0.336760 0.206240 0.000000 1.009867
Zn10  Zn    Zn3+2 0.336760 0.793760 0.000000 0.982200
Zn11  Zn    Zn3+2 0.836760 0.706240 0.500000 0.970112
Zn12  Zn    Zn3+2 0.836760 0.293760 0.500000 1.024477
Zn13  Zn    Zn3+2 0.163250 0.206230 0.000000 0.990689
Zn14  Zn    Zn3+2 0.163250 0.793770 0.000000 1.014452
Zn15  Zn    Zn3+2 0.663250 0.706230 0.500000 1.010500
Zn16  Zn    Zn3+2 0.663250 0.293770 0.500000 0.988777
O1    O     O_3   0.249990 0.250010 0.000000 -0.488533
O2    O     O_3   0.249990 0.749990 0.000000 -0.488942
O3    O     O_3   0.749990 0.750010 0.500000 -0.491125
O4    O     O_3   0.749990 0.249990 0.500000 -0.488740
O5    O     O_R   0.335430 0.280650 0.146160 -0.614035
O6    O     O_R   0.335430 0.719350 0.853840 -0.609394
O7    O     O_R   0.335430 0.719350 0.146160 -0.615766
O8    O     O_R   0.335430 0.280650 0.853840 -0.613042
O9    O     O_R   0.835430 0.780650 0.646160 -0.622588
O10   O     O_R   0.835430 0.219350 0.353840 -0.608846
O11   O     O_R   0.835430 0.219350 0.646160 -0.610491
O12   O     O_R   0.835430 0.780650 0.353840 -0.616542
O13   O     O_R   0.164550 0.280640 0.853840 -0.648677
O14   O     O_R   0.164550 0.719360 0.146160 -0.640734
O15   O     O_R   0.164550 0.719360 0.853840 -0.618578
O16   O     O_R   0.164550 0.280640 0.146160 -0.642737
O17   O     O_R   0.664550 0.780640 0.353840 -0.645511
O18   O     O_R   0.664550 0.219360 0.646160 -0.651191
O19   O     O_R   0.664550 0.219360 0.353840 -0.637644
O20   O     O_R   0.664550 0.780640 0.646160 -0.663807
O21   O     O_R   0.396160 0.219380 0.914560 -0.627585
O22   O     O_R   0.396160 0.780620 0.085440 -0.637959
O23   O     O_R   0.396160 0.780620 0.914560 -0.651250
O24   O     O_R   0.396160 0.219380 0.085440 -0.641616
O25   O     O_R   0.896160 0.719380 0.414560 -0.650284
O26   O     O_R   0.896160 0.280620 0.585440 -0.614441
O27   O     O_R   0.896160 0.280620 0.414560 -0.646174
O28   O     O_R   0.896160 0.719380 0.585440 -0.641039
O29   O     O_R   0.103840 0.219370 0.085450 -0.623848
O30   O     O_R   0.103840 0.780630 0.914550 -0.656121
O31   O     O_R   0.103840 0.780630 0.085450 -0.626117
O32   O     O_R   0.103840 0.219370 0.914550 -0.636655
O33   O     O_R   0.603840 0.719370 0.585450 -0.600908
O34   O     O_R   0.603840 0.280630 0.414550 -0.632547
O35   O     O_R   0.603840 0.280630 0.585450 -0.639142
O36   O     O_R   0.603840 0.719370 0.414550 -0.625045
O37   O     O_R   0.310730 0.133160 0.000000 -0.628863
O38   O     O_R   0.310730 0.866840 0.000000 -0.660113
O39   O     O_R   0.810730 0.633160 0.500000 -0.656439
O40   O     O_R   0.810730 0.366840 0.500000 -0.609629
O41   O     O_R   0.249970 0.366860 0.060720 -0.636003
O42   O     O_R   0.249970 0.633140 0.939280 -0.638368
O43   O     O_R   0.249970 0.633140 0.060720 -0.659697
O44   O     O_R   0.249970 0.366860 0.939280 -0.625502
O45   O     O_R   0.749970 0.866860 0.560720 -0.633429
O46   O     O_R   0.749970 0.133140 0.439280 -0.633319
O47   O     O_R   0.749970 0.133140 0.560720 -0.632412
O48   O     O_R   0.749970 0.866860 0.439280 -0.626708
O49   O     O_R   0.189290 0.133150 0.000000 -0.649760
O50   O     O_R   0.189290 0.866850 0.000000 -0.601264
O51   O     O_R   0.689290 0.633150 0.500000 -0.616678
O52   O     O_R   0.689290 0.366850 0.500000 -0.646236
C1    C     C_R   0.390341 0.250637 0.139178 0.836090
C2    C     C_R   0.390422 0.748206 0.860352 0.812091
C3    C     C_R   0.388289 0.750840 0.141463 0.834679
C4    C     C_R   0.393458 0.254318 0.863512 0.885522
C5    C     C_R   0.889482 0.749417 0.639989 0.831025
C6    C     C_R   0.890066 0.249518 0.360556 0.831304
C7    C     C_R   0.891253 0.247347 0.639003 0.874615
C8    C     C_R   0.893906 0.754402 0.364007 0.840441
C9    C     C_R   0.110781 0.250089 0.859311 0.794166
C10   C     C_R   0.106981 0.746566 0.137765 0.832670
C11   C     C_R   0.110523 0.750992 0.859516 0.821483
C12   C     C_R   0.110700 0.249522 0.140414 0.774193
C13   C     C_R   0.610713 0.750050 0.359531 0.780611
C14   C     C_R   0.607668 0.246882 0.638512 0.793937
C15   C     C_R   0.610399 0.250256 0.359954 0.772746
C16   C     C_R   0.610703 0.749927 0.640448 0.830481
C17   C     C_R   0.250123 0.109499 0.996739 0.794600
C18   C     C_R   0.250338 0.890582 0.997383 0.789590
C19   C     C_R   0.750131 0.609414 0.501136 0.761923
C20   C     C_R   0.750105 0.390607 0.500348 0.849403
C21   C     C_R   0.248974 0.391436 0.999666 0.784349
C22   C     C_R   0.249152 0.608579 0.000184 0.734776
C23   C     C_R   0.748954 0.891431 0.499673 0.796864
C24   C     C_R   0.749061 0.108569 0.500199 0.780301
C25   C     C_3   0.187655 0.469740 0.050725 -0.396945
C26   C     C_3   0.234887 0.530530 0.921056 -0.362999
C27   C     C_3   0.187206 0.529692 0.050444 -0.397153
C28   C     C_3   0.233556 0.471037 0.920923 -0.378715
C29   C     C_3   0.686563 0.969723 0.549472 -0.382482
C30   C     C_3   0.736544 0.030488 0.420845 -0.367689
C31   C     C_3   0.686149 0.029690 0.549204 -0.394605
C32   C     C_3   0.735041 0.971009 0.420675 -0.373425
H1    H     H_    0.196611 0.455306 0.107874 0.193443
H2    H     H_    0.278498 0.544353 0.883449 0.210053
H3    H     H_    0.194816 0.543651 0.107587 0.184757
H4    H     H_    0.275327 0.457028 0.882093 0.220469
H5    H     H_    0.694338 0.955264 0.606781 0.195474
H6    H     H_    0.781028 0.044248 0.384261 0.205006
H7    H     H_    0.692630 0.043655 0.606488 0.195227
H8    H     H_    0.777379 0.956875 0.382524 0.215227
H9    H     H_    0.133792 0.455228 0.032451 0.150651
H10   H     H_    0.182338 0.545709 0.899344 0.172460
H11   H     H_    0.133546 0.544193 0.030824 0.149271
H12   H     H_    0.179891 0.457451 0.900669 0.172551
H13   H     H_    0.633085 0.955239 0.530035 0.182527
H14   H     H_    0.684512 0.045713 0.397953 0.181104
H15   H     H_    0.632898 0.044205 0.528477 0.165863
H16   H     H_    0.681662 0.957532 0.399488 0.187490
H17   H     H_    0.334390 0.454274 0.082628 0.193371
H18   H     H_    0.366916 0.544628 0.992737 0.167281
H19   H     H_    0.332639 0.542851 0.084907 0.185172
H20   H     H_    0.366447 0.455953 0.989651 0.197529
H21   H     H_    0.832555 0.954296 0.584558 0.194919
H22   H     H_    0.866968 0.044450 0.495251 0.193876
H23   H     H_    0.830885 0.042864 0.586716 0.205971
H24   H     H_    0.866577 0.955963 0.492306 0.205658
C33   C     C_3   0.322441 0.469658 0.026519 -0.366382
C34   C     C_3   0.322197 0.529532 0.027894 -0.404414
C35   C     C_3   0.821791 0.969650 0.528185 -0.378018
C36   C     C_3   0.821547 0.029498 0.529529 -0.374611
C37   C     C_3   0.248161 0.449151 0.999334 0.168086
C38   C     C_3   0.248332 0.550888 0.000047 0.189695
C39   C     C_3   0.748110 0.949136 0.499366 0.155613
C40   C     C_3   0.748294 0.050870 0.500097 0.160043
C41   C     C_R   0.151898 0.244347 0.704549 -0.123914
C42   C     C_R   0.109021 0.673325 0.268354 -0.125019
C43   C     C_R   0.031881 0.657594 0.828465 -0.148311
C44   C     C_R   0.999184 0.326497 0.140272 -0.136228
C45   C     C_R   0.609044 0.673946 0.246090 -0.147218
C46   C     C_R   0.618881 0.181975 0.778466 -0.117623
C47   C     C_R   0.496605 0.175477 0.362559 -0.153235
C48   C     C_R   0.650007 0.737838 0.795225 -0.089574
C49   C     C_R   0.171228 0.244190 0.630652 -0.123394
C50   C     C_R   0.127322 0.653390 0.337425 -0.131077
C51   C     C_R   0.994552 0.612011 0.813735 -0.138170
C52   C     C_R   0.943522 0.363016 0.137224 -0.117806
C53   C     C_R   0.608981 0.636823 0.191047 -0.117343
C54   C     C_R   0.637967 0.166829 0.849679 -0.156704
C55   C     C_R   0.440106 0.139853 0.366214 -0.118784
C56   C     C_R   0.668775 0.733006 0.869167 -0.133383
C57   C     C_R   0.554722 0.637286 0.137930 -0.136227
C58   C     C_R   0.602547 0.188206 0.909295 -0.126338
C59   C     C_R   0.385605 0.140980 0.313478 -0.124769
C60   C     C_R   0.615138 0.732107 0.922572 -0.133395
C61   C     C_R   0.117872 0.244621 0.576782 -0.116442
C62   C     C_R   0.095932 0.673982 0.399926 -0.122789
C63   C     C_R   0.941024 0.611643 0.760085 -0.126542
C64   C     C_R   0.888440 0.361624 0.189038 -0.112928
C65   C     C_R   0.499970 0.674616 0.139953 -0.164560
C66   C     C_R   0.544009 0.221421 0.897609 -0.100388
C67   C     C_R   0.387896 0.177156 0.256145 -0.148414
C68   C     C_R   0.542374 0.735495 0.902277 -0.142729
C69   C     C_R   0.044944 0.244140 0.596573 -0.128814
C70   C     C_R   0.041831 0.711467 0.393002 -0.092448
C71   C     C_R   0.924914 0.656786 0.720714 -0.153678
C72   C     C_R   0.889491 0.324446 0.245119 -0.136960
C73   C     C_R   0.498407 0.712574 0.195828 0.071486
C74   C     C_R   0.520644 0.234427 0.825565 0.072603
C75   C     C_R   0.444826 0.214011 0.251212 0.068638
C76   C     C_R   0.521793 0.741234 0.827549 0.069084
C77   C     C_R   0.023630 0.244580 0.671316 0.074073
C78   C     C_R   0.018723 0.729369 0.322930 0.073182
C79   C     C_R   0.963367 0.703525 0.733267 0.066241
C80   C     C_R   0.945672 0.286786 0.249600 0.067998
C81   C     C_R   0.077988 0.246341 0.726242 0.070686
C82   C     C_R   0.059320 0.715160 0.260534 0.083756
C83   C     C_R   0.017449 0.703968 0.788177 0.080513
C84   C     C_R   0.000670 0.287562 0.195824 0.088652
C85   C     C_R   0.554091 0.712400 0.249087 0.075435
C86   C     C_R   0.564020 0.219796 0.765275 0.077754
C87   C     C_R   0.499401 0.213318 0.305591 0.083389
C88   C     C_R   0.576471 0.743127 0.773080 0.090353
C89   C     C_R   0.442310 0.750164 0.199529 -0.134769
C90   C     C_R   0.455694 0.262273 0.812924 -0.176698
C91   C     C_R   0.447355 0.251631 0.193902 -0.132616
C92   C     C_R   0.448036 0.740804 0.805710 -0.158420
C93   C     C_R   0.950022 0.239233 0.692681 -0.167213
C94   C     C_R   0.957050 0.761618 0.314142 -0.171631
C95   C     C_R   0.947812 0.749734 0.693286 -0.141465
C96   C     C_R   0.946900 0.248241 0.305739 -0.130481
C97   C     C_R   0.440553 0.787662 0.256440 0.033178
C98   C     C_R   0.444610 0.287226 0.744112 0.020549
C99   C     C_R   0.502497 0.290281 0.191128 0.028573
C100  C     C_R   0.429864 0.735209 0.729959 0.018536
C101  C     C_R   0.932785 0.229792 0.767879 0.022918
C102  C     C_R   0.948868 0.790896 0.248554 0.025688
C103  C     C_R   0.984322 0.796648 0.708054 0.025818
C104  C     C_R   0.001042 0.208698 0.307759 0.031461
C105  C     C_R   0.982982 0.245817 0.820845 0.010344
C106  C     C_R   0.985781 0.774677 0.185168 0.008920
C107  C     C_R   0.030441 0.798481 0.770156 0.007271
C108  C     C_R   0.054444 0.208909 0.251227 0.021079
C109  C     C_R   0.501115 0.790338 0.304519 0.029861
C110  C     C_R   0.483968 0.269810 0.683032 0.008691
C111  C     C_R   0.555019 0.290427 0.248568 0.022009
C112  C     C_R   0.482157 0.749663 0.677632 -0.001741
C113  C     C_R   0.056673 0.249540 0.801028 -0.138929
C114  C     C_R   0.047541 0.742172 0.192770 -0.183672
C115  C     C_R   0.052346 0.751200 0.804936 -0.136123
C116  C     C_R   0.054815 0.248927 0.197240 -0.108942
C117  C     C_R   0.554923 0.751264 0.302902 -0.112895
C118  C     C_R   0.549384 0.242145 0.694496 -0.178294
C119  C     C_R   0.554417 0.251053 0.303327 -0.106781
C120  C     C_R   0.555963 0.749453 0.698194 -0.116703
C121  C     C_R   0.381232 0.822677 0.268713 0.101766
C122  C     C_R   0.396854 0.329828 0.733314 0.190871
C123  C     C_R   0.508070 0.329411 0.134353 0.091179
C124  C     C_R   0.361834 0.717060 0.702896 0.199606
C125  C     C_R   0.867636 0.206290 0.793790 0.191186
C126  C     C_R   0.906866 0.836927 0.243684 0.197344
C127  C     C_R   0.975442 0.842692 0.664348 0.128431
C128  C     C_R   0.004831 0.168358 0.363068 0.083877
C129  C     C_R   0.388544 0.862906 0.319096 -0.160898
C130  C     C_R   0.372663 0.342680 0.662599 -0.210324
C131  C     C_R   0.560292 0.368356 0.139692 -0.155119
C132  C     C_R   0.339676 0.730466 0.631791 -0.199061
C133  C     C_R   0.843930 0.215851 0.865279 -0.203529
C134  C     C_R   0.885624 0.856398 0.174989 -0.196967
C135  C     C_R   0.994561 0.890552 0.693201 -0.180534
C136  C     C_R   0.057209 0.129445 0.358125 -0.154406
C137  C     C_R   0.887781 0.243005 0.913707 0.196835
C138  C     C_R   0.908873 0.832152 0.111236 0.185002
C139  C     C_R   0.029239 0.893221 0.760605 0.194168
C140  C     C_R   0.107154 0.129246 0.301729 0.189681
C141  C     C_R   0.451412 0.868353 0.360152 0.202960
C142  C     C_R   0.399500 0.316065 0.602287 0.173461
C143  C     C_R   0.608846 0.369284 0.197697 0.191734
C144  C     C_R   0.387370 0.755058 0.583986 0.206355
C145  C     C_R   0.958244 0.255911 0.892918 -0.169193
C146  C     C_R   0.959928 0.792275 0.116042 -0.170057
C147  C     C_R   0.052373 0.847877 0.795733 -0.116442
C148  C     C_R   0.106991 0.168795 0.249443 -0.183043
C149  C     C_R   0.506178 0.831632 0.354843 -0.183824
C150  C     C_R   0.456626 0.281102 0.611983 -0.159679
C151  C     C_R   0.607611 0.330282 0.250664 -0.171335
C152  C     C_R   0.459184 0.762610 0.605387 -0.167772
H25   H     H_    0.195938 0.241877 0.743544 0.183486
H26   H     H_    0.131957 0.653693 0.221788 0.161087
H27   H     H_    0.070382 0.656007 0.873269 0.128992
H28   H     H_    0.040210 0.328697 0.097928 0.112478
H29   H     H_    0.652910 0.672434 0.285705 0.116476
H30   H     H_    0.645174 0.161068 0.735070 0.186919
H31   H     H_    0.537333 0.173441 0.405429 0.112616
H32   H     H_    0.694026 0.736303 0.756319 0.162888
H33   H     H_    0.227920 0.243155 0.615178 0.161311
H34   H     H_    0.166469 0.622179 0.342419 0.150994
H35   H     H_    0.006322 0.577075 0.845087 0.131306
H36   H     H_    0.942643 0.392087 0.093896 0.137364
H37   H     H_    0.651441 0.607766 0.189396 0.150755
H38   H     H_    0.680583 0.138480 0.858585 0.167263
H39   H     H_    0.438297 0.111547 0.410509 0.152822
H40   H     H_    0.725226 0.729185 0.884994 0.149532
H41   H     H_    0.554946 0.608552 0.094999 0.143392
H42   H     H_    0.619028 0.177871 0.964672 0.159325
H43   H     H_    0.341178 0.113842 0.317284 0.162463
H44   H     H_    0.629839 0.727393 0.979888 0.149280
H45   H     H_    0.133000 0.243841 0.519359 0.160048
H46   H     H_    0.112149 0.659972 0.453791 0.154482
H47   H     H_    0.911196 0.576387 0.749453 0.141296
H48   H     H_    0.844517 0.389356 0.185467 0.162250
H49   H     H_    0.458945 0.673142 0.097409 0.114501
H50   H     H_    0.518083 0.237559 0.945478 0.171962
H51   H     H_    0.344105 0.176189 0.216472 0.112820
H52   H     H_    0.502880 0.731182 0.945674 0.142299
H53   H     H_    0.006277 0.241302 0.552399 0.172037
H54   H     H_    0.019551 0.727142 0.443033 0.176783
H55   H     H_    0.881497 0.654367 0.681072 0.130367
H56   H     H_    0.845285 0.325249 0.284123 0.112031
H57   H     H_    0.794024 0.198728 0.885080 0.175051
H58   H     H_    0.853016 0.891284 0.171114 0.183955
H59   H     H_    0.983431 0.925892 0.662533 0.177645
H60   H     H_    0.059439 0.098600 0.398916 0.189663
H61   H     H_    0.343782 0.889172 0.328747 0.182063
H62   H     H_    0.335259 0.374636 0.654277 0.188094
H63   H     H_    0.563625 0.398429 0.097886 0.182639
H64   H     H_    0.287707 0.717414 0.611271 0.183412
H65   H     H_    0.993173 0.273587 0.933392 0.150741
H66   H     H_    0.978276 0.774941 0.065520 0.171414
H67   H     H_    0.084633 0.852978 0.844376 0.209024
H68   H     H_    0.148072 0.167259 0.207152 0.141633
H69   H     H_    0.552515 0.835952 0.390804 0.146756
H70   H     H_    0.478581 0.262449 0.563903 0.172244
H71   H     H_    0.647808 0.332177 0.293950 0.142645
H72   H     H_    0.496435 0.778511 0.565227 0.153263
H73   H     H_    0.214419 0.047678 0.738796 0.175566
H74   H     H_    0.236079 0.955731 0.736769 0.187614
H75   H     H_    0.638957 0.543632 0.734775 0.185712
H76   H     H_    0.639366 0.450613 0.733662 0.155084
C153  C     C_R   0.296061 0.053044 0.121649 -0.130826
C154  C     C_R   0.293316 0.945664 0.122841 -0.129227
C155  C     C_R   0.804190 0.554980 0.379905 -0.142400
C156  C     C_R   0.807533 0.447572 0.380609 -0.125461
C157  C     C_R   0.320919 0.025610 0.182920 -0.098011
C158  C     C_R   0.318411 0.972019 0.184002 -0.091808
C159  C     C_R   0.832706 0.528820 0.320140 -0.130923
C160  C     C_R   0.835053 0.475191 0.320851 -0.094549
C161  C     C_R   0.272334 0.972634 0.057746 0.074563
C162  C     C_R   0.272819 0.026872 0.057338 0.079788
C163  C     C_R   0.779756 0.473467 0.443301 0.055942
C164  C     C_R   0.778876 0.527722 0.443270 0.089612
C165  C     C_R   0.253617 0.946280 0.992934 -0.133570
C166  C     C_R   0.251115 0.053839 0.992997 -0.130358
C167  C     C_R   0.751789 0.446178 0.504718 -0.134129
C168  C     C_R   0.751515 0.553795 0.505236 -0.133726
C169  C     C_R   0.246127 0.972803 0.924113 -0.008153
C170  C     C_R   0.239092 0.027926 0.924851 0.003444
C171  C     C_R   0.726181 0.471750 0.568868 0.055974
C172  C     C_R   0.725933 0.526985 0.569216 -0.041567
C173  C     C_R   0.246419 0.946722 0.854430 0.015318
C174  C     C_R   0.225132 0.054731 0.856337 0.026803
C175  C     C_R   0.699901 0.444414 0.632876 0.026072
C176  C     C_R   0.699195 0.552938 0.633589 0.019603
C177  C     C_R   0.235372 0.974858 0.789539 -0.124664
C178  C     C_R   0.224248 0.027626 0.790563 -0.139645
C179  C     C_R   0.662620 0.471159 0.687085 -0.248269
C180  C     C_R   0.662403 0.524567 0.687607 -0.102725
H77   H     H_    0.296807 0.094840 0.125333 0.129033
H78   H     H_    0.293165 0.903946 0.126473 0.155943
H79   H     H_    0.802393 0.596773 0.375252 0.131486
H80   H     H_    0.808414 0.405817 0.376423 0.124706
H81   H     H_    0.341035 0.046003 0.230297 0.151189
H82   H     H_    0.336403 0.950844 0.232200 0.150928
H83   H     H_    0.852613 0.550280 0.272922 0.135053
H84   H     H_    0.857216 0.454926 0.274348 0.139483
I1    I     I_    0.272200 0.815424 0.230410 -0.317797
I2    I     I_    0.385428 0.388572 0.813392 -0.369557
I3    I     I_    0.448086 0.337171 0.033942 -0.395198
I4    I     I_    0.314691 0.645233 0.738078 -0.290591
I5    I     I_    0.828974 0.134284 0.751873 -0.334009
I6    I     I_    0.899212 0.889117 0.332793 -0.334122
I7    I     I_    0.949553 0.845763 0.549848 -0.352552
I8    I     I_    0.940824 0.157115 0.459958 -0.408035
C181  C     C_2   0.266397 0.891653 0.843658 0.342212
H85   H     H_    0.315267 0.875921 0.868339 0.095142
O53   O     O_2   0.230188 0.864057 0.803732 -0.588530
C182  C     C_2   0.208204 0.110482 0.848312 0.352250
H86   H     H_    0.158591 0.125886 0.871314 0.116475
O54   O     O_2   0.248051 0.139019 0.812900 -0.597640
C183  C     C_2   0.715064 0.389447 0.651706 0.387190
H87   H     H_    0.671482 0.364597 0.671032 0.069197
O55   O     O_2   0.777106 0.372733 0.651529 -0.574352
C184  C     C_2   0.714331 0.607842 0.652092 0.399620
H88   H     H_    0.765337 0.625611 0.636953 0.019575
O56   O     O_2   0.670739 0.633348 0.687055 -0.597197
I9    I     I_    0.852340 0.256257 0.022058 -0.353988
I10   I     I_    0.874375 0.859738 0.007302 -0.324019
I11   I     I_    0.045879 0.966034 0.809284 -0.318296
I12   I     I_    0.182417 0.068016 0.296863 -0.404204
I13   I     I_    0.461090 0.929507 0.435690 -0.424617
I14   I     I_    0.360571 0.333216 0.495678 -0.343425
I15   I     I_    0.684407 0.430206 0.204843 -0.458889
I16   I     I_    0.354070 0.771413 0.475376 -0.311116

loop_
_geom_bond_atom_site_label_1
_geom_bond_atom_site_label_2
_geom_bond_distance
_ccdc_geom_bond_type
C170  C174  1.441863 A    
C13   C117  1.454185 S    
C106  C114  1.417462 A    
C83   C115  1.414825 A    
C157  C158  1.383090 A    
O26   C7    1.295557 A    
C162  C166  1.412296 A    
C78   C82   1.412566 A    
O30   C11   1.272537 A    
C30   H14   1.113515 S    
C23   C39   1.488379 S    
C21   C37   1.488627 S    
C154  C158  1.389446 A    
Zn12  O26   1.926334 S    
C122  C130  1.397519 A    
C104  C128  1.441609 A    
C54   C58   1.386278 A    
C105  C145  1.416391 A    
C32   H16   1.113540 S    
C42   C82   1.419332 A    
C29   H5    1.112941 S    
C108  C116  1.417675 A    
C99   C111  1.423150 A    
C56   H40   1.082722 S    
O11   C7    1.264560 A    
C57   H41   1.082703 S    
O34   C15   1.277712 A    
C140  I12   2.101849 S    
C151  H71   1.081756 S    
C175  C179  1.391624 A    
C68   H52   1.080417 S    
C53   H37   1.082771 S    
C179  C180  1.377706 A    
C29   C39   1.553099 S    
Zn1   O44   1.948444 S    
C25   H1    1.112962 S    
C165  C169  1.427242 A    
H20   C33   1.113108 S    
C76   C88   1.415829 A    
C142  I14   2.109477 S    
Zn5   O48   1.948444 S    
C61   C69   1.392207 A    
Zn6   O47   1.948446 S    
C124  C132  1.396015 A    
Zn7   O46   1.938740 S    
C9    C113  1.454407 S    
O16   C12   1.282679 A    
C159  C160  1.383747 A    
Zn16  O4    1.954662 S    
H73   C178  1.084743 S    
C112  C120  1.409761 A    
Zn1   O13   1.940558 S    
C100  C112  1.404811 A    
C26   C28   1.534774 S    
C143  C151  1.386296 A    
Zn4   O16   1.940684 S    
C69   H53   1.076310 S    
H24   C35   1.112745 S    
C28   H4    1.108670 S    
C137  C145  1.393519 A    
C158  H82   1.079593 S    
Zn6   O4    1.931434 S    
C166  C170  1.432311 A    
C147  H67   1.074764 S    
C130  C142  1.392039 A    
C148  H68   1.081900 S    
C171  C175  1.440903 A    
C17   C166  1.438046 S    
C30   H6    1.113766 S    
Zn10  O22   1.926334 S    
C84   C116  1.408353 A    
O25   C8    1.283185 A    
Zn13  O29   1.936486 S    
C132  H64   1.082862 S    
Zn10  O2    1.959737 S    
C11   C115  1.459894 S    
C48   C88   1.418699 A    
C67   C75   1.419859 A    
O29   C12   1.279916 A    
C68   C76   1.417428 A    
C184  H88   1.081774 S    
C35   C39   1.550782 S    
C47   C87   1.417651 A    
C149  H69   1.081398 S    
H19   C34   1.113093 S    
C33   C37   1.550614 S    
C26   H2    1.113774 S    
C127  I7    2.137627 S    
C177  C178  1.376200 A    
C82   C114  1.426122 A    
O37   C17   1.275649 A    
C90   C98   1.416334 A    
O48   C23   1.274858 A    
C41   C81   1.419921 A    
C42   H26   1.078491 S    
C28   C37   1.551996 S    
C135  C139  1.384495 A    
C44   C84   1.417745 A    
C167  C171  1.427774 A    
C73   C85   1.409985 A    
C3    C89   1.450193 S    
C74   C90   1.411408 A    
Zn16  O35   1.931720 S    
C103  C127  1.431283 A    
Zn15  O33   1.936486 S    
C101  C125  1.425341 A    
C44   H28   1.082082 S    
C26   C38   1.555475 S    
Zn7   O10   1.940642 S    
O33   C16   1.286859 A    
C24   C40   1.488367 S    
C134  H58   1.082307 S    
O40   C20   1.272981 A    
C110  C150  1.414055 A    
C86   C118  1.430665 A    
C157  H81   1.080229 S    
C144  I16   2.106748 S    
C88   C120  1.421304 A    
Zn5   O17   1.940558 S    
C27   C38   1.551347 S    
C69   C77   1.417145 A    
C43   C51   1.391891 A    
Zn15  O51   1.943874 S    
C25   C27   1.546309 S    
C51   H35   1.082725 S    
C111  C119  1.415550 A    
C121  C129  1.398646 A    
C109  C117  1.412579 A    
C27   H3    1.112983 S    
C103  C107  1.413934 A    
C181  O53   1.221133 D    
C32   H8    1.109171 S    
Zn8   O3    1.950833 S    
C43   H27   1.080095 S    
C65   C73   1.419459 A    
O38   C18   1.269393 A    
C98   C110  1.405915 A    
C125  I5    2.138536 S    
C63   C71   1.391791 A    
C134  C138  1.391996 A    
C174  C182  1.476306 S    
O5    C1    1.279819 A    
C59   C67   1.393361 A    
O32   C9    1.280434 A    
C52   C64   1.387481 A    
C55   C59   1.387707 A    
C51   C63   1.386540 A    
C64   H48   1.080169 S    
C65   H49   1.082011 S    
C122  I2    2.123984 S    
Zn11  O28   1.933098 S    
C50   C62   1.387546 A    
C97   C121  1.435560 A    
C142  C150  1.394076 A    
C156  C163  1.423878 A    
C2    C92   1.469982 S    
C12   C116  1.461334 S    
C1    C91   1.446565 S    
C161  C162  1.398976 A    
C54   H38   1.082399 S    
O8    C4    1.276149 A    
C153  H77   1.080957 S    
C141  C149  1.386487 A    
C129  C141  1.385405 A    
C94   C102  1.413461 A    
C56   C60   1.388039 A    
C46   H30   1.076561 S    
C107  C147  1.420444 A    
O50   C18   1.282856 A    
C169  C173  1.442047 A    
Zn1   O1    1.931435 S    
C50   H34   1.082539 S    
Zn13  O1    1.959431 S    
Zn2   O14   1.943250 S    
C129  H61   1.081898 S    
C176  C184  1.486043 S    
C70   H54   1.081716 S    
C49   C61   1.386938 A    
C102  C106  1.407609 A    
C135  H59   1.082739 S    
C46   C54   1.393950 A    
C161  C165  1.410361 A    
C126  C134  1.397308 A    
O9    C5    1.285312 A    
C55   H39   1.082616 S    
O36   C13   1.276577 A    
C72   C80   1.419423 A    
C154  C161  1.420023 A    
O13   C9    1.271007 A    
C182  H86   1.082793 S    
Zn1   O8    1.943206 S    
C30   C40   1.555480 S    
Zn2   O7    1.940513 S    
C153  C157  1.390586 A    
Zn3   O6    1.940642 S    
O18   C14   1.270989 A    
O31   C10   1.289948 A    
H17   C33   1.113099 S    
O6    C2    1.264966 A    
C80   C84   1.410697 A    
C41   H25   1.078225 S    
C14   C118  1.486652 S    
C18   C165  1.439480 S    
C75   C87   1.409398 A    
C160  H84   1.080005 S    
C105  C113  1.409124 A    
C48   H32   1.078984 S    
C130  H62   1.082311 S    
C145  H65   1.082303 S    
Zn14  O30   1.933351 S    
C71   H55   1.078516 S    
C136  H60   1.083146 S    
Zn15  O3    1.959431 S    
C52   H36   1.082563 S    
Zn11  O3    1.954968 S    
O41   C21   1.273664 A    
C31   C40   1.551335 S    
C176  C180  1.397333 A    
C45   C53   1.393187 A    
Zn16  O34   1.933351 S    
H21   C35   1.113193 S    
C31   H15   1.113039 S    
C150  H70   1.081979 S    
C125  C133  1.397823 A    
C34   C38   1.549215 S    
O15   C11   1.290591 A    
C128  C136  1.394419 A    
Zn8   O20   1.940684 S    
C96   C104  1.425066 A    
C106  C146  1.414320 A    
C99   C123  1.440931 A    
C89   C97   1.425054 A    
C133  H57   1.082134 S    
H76   C179  1.084752 S    
C92   C100  1.427073 A    
C74   C86   1.413149 A    
C71   C79   1.420261 A    
C6    C96   1.448806 S    
C59   H43   1.080367 S    
C60   H44   1.082823 S    
C171  C172  1.424773 A    
C67   H51   1.082176 S    
Zn8   O9    1.935098 S    
C25   C37   1.553255 S    
C112  C152  1.416875 A    
C62   C70   1.391565 A    
C124  I4    2.140803 S    
C131  H63   1.082849 S    
C174  C178  1.392889 A    
C163  C164  1.399447 A    
O7    C3    1.272325 A    
C107  C115  1.425113 A    
C183  H87   1.085726 S    
O19   C15   1.281202 A    
O44   C21   1.274807 A    
C26   H10   1.113635 S    
Zn9   O24   1.933098 S    
C133  C137  1.390412 A    
Zn6   O18   1.943250 S    
C123  C131  1.396834 A    
Zn10  O23   1.936235 S    
C141  I13   2.111058 S    
C61   H45   1.082802 S    
C10   C114  1.489461 S    
C42   C50   1.393688 A    
C70   C78   1.416133 A    
H74   C177  1.084555 S    
C78   C94   1.414405 A    
Zn15  O36   1.926587 S    
C184  O56   1.221331 D    
O42   C22   1.271181 A    
C173  C181  1.481559 S    
C58   H42   1.082539 S    
Zn4   O1    1.950833 S    
C30   C32   1.534504 S    
C33   C34   1.544797 S    
C128  I8    2.141622 S    
Zn9   O37   1.946236 S    
C139  I11   2.107894 S    
C35   C36   1.544109 S    
O12   C8    1.283122 A    
C136  C140  1.380380 A    
Zn11  O39   1.946236 S    
C66   C74   1.415990 A    
C19   C168  1.435888 S    
C20   C167  1.436797 S    
C155  H79   1.080807 S    
C58   C66   1.390351 A    
Zn2   O43   1.948446 S    
C72   H56   1.082130 S    
C45   H29   1.082331 S    
C16   C120  1.458547 S    
Zn5   O3    1.931435 S    
C31   H7    1.113049 S    
C41   C49   1.392345 A    
C66   H50   1.081367 S    
C172  C176  1.442734 A    
C49   H33   1.082973 S    
C132  C144  1.388100 A    
C159  H83   1.082671 S    
C44   C52   1.391421 A    
C169  C170  1.427552 A    
C156  H80   1.080578 S    
C163  C167  1.413805 A    
H22   C36   1.112490 S    
O28   C5    1.271863 A    
C4    C90   1.485784 S    
C22   C38   1.488167 S    
Zn3   O42   1.938740 S    
C173  C177  1.394043 A    
Zn7   O4    1.950834 S    
O21   C4    1.288353 A    
C126  I6    2.123480 S    
C81   C113  1.420911 A    
C127  C135  1.392455 A    
C57   C65   1.393663 A    
C53   C57   1.389187 A    
C156  C160  1.391400 A    
C138  I10   2.110273 S    
C60   C68   1.392269 A    
Zn2   O2    1.931434 S    
H75   C180  1.084056 S    
Zn14  O2    1.954662 S    
C104  C108  1.425492 A    
C48   C56   1.393129 A    
C108  C148  1.415949 A    
C32   C39   1.551989 S    
C102  C126  1.417493 A    
Zn13  O49   1.943874 S    
C181  H85   1.081611 S    
C28   H12   1.113322 S    
C47   C55   1.391658 A    
C137  I9    2.110073 S    
C80   C96   1.418272 A    
Zn12  O27   1.936235 S    
C155  C164  1.424556 A    
C111  C151  1.415355 A    
C87   C119  1.407582 A    
C154  H78   1.077389 S    
C109  C149  1.415272 A    
Zn3   O2    1.950834 S    
C139  C147  1.392410 A    
C85   C117  1.409048 A    
C152  H72   1.082257 S    
C75   C91   1.418117 A    
C29   H13   1.113075 S    
C76   C92   1.415316 A    
O46   C24   1.271569 A    
O47   C24   1.276824 A    
C155  C159  1.389700 A    
C146  H66   1.081369 S    
Zn8   O45   1.938737 S    
O27   C6    1.280281 A    
O39   C19   1.275127 A    
Zn12  O4    1.959737 S    
C7    C93   1.469998 S    
C110  C118  1.413184 A    
C36   C40   1.549054 S    
C29   C31   1.546684 S    
O24   C1    1.278684 A    
C97   C109  1.418908 A    
C79   C83   1.409961 A    
C168  C172  1.429690 A    
O43   C22   1.276922 A    
C43   C83   1.420614 A    
Zn4   O41   1.938737 S    
Zn3   O15   1.935139 S    
C143  I15   2.107055 S    
C183  O55   1.220829 D    
Zn5   O12   1.943206 S    
Zn6   O11   1.940513 S    
Zn9   O21   1.931470 S    
Zn14  O50   1.946279 S    
C121  I1    2.134517 S    
C98   C122  1.417789 A    
O35   C14   1.295076 A    
C123  I3    2.141091 S    
Zn12  O40   1.943832 S    
C131  C143  1.382809 A    
Zn16  O52   1.946279 S    
Zn9   O1    1.954968 S    
C182  O54   1.221256 D    
O52   C20   1.278681 A    
C138  C146  1.394050 A    
C175  C183  1.480834 S    
C46   C86   1.421320 A    
C153  C162  1.423149 A    
C8    C94   1.488281 S    
O22   C3    1.278954 A    
C77   C81   1.414758 A    
C95   C103  1.413994 A    
Zn7   O19   1.935139 S    
C47   H31   1.082205 S    
C93   C101  1.424516 A    
C62   H46   1.082507 S    
C91   C99   1.425942 A    
Zn13  O32   1.926587 S    
O49   C17   1.276660 A    
Zn14  O31   1.931720 S    
O51   C19   1.276048 A    
C79   C95   1.418223 A    
C73   C89   1.417639 A    
C144  C152  1.393377 A    
C77   C93   1.418600 A    
C27   H11   1.113028 S    
Zn4   O5    1.935098 S    
H23   C36   1.113160 S    
O20   C16   1.276042 A    
C101  C105  1.400790 A    
O10   C6    1.280445 A    
O23   C2    1.304306 A    
Zn11  O25   1.931470 S    
Zn10  O38   1.943832 S    
C15   C119  1.456573 S    
C5    C95   1.446351 S    
O14   C10   1.278402 A    
C164  C168  1.412688 A    
C45   C85   1.417173 A    
C64   C72   1.393269 A    
C25   H9    1.113068 S    
C140  C148  1.387758 A    
H18   C34   1.113151 S    
O17   C13   1.272905 A    
C100  C124  1.427724 A    
C63   H47   1.082748 S    
O45   C23   1.273498 A    
