data_mof_unit_17187.cif
_audit_creation_date              2012-12-10T18:18:20-0500
_audit_creation_method            fapswitch 2.2
_symmetry_space_group_name_H-M    P1
_symmetry_Int_Tables_number       1
_space_group_crystal_system       triclinic
_cell_length_a                    14.173076
_cell_length_b                    14.923969
_cell_length_c                    15.545736
_cell_angle_alpha                 87.881463
_cell_angle_beta                  68.298366
_cell_angle_gamma                 88.676382
_cell_volume                      3052.90401699

loop_
_atom_site_label
_atom_site_type_symbol
_atom_type_description
_atom_site_fract_x
_atom_site_fract_y
_atom_site_fract_z
_atom_type_partial_charge
C1    C     C_R   0.499338 0.672994 0.499648 0.889146
C2    C     C_R   0.500880 0.327002 0.499827 0.891287
C3    C     C_R   0.374260 0.455908 0.107169 -0.213644
C4    C     C_R   0.613272 0.429687 0.903686 -0.236618
C5    C     C_R   0.302234 0.463125 0.066342 -0.214700
C6    C     C_R   0.684771 0.420034 0.945026 -0.223380
C7    C     C_R   0.534099 0.182600 0.561206 -0.189651
C8    C     C_R   0.467759 0.817234 0.436552 -0.189551
C9    C     C_R   0.502507 0.231452 0.498506 -0.053363
C10   C     C_R   0.498218 0.768542 0.500121 -0.050845
C11   C     C_R   0.469279 0.189446 0.436294 -0.253941
C12   C     C_R   0.531379 0.810656 0.562254 -0.254944
C13   C     C_R   0.468926 0.096651 0.435510 0.121390
C14   C     C_R   0.532512 0.903386 0.562437 0.121313
C15   C     C_R   0.501310 0.046607 0.498657 0.056937
C16   C     C_R   0.500489 0.953365 0.499030 0.056851
C17   C     C_R   0.534065 0.089888 0.561758 0.110529
C18   C     C_R   0.467947 0.910025 0.435817 0.110110
C19   C     C_R   0.436844 0.053199 0.372967 -0.205863
C20   C     C_R   0.564886 0.946812 0.624789 -0.206056
C21   C     C_R   0.436607 0.960013 0.372960 -0.191144
C22   C     C_R   0.565579 0.039951 0.624509 -0.190496
C23   C     C_R   0.436507 0.500122 0.675757 0.892198
C24   C     C_R   0.563439 0.497746 0.324414 0.889247
C25   C     C_R   0.181345 0.438320 0.554225 0.028814
C26   C     C_R   0.818478 0.562030 0.446215 0.028626
C27   C     C_R   0.220088 0.563903 0.448699 0.039117
C28   C     C_R   0.780474 0.435116 0.549978 0.037307
C29   C     C_R   0.120745 0.563895 0.446168 -0.053814
C30   C     C_R   0.879592 0.435485 0.553030 -0.051531
C31   C     C_R   0.050538 0.499775 0.499881 0.087434
C32   C     C_R   0.949607 0.499950 0.499788 0.089500
C33   C     C_R   0.080585 0.436399 0.554732 -0.015890
C34   C     C_R   0.919409 0.563600 0.445291 -0.016976
C35   C     C_R   0.089588 0.626926 0.391689 -0.159395
C36   C     C_R   0.910615 0.372631 0.607757 -0.165651
C37   C     C_R   0.991186 0.626706 0.391195 -0.194697
C38   C     C_R   0.008803 0.373259 0.608790 -0.193095
C39   C     C_R   0.397604 0.494275 0.777003 -0.083390
C40   C     C_R   0.601141 0.482136 0.224981 -0.080788
C41   C     C_R   0.260536 0.486196 0.927118 0.004294
C42   C     C_R   0.730670 0.433925 0.081763 0.002568
C43   C     C_R   0.293627 0.494479 0.830538 -0.223837
C44   C     C_R   0.701711 0.456780 0.174694 -0.222610
C45   C     C_R   0.467818 0.485420 0.820019 -0.230091
C46   C     C_R   0.529968 0.482844 0.182958 -0.253874
C47   C     C_R   0.437563 0.467763 0.914822 0.067484
C48   C     C_R   0.554757 0.456450 0.092472 0.067430
C49   C     C_R   0.332395 0.472037 0.970016 0.110376
C50   C     C_R   0.657719 0.436244 0.039225 0.119071
C51   C     C_R   0.510541 0.450996 0.956024 0.081474
C52   C     C_R   0.479462 0.454625 0.052915 0.081168
H1    H     H_    0.222804 0.463655 0.111135 0.163327
H2    H     H_    0.762123 0.403131 0.901721 0.161768
H3    H     H_    0.141188 0.676994 0.348320 0.162107
H4    H     H_    0.858941 0.322610 0.651142 0.156525
H5    H     H_    0.971911 0.676794 0.348082 0.154345
H6    H     H_    0.027948 0.323413 0.652206 0.153952
H7    H     H_    0.454432 0.506100 0.221658 0.217676
H8    H     H_    0.546932 0.495158 0.778724 0.202117
H9    H     H_    0.756854 0.453370 0.207949 0.171390
H10   H     H_    0.238596 0.503039 0.797477 0.171029
H11   H     H_    0.345240 0.448232 0.181728 0.158665
H12   H     H_    0.640041 0.417144 0.830796 0.195827
H13   H     H_    0.555910 0.216756 0.610946 0.161504
H14   H     H_    0.446599 0.782885 0.386423 0.162464
H15   H     H_    0.444622 0.229152 0.388378 0.150099
H16   H     H_    0.555470 0.771050 0.610587 0.149486
H17   H     H_    0.412075 0.091226 0.324242 0.152557
H18   H     H_    0.589488 0.908799 0.673623 0.152488
H19   H     H_    0.411658 0.927058 0.324226 0.155998
H20   H     H_    0.590718 0.072914 0.673128 0.155653
N1    N     N_R   0.249980 0.499930 0.499960 -0.164851
N2    N     N_R   0.750020 0.500070 0.500040 -0.163251
O1    O     O_R   0.419720 0.632140 0.499980 -0.596728
O2    O     O_R   0.580280 0.367860 0.500020 -0.598218
O3    O     O_R   0.580270 0.632160 0.499970 -0.623643
O4    O     O_R   0.419730 0.367840 0.500030 -0.623100
O5    O     O_R   0.373870 0.499980 0.632250 -0.621952
O6    O     O_R   0.626130 0.500020 0.367750 -0.621652
O7    O     O_R   0.534420 0.500000 0.632240 -0.592915
O8    O     O_R   0.465580 0.500000 0.367760 -0.601811
Zn1   Zn    Zn3+2 0.392800 0.499980 0.500010 0.978874
Zn2   Zn    Zn3+2 0.607200 0.500020 0.499990 0.980409
C53   C     C_1   0.211265 0.378001 0.614513 0.239822
N3    N     N_1   0.234485 0.329573 0.663346 -0.208646
C54   C     C_1   0.788372 0.622844 0.386440 0.243537
N4    N     N_1   0.765040 0.671678 0.337996 -0.209275
C55   C     C_2   0.287090 0.639230 0.403348 0.947057
O9    O     O_2   0.273030 0.711034 0.441732 -0.642235
O10   O     O_R   0.358261 0.631632 0.313573 -0.838193
H21   H     H_    0.396109 0.689392 0.288120 0.321579
C56   C     C_2   0.714620 0.358357 0.592872 0.945675
O11   O     O_2   0.733824 0.286053 0.555342 -0.642075
O12   O     O_R   0.637092 0.365905 0.679298 -0.847390
H22   H     H_    0.602378 0.306953 0.705163 0.318756
C57   C     C_1   0.153180 0.495295 0.980441 0.156682
N5    N     N_1   0.067383 0.503252 0.023530 -0.184418
C58   C     C_1   0.834327 0.405493 0.032666 0.157965
N6    N     N_1   0.917025 0.382050 0.993049 -0.182813

loop_
_geom_bond_atom_site_label_1
_geom_bond_atom_site_label_2
_ccdc_geom_bond_type
C30   C32   A    
C54   N4    T    
C45   H8    S    
C8    H14   S    
C56   O11   D    
C46   H7    S    
C27   C29   A    
C34   C37   A    
C1    O3    A    
O12   H22   S    
O6    Zn2   S    
C28   N2    A    
O2    Zn2   S    
C57   N5    T    
C47   C49   A    
C53   N3    T    
C40   C46   A    
C12   H16   S    
C21   H19   S    
C36   H4    S    
C5    H1    S    
C35   C37   A    
C15   C16   A    
C18   C21   A    
C7    C9    A    
C22   H20   S    
C24   O8    A    
C26   N2    A    
C38   H6    S    
O4    Zn1   S    
C26   C34   A    
C58   N6    T    
C11   H15   S    
C26   C54   S    
C7    C17   A    
C31   C33   A    
C55   O10   S    
C25   N1    A    
C39   C45   A    
C48   C50   A    
C56   O12   S    
C41   C43   A    
C5    C49   A    
C42   C44   A    
C6    H2    S    
C41   C49   A    
C24   O6    A    
C45   C47   A    
C46   C48   A    
C13   C19   A    
C4    C51   A    
C35   H3    S    
C51   C52   A    
C1    O1    A    
C14   C20   A    
C4    C6    A    
O10   H21   S    
C39   C43   A    
O3    Zn2   S    
C8    C18   A    
C28   C56   S    
C32   C34   A    
C2    O4    A    
C7    H13   S    
C31   C32   A    
C40   C44   A    
C25   C53   S    
C6    C50   A    
C9    C11   A    
C10   C12   A    
C42   C50   A    
C16   C18   A    
C20   C22   A    
C13   C15   A    
C14   C16   A    
C19   H17   S    
O7    Zn2   S    
C2    O2    A    
C20   H18   S    
C15   C17   A    
C4    H12   S    
C23   O7    A    
C19   C21   A    
C1    C10   S    
C33   C38   A    
N2    Zn2   S    
C3    C5    A    
C47   C51   A    
C3    C52   A    
C3    H11   S    
C44   H9    S    
C29   C35   A    
C17   C22   A    
C30   C36   A    
C28   C30   A    
C12   C14   A    
C29   C31   A    
C42   C58   S    
O5    Zn1   S    
C11   C13   A    
O1    Zn1   S    
C23   C39   S    
C36   C38   A    
C24   C40   S    
C27   C55   S    
C41   C57   S    
C48   C52   A    
C8    C10   A    
O8    Zn1   S    
C23   O5    A    
C55   O9    D    
C27   N1    A    
C2    C9    S    
N1    Zn1   S    
C37   H5    S    
C43   H10   S    
C25   C33   A    
