data_mof_unit_17613.cif
_audit_creation_date              2012-12-10T17:32:16-0500
_audit_creation_method            fapswitch 2.2
_symmetry_space_group_name_H-M    P1
_symmetry_Int_Tables_number       1
_space_group_crystal_system       triclinic
_cell_length_a                    12.390108
_cell_length_b                    13.115564
_cell_length_c                    15.011381
_cell_angle_alpha                 76.343796
_cell_angle_beta                  101.091386
_cell_angle_gamma                 117.058923
_cell_volume                      2100.76467281

loop_
_atom_site_label
_atom_site_type_symbol
_atom_type_description
_atom_site_fract_x
_atom_site_fract_y
_atom_site_fract_z
_atom_type_partial_charge
C1    C     C_R   0.854862 0.285000 0.509081 0.770020
C2    C     C_R   0.023911 0.608211 0.076404 0.057457
C3    C     C_R   0.997551 0.310913 0.087529 -0.219958
C4    C     C_R   0.994817 0.309090 0.995263 -0.190132
C5    C     C_R   0.001358 0.406154 0.927374 0.128321
C6    C     C_R   0.017851 0.509255 0.954834 -0.071688
C7    C     C_R   0.034266 0.611365 0.889351 -0.008866
C8    C     C_R   0.066481 0.716560 0.921330 0.197408
C9    C     C_R   0.046557 0.711996 0.012143 0.158195
C10   C     C_R   0.991017 0.401713 0.833143 0.087219
C11   C     C_R   0.000889 0.501745 0.767730 -0.119658
C12   C     C_R   0.000597 0.501450 0.670646 0.860747
C13   C     C_R   0.016896 0.604171 0.794624 0.170028
C14   C     C_R   0.276421 0.030729 0.376642 0.184748
C15   C     C_R   0.227605 0.837816 0.467021 -0.078909
C16   C     C_R   0.812010 0.070618 0.560125 0.160031
C17   C     C_R   0.727799 0.952216 0.566673 0.186476
C18   C     C_R   0.605985 0.923115 0.534659 -0.215067
C19   C     C_R   0.564690 0.008124 0.490942 0.051873
C20   C     C_R   0.651556 0.123717 0.468207 0.039461
C21   C     C_R   0.439117 0.979669 0.465139 0.062746
C22   C     C_R   0.402180 0.061433 0.404193 0.144641
C23   C     C_R   0.144924 0.714199 0.486431 0.858743
C24   C     C_R   0.492126 0.170288 0.370706 -0.229907
C25   C     C_R   0.614218 0.200244 0.401256 -0.173143
C26   C     C_R   0.349385 0.871759 0.499992 -0.209826
C27   C     C_R   0.190444 0.917821 0.407217 -0.184277
C28   C     C_R   0.773215 0.158425 0.511082 -0.163322
C29   C     C_R   0.344642 0.326279 0.648852 -0.290436
C30   C     C_R   0.752738 0.631014 0.365012 0.083155
C31   C     C_R   0.643911 0.632392 0.321489 -0.259004
C32   C     C_R   0.538556 0.569200 0.366367 -0.130991
C33   C     C_R   0.542749 0.514556 0.459101 0.004255
C34   C     C_R   0.000644 0.500516 0.329393 0.812069
C35   C     C_R   0.651365 0.500841 0.494721 0.286597
C36   C     C_R   0.441095 0.463636 0.514342 -0.082412
C37   C     C_R   0.442952 0.382045 0.594851 0.134866
C38   C     C_R   0.544293 0.358161 0.622319 -0.252747
C39   C     C_R   0.647309 0.418344 0.574738 -0.153586
C40   C     C_R   0.341473 0.494868 0.497719 0.387325
C41   C     C_R   0.246319 0.354597 0.626074 0.018657
C42   C     C_R   0.013387 0.601806 0.169356 -0.217177
C43   C     C_R   0.003454 0.502580 0.233318 -0.048894
C44   C     C_R   0.001820 0.407341 0.206691 -0.242014
C45   C     C_R   0.005567 0.408901 0.114427 0.143468
C46   C     C_R   0.016892 0.509356 0.048503 0.040968
Cu1   Cu    Cu3+1 0.098270 0.475420 0.521130 0.970925
Cu2   Cu    Cu3+1 0.901730 0.524580 0.478870 0.946225
H1    H     H_    0.017897 0.674765 0.194292 0.145450
H2    H     H_    0.469459 0.233683 0.320690 0.159515
H3    H     H_    0.372193 0.811080 0.552891 0.162997
H4    H     H_    0.545157 0.831835 0.540739 0.170911
H5    H     H_    0.678805 0.282744 0.368457 0.176108
H6    H     H_    0.170824 0.311661 0.668001 0.138806
H7    H     H_    0.545600 0.294654 0.683179 0.153367
H8    H     H_    0.344604 0.261964 0.709371 0.147931
H9    H     H_    0.994709 0.331117 0.257733 0.135888
H10   H     H_    0.833534 0.676144 0.328614 0.122613
H11   H     H_    0.453783 0.557849 0.325205 0.189173
H12   H     H_    0.639960 0.677581 0.251432 0.151149
H13   H     H_    0.720195 0.394205 0.601178 0.199387
H14   H     H_    0.990931 0.234391 0.137865 0.143160
H15   H     H_    0.987288 0.230313 0.978290 0.154928
H16   H     H_    0.095103 0.891166 0.382165 0.151246
N1    N     N_R   0.246280 0.438190 0.553160 -0.193204
N2    N     N_R   0.754320 0.561190 0.447410 -0.201747
O1    O     O_R   0.972510 0.318130 0.526570 -0.580729
O2    O     O_R   0.806530 0.359650 0.490890 -0.605024
O3    O     O_R   0.082980 0.479210 0.647590 -0.581672
O4    O     O_R   0.917000 0.520730 0.611900 -0.561203
O5    O     O_R   0.193470 0.640350 0.509110 -0.538482
O6    O     O_R   0.027490 0.681870 0.473430 -0.574449
O7    O     O_R   0.083000 0.479270 0.388100 -0.537813
O8    O     O_R   0.917020 0.520790 0.352410 -0.609612
C47   C     C_3   0.232312 0.114960 0.313273 -0.899231
H17   H     H_    0.262425 0.193608 0.344481 0.239811
H18   H     H_    0.269312 0.140139 0.245654 0.232548
H19   H     H_    0.131373 0.076563 0.300787 0.230911
C48   C     C_3   0.941383 0.101734 0.604987 -0.816439
H20   H     H_    0.958481 0.026916 0.644031 0.236456
H21   H     H_    0.006335 0.144486 0.551503 0.249307
H22   H     H_    0.962604 0.159073 0.655659 0.221956
C49   C     C_3   0.764273 0.854243 0.608674 -0.777821
H23   H     H_    0.794434 0.856149 0.683103 0.241975
H24   H     H_    0.687842 0.767436 0.602854 0.232265
H25   H     H_    0.838648 0.862392 0.572396 0.262062
Br1   Br    Br    0.349824 0.631124 0.408846 -0.552099
C50   C     C_3   0.960127 0.287791 0.802847 -0.883948
H26   H     H_    0.935165 0.289049 0.727923 0.222731
H27   H     H_    0.038669 0.265217 0.823021 0.229963
H28   H     H_    0.879017 0.217306 0.835344 0.228607
Br2   Br    Br    0.993012 0.724171 0.700049 -0.578638
C51   C     C_3   0.144588 0.833531 0.868008 -0.790632
H29   H     H_    0.194431 0.824449 0.818574 0.252425
H30   H     H_    0.088203 0.879678 0.831859 0.253778
H31   H     H_    0.217099 0.888323 0.915232 0.218926
C52   C     C_3   0.053157 0.818256 0.041122 -0.882962
H32   H     H_    0.968441 0.795235 0.071573 0.226058
H33   H     H_    0.132983 0.851017 0.092455 0.237168
H34   H     H_    0.060099 0.890091 0.982787 0.241517

loop_
_geom_bond_atom_site_label_1
_geom_bond_atom_site_label_2
_ccdc_geom_bond_type
C16   C28   A    
C21   C26   A    
C51   H29   S    
C19   C20   A    
C12   O3    A    
C33   C36   A    
C52   H32   S    
C18   H4    S    
C7    C8    A    
C45   C46   A    
C2    C46   A    
C4    H15   S    
C10   C50   S    
C49   H23   S    
C40   Br1   S    
C36   C37   A    
C19   C21   A    
C25   H5    S    
C5    C6    A    
C20   C25   A    
C1    O2    A    
C18   C19   A    
Cu1   O3    S    
C1    O1    A    
C38   H7    S    
C31   C32   A    
C8    C9    A    
C1    C28   S    
C14   C27   A    
C15   C23   S    
C51   H30   S    
C21   C22   A    
Cu2   O6    S    
Cu1   O1    S    
C52   H33   S    
C24   H2    S    
C38   C39   A    
C39   H13   S    
C34   C43   S    
Cu2   O8    S    
C36   C40   A    
C24   C25   A    
Cu1   O7    S    
C10   C11   A    
C48   H21   S    
C16   C17   A    
C15   C26   A    
C41   N1    A    
C20   C28   A    
C35   N2    A    
C34   O7    A    
C3    C45   A    
C17   C49   S    
C31   H12   S    
C35   C39   A    
C47   H17   S    
C37   C38   A    
C23   O5    A    
C15   C27   A    
Cu1   Cu2   S    
C50   H28   S    
C44   H9    S    
C17   C18   A    
Cu2   O2    S    
C47   H18   S    
Cu1   O5    S    
C30   N2    A    
C34   O8    A    
C49   H24   S    
C50   H27   S    
C51   H31   S    
C40   N1    A    
C43   C44   A    
C22   C24   A    
C42   C43   A    
C3    C4    A    
C52   H34   S    
C44   C45   A    
C3    H14   S    
C12   O4    A    
C9    C52   S    
C6    C46   A    
C29   C41   A    
C23   O6    A    
C8    C51   S    
Cu2   O4    S    
C4    C5    A    
C48   H22   S    
C11   C12   S    
C6    C7    A    
C29   H8    S    
C16   C48   S    
C32   C33   A    
C14   C22   A    
C5    C10   A    
C13   Br2   S    
C26   H3    S    
C14   C47   S    
C11   C13   A    
C30   C31   A    
C2    C42   A    
C30   H10   S    
C33   C35   A    
C47   H19   S    
C41   H6    S    
C27   H16   S    
C42   H1    S    
C48   H20   S    
C7    C13   A    
C49   H25   S    
C50   H26   S    
C29   C37   A    
C32   H11   S    
Cu2   N2    S    
C2    C9    A    
Cu1   N1    S    
