data_mof_unit_55080.cif
_audit_creation_date              2012-12-11T16:52:21-0500
_audit_creation_method            fapswitch 2.2
_symmetry_space_group_name_H-M    P1
_symmetry_Int_Tables_number       1
_space_group_crystal_system       triclinic
_cell_length_a                    7.208203
_cell_length_b                    26.054677
_cell_length_c                    28.697174
_cell_angle_alpha                 90.024653
_cell_angle_beta                  90.04395
_cell_angle_gamma                 89.966907
_cell_volume                      5389.5386801

loop_
_atom_site_label
_atom_site_type_symbol
_atom_type_description
_atom_site_fract_x
_atom_site_fract_y
_atom_site_fract_z
_atom_type_partial_charge
O1    O     O_R   0.601030 0.796770 0.202460 -0.534014
O2    O     O_R   0.398970 0.203230 0.797540 -0.539647
O3    O     O_R   0.398970 0.203230 0.702460 -0.534045
O4    O     O_R   0.601030 0.796770 0.297540 -0.539367
O5    O     O_R   0.101030 0.703230 0.297540 -0.535294
O6    O     O_R   0.898970 0.296770 0.702460 -0.539898
O7    O     O_R   0.898970 0.296770 0.797540 -0.533999
O8    O     O_R   0.101030 0.703230 0.202460 -0.538795
O9    O     O_R   0.271290 0.802910 0.297210 -0.536135
O10   O     O_R   0.728710 0.197090 0.702790 -0.543200
O11   O     O_R   0.728710 0.197090 0.797210 -0.535129
O12   O     O_R   0.271290 0.802910 0.202790 -0.543135
O13   O     O_R   0.771290 0.697090 0.202790 -0.535254
O14   O     O_R   0.228710 0.302910 0.797210 -0.543181
O15   O     O_R   0.228710 0.302910 0.702790 -0.535200
O16   O     O_R   0.771290 0.697090 0.297210 -0.542840
C1    C     C_R   0.440214 0.815175 0.312802 0.687652
C2    C     C_R   0.559746 0.184512 0.687486 0.691071
C3    C     C_R   0.559861 0.184819 0.812805 0.690214
C4    C     C_R   0.440178 0.815491 0.187482 0.691128
C5    C     C_R   0.940190 0.684822 0.187201 0.692284
C6    C     C_R   0.059770 0.315489 0.812512 0.691130
C7    C     C_R   0.059678 0.315118 0.687187 0.690714
C8    C     C_R   0.940328 0.684816 0.312777 0.690958
O17   O     O_3   0.434520 0.717290 0.250000 -0.374648
O18   O     O_3   0.565480 0.282710 0.750000 -0.375699
O19   O     O_3   0.934520 0.782710 0.250000 -0.375922
O20   O     O_3   0.065480 0.217290 0.750000 -0.375741
V1    V     V_3+5 0.159680 0.756060 0.250000 1.406298
V2    V     V_3+5 0.840320 0.243940 0.750000 1.407324
V3    V     V_3+5 0.659680 0.743940 0.250000 1.408185
V4    V     V_3+5 0.340320 0.256060 0.750000 1.407349
C9    C     C_R   0.881329 0.357567 0.622591 -0.138793
C10   C     C_R   0.121034 0.640204 0.375827 -0.233696
C11   C     C_R   0.117211 0.642192 0.122435 -0.137691
C12   C     C_R   0.879390 0.380710 0.858511 -0.246617
C13   C     C_R   0.382981 0.142253 0.877601 -0.138274
C14   C     C_R   0.620388 0.880702 0.141496 -0.246513
C15   C     C_R   0.617287 0.857766 0.377621 -0.139332
C16   C     C_R   0.379427 0.119282 0.641477 -0.246718
H1    H     H_    0.764996 0.332877 0.630804 0.165429
H2    H     H_    0.239811 0.663741 0.366956 0.121211
H3    H     H_    0.233596 0.666965 0.130455 0.165212
H4    H     H_    0.760653 0.373069 0.836370 0.120521
H5    H     H_    0.266594 0.167062 0.869604 0.165263
H6    H     H_    0.739108 0.873064 0.163649 0.120483
H7    H     H_    0.733695 0.832969 0.369635 0.165065
H8    H     H_    0.260779 0.126913 0.663616 0.120469
C17   C     C_R   0.863263 0.393500 0.586207 0.007368
C18   C     C_R   0.139512 0.603704 0.411619 0.025246
C19   C     C_R   0.134297 0.606197 0.086020 0.005537
C20   C     C_R   0.861371 0.416612 0.894895 0.025821
C21   C     C_R   0.365955 0.106282 0.914019 0.005529
C22   C     C_R   0.638401 0.916576 0.105109 0.025947
C23   C     C_R   0.634315 0.893742 0.414057 0.005675
C24   C     C_R   0.361375 0.083392 0.605082 0.025894
C25   C     C_R   0.014973 0.425911 0.575335 -0.008886
C26   C     C_R   0.984595 0.572859 0.423754 0.057406
C27   C     C_R   0.982465 0.573680 0.075413 -0.009247
C28   C     C_R   0.016264 0.426589 0.924106 0.053373
C29   C     C_R   0.517757 0.073703 0.924602 -0.009407
C30   C     C_R   0.483569 0.926563 0.075865 0.053272
C31   C     C_R   0.482443 0.926288 0.424608 -0.009344
C32   C     C_R   0.516158 0.073427 0.575872 0.053397
C33   C     C_R   0.179105 0.421805 0.601589 -0.078499
C34   C     C_R   0.818164 0.578726 0.398743 -0.176607
C35   C     C_R   0.819115 0.577782 0.101897 -0.076830
C36   C     C_R   0.183635 0.400495 0.915867 -0.173771
C37   C     C_R   0.681070 0.077749 0.898099 -0.077151
C38   C     C_R   0.316279 0.900466 0.084081 -0.173593
C39   C     C_R   0.319068 0.922221 0.398078 -0.077299
C40   C     C_R   0.683412 0.099552 0.584107 -0.173965
H9    H     H_    0.296367 0.446324 0.593784 0.129428
H10   H     H_    0.699185 0.555179 0.407210 0.158373
H11   H     H_    0.701783 0.553191 0.094285 0.128576
H12   H     H_    0.302752 0.407577 0.937974 0.150395
H13   H     H_    0.798398 0.053118 0.905688 0.128473
H14   H     H_    0.197190 0.907536 0.061958 0.150743
H15   H     H_    0.201710 0.946837 0.405656 0.128752
H16   H     H_    0.802435 0.092490 0.561999 0.150596
C41   C     C_R   0.195334 0.385715 0.637524 -0.118645
C42   C     C_R   0.802132 0.615172 0.363121 -0.171313
C43   C     C_R   0.803751 0.613976 0.137808 -0.118853
C44   C     C_R   0.199699 0.365232 0.879258 -0.162502
C45   C     C_R   0.696402 0.113934 0.862194 -0.119239
C46   C     C_R   0.300226 0.865226 0.120695 -0.162417
C47   C     C_R   0.303731 0.886033 0.362161 -0.120201
C48   C     C_R   0.699504 0.134808 0.620722 -0.162518
H17   H     H_    0.324173 0.383565 0.656862 0.134405
H18   H     H_    0.671356 0.618624 0.344784 0.125468
H19   H     H_    0.675421 0.616134 0.157310 0.134245
H20   H     H_    0.330729 0.345674 0.874132 0.123115
H21   H     H_    0.824707 0.116044 0.842683 0.133753
H22   H     H_    0.169251 0.845678 0.125796 0.123089
H23   H     H_    0.175374 0.883897 0.342623 0.133967
H24   H     H_    0.830451 0.154384 0.625848 0.123174
C49   C     C_R   0.046433 0.353235 0.648585 -0.104916
C50   C     C_R   0.953507 0.646355 0.351131 -0.038955
C51   C     C_R   0.952814 0.646552 0.148644 -0.105022
C52   C     C_R   0.047342 0.354593 0.850322 -0.037001
C53   C     C_R   0.547332 0.146558 0.851369 -0.104871
C54   C     C_R   0.452516 0.854593 0.149667 -0.037214
C55   C     C_R   0.452859 0.853439 0.351362 -0.105126
C56   C     C_R   0.547281 0.145416 0.649668 -0.037027
C57   C     C_R   0.029768 0.516267 0.545232 -0.147295
C58   C     C_R   0.966955 0.482677 0.453924 -0.124428
C59   C     C_R   0.972933 0.483101 0.045472 -0.151800
C60   C     C_R   0.024288 0.516934 0.953836 -0.072757
C61   C     C_R   0.525751 0.983071 0.954460 -0.151921
C62   C     C_R   0.476949 0.016965 0.046196 -0.072509
C63   C     C_R   0.474478 0.016903 0.454460 -0.152022
C64   C     C_R   0.522759 0.983032 0.546214 -0.072338
H25   H     H_    0.053293 0.529813 0.580429 0.111630
H26   H     H_    0.943761 0.469142 0.418710 0.115493
H27   H     H_    0.953572 0.469496 0.080791 0.114222
H28   H     H_    0.043194 0.530463 0.918477 0.110911
H29   H     H_    0.544102 0.969438 0.919104 0.114118
H30   H     H_    0.459052 0.030528 0.081589 0.110544
H31   H     H_    0.456321 0.030516 0.419095 0.114085
H32   H     H_    0.540491 0.969489 0.581616 0.110493
C65   C     C_R   0.020153 0.551839 0.508715 -0.060028
C66   C     C_R   0.976441 0.447120 0.490437 -0.137656
C67   C     C_R   0.983661 0.447479 0.008945 -0.109472
C68   C     C_R   0.014181 0.552522 0.990346 -0.133615
C69   C     C_R   0.514834 0.947450 0.990970 -0.109812
C70   C     C_R   0.487167 0.052551 0.009702 -0.133600
C71   C     C_R   0.485202 0.052531 0.490983 -0.110245
C72   C     C_R   0.512723 0.947438 0.509706 -0.133821
H33   H     H_    0.037303 0.592303 0.516223 0.108081
H34   H     H_    0.959914 0.406652 0.482856 0.126057
H35   H     H_    0.970956 0.406909 0.016491 0.114911
H36   H     H_    0.025887 0.593083 0.982656 0.124333
H37   H     H_    0.526413 0.906858 0.983358 0.114980
H38   H     H_    0.476495 0.093133 0.017447 0.124259
H39   H     H_    0.473713 0.093122 0.483382 0.114832
H40   H     H_    0.523326 0.906857 0.517436 0.123936
C73   C     C_R   0.990363 0.535281 0.462694 0.136893
C74   C     C_R   0.006894 0.463623 0.536458 0.054515
C75   C     C_R   0.008959 0.464183 0.962891 0.136481
C76   C     C_R   0.989730 0.535902 0.036536 0.054593
C77   C     C_R   0.490870 0.964175 0.037084 0.136561
C78   C     C_R   0.510430 0.035911 0.963462 0.054422
C79   C     C_R   0.508883 0.035811 0.537099 0.136808
C80   C     C_R   0.489718 0.964076 0.463466 0.054556
C81   C     C_2   0.683405 0.397768 0.561134 0.318538
H41   H     H_    0.655411 0.430080 0.538398 0.078078
O21   O     O_2   0.563254 0.365127 0.565673 -0.530140
C82   C     C_2   0.324920 0.598613 0.433853 0.313111
H42   H     H_    0.427925 0.628485 0.428804 0.054670
O22   O     O_2   0.368064 0.560797 0.456491 -0.530064
C83   C     C_2   0.313142 0.602037 0.060539 0.321863
H43   H     H_    0.339559 0.570064 0.037278 0.078293
O23   O     O_2   0.434226 0.634385 0.065312 -0.529439
C84   C     C_2   0.677594 0.441771 0.900825 0.324338
H44   H     H_    0.569609 0.435370 0.875079 0.046911
O24   O     O_2   0.642328 0.469087 0.934222 -0.527208
C85   C     C_2   0.187215 0.102224 0.939551 0.321857
H45   H     H_    0.161070 0.070367 0.962927 0.078289
O25   O     O_2   0.065911 0.134528 0.934692 -0.529467
C86   C     C_2   0.822180 0.941670 0.099189 0.323915
H46   H     H_    0.929963 0.935380 0.125013 0.046908
O26   O     O_2   0.857707 0.968781 0.065701 -0.527311
C87   C     C_2   0.813076 0.897835 0.439648 0.320887
H47   H     H_    0.839108 0.929676 0.463085 0.078805
O27   O     O_2   0.934519 0.865577 0.434773 -0.530462
C88   C     C_2   0.177633 0.058266 0.599111 0.323848
H48   H     H_    0.069883 0.064560 0.624906 0.046935
O28   O     O_2   0.142090 0.031127 0.565608 -0.527337

loop_
_geom_bond_atom_site_label_1
_geom_bond_atom_site_label_2
_ccdc_geom_bond_type
O17   V3    S    
C13   C53   A    
C48   H24   S    
O18   V4    S    
C85   H45   S    
O12   V1    S    
O19   V1    S    
C37   H13   S    
C87   H47   S    
C10   H2    S    
C59   C67   A    
C32   C40   A    
C62   H30   S    
C39   H15   S    
C81   H41   S    
C61   H29   S    
O15   V4    S    
C29   C37   A    
O16   V3    S    
C35   C43   A    
O11   C3    A    
C58   H26   S    
C8    C50   S    
O8    V1    S    
C64   C79   A    
C57   H25   S    
C87   O27   D    
C82   O22   D    
C72   H40   S    
C5    C51   S    
C38   H14   S    
C20   C84   S    
C34   H10   S    
C67   C75   A    
O1    V3    S    
C33   H9    S    
C30   C38   A    
O3    C2    A    
O2    V4    S    
C65   C73   A    
C59   C76   A    
C20   C28   A    
C81   O21   D    
C57   C74   A    
C23   C87   S    
C21   C29   A    
C26   C34   A    
C15   C23   A    
O11   V2    S    
C69   C77   A    
C16   C24   A    
C23   C31   A    
C83   H43   S    
C24   C32   A    
C61   C78   A    
C11   H3    S    
C84   O24   D    
C12   C20   A    
O9    V1    S    
C41   H17   S    
O15   C7    A    
C19   C83   S    
O16   C8    A    
O7    V2    S    
C43   C51   A    
C88   O28   D    
C42   C50   A    
O12   C4    A    
C45   H21   S    
C60   C68   A    
C11   C51   A    
C70   H38   S    
C40   C48   A    
C68   H36   S    
C68   C76   A    
C19   C27   A    
O5    V1    S    
C46   H22   S    
C10   C18   A    
C6    C52   S    
C17   C81   S    
C36   C44   A    
C82   H42   S    
C66   C74   A    
O14   V4    S    
C64   H32   S    
C64   C72   A    
C58   C73   A    
C2    C56   S    
C22   C30   A    
C67   H35   S    
C70   C78   A    
C47   H23   S    
C86   O26   D    
C85   O25   D    
C62   C77   A    
C37   C45   A    
C16   C56   A    
O10   V2    S    
C27   C35   A    
C33   C41   A    
C14   C22   A    
C31   C80   S    
C25   C33   A    
C58   C66   A    
O8    C5    A    
C18   C26   A    
C57   C65   A    
C12   C52   A    
C71   C79   A    
O9    C1    A    
C72   C80   A    
C18   C82   S    
C59   H27   S    
C84   H44   S    
C63   C80   A    
C62   C70   A    
C47   C55   A    
O4    C1    A    
C63   H31   S    
C61   C69   A    
O6    V2    S    
C31   C39   A    
C11   C19   A    
C88   H48   S    
C39   C47   A    
C12   H4    S    
C35   H11   S    
C30   C77   S    
C13   H5    S    
C46   C54   A    
C45   C53   A    
C26   C73   S    
C15   H7    S    
C69   H37   S    
C16   H8    S    
O1    C4    A    
C7    C49   S    
O2    C3    A    
O13   V3    S    
C65   H33   S    
C44   C52   A    
C15   C55   A    
C32   C79   S    
C36   H12   S    
O7    C6    A    
C43   H19   S    
C21   C85   S    
C42   H18   S    
C9    H1    S    
C86   H46   S    
O14   C6    A    
C60   C75   A    
O20   V2    S    
C1    C55   S    
C13   C21   A    
C40   H16   S    
O13   C5    A    
C63   C71   A    
C3    C53   S    
C60   H28   S    
C17   C25   A    
O5    C8    A    
C41   C49   A    
C27   C76   S    
O10   C2    A    
O6    C7    A    
C10   C50   A    
C25   C74   S    
C9    C49   A    
C83   O23   D    
O3    V4    S    
C71   H39   S    
C14   H6    S    
O4    V3    S    
C28   C75   S    
C22   C86   S    
C29   C78   S    
C4    C54   S    
C28   C36   A    
C14   C54   A    
C24   C88   S    
C44   H20   S    
C9    C17   A    
C48   C56   A    
C66   H34   S    
C34   C42   A    
C38   C46   A    
