data_mof_unit_22937.cif
_audit_creation_date              2012-12-11T16:26:30-0500
_audit_creation_method            fapswitch 2.2
_symmetry_space_group_name_H-M    P1
_symmetry_Int_Tables_number       1
_space_group_crystal_system       triclinic
_cell_length_a                    6.960989
_cell_length_b                    17.418025
_cell_length_c                    19.551045
_cell_angle_alpha                 108.386167
_cell_angle_beta                  89.711846
_cell_angle_gamma                 90.46113
_cell_volume                      2249.40990834

loop_
_atom_site_label
_atom_site_type_symbol
_atom_type_description
_atom_site_fract_x
_atom_site_fract_y
_atom_site_fract_z
_atom_type_partial_charge
O1    O     O_R   0.494330 0.415720 0.413720 -0.541124
O2    O     O_R   0.819330 0.430070 0.560210 -0.541967
O3    O     O_R   0.994320 0.584280 0.586280 -0.535162
C1    C     C_R   0.650730 0.415375 0.581832 0.705353
O4    O     O_R   0.823730 0.406300 0.412670 -0.537807
O5    O     O_R   0.998760 0.560340 0.437690 -0.544230
C2    C     C_R   0.655392 0.387578 0.382401 0.675714
O6    O     O_R   0.489890 0.439660 0.562310 -0.531457
O7    O     O_3   0.662340 0.550560 0.508380 -0.368631
V1    V     V_3+5 0.935370 0.490620 0.498450 1.415591
O8    O     O_R   0.328750 0.569930 0.439790 -0.549731
C3    C     C_R   0.161035 0.585323 0.418686 0.684666
O9    O     O_R   0.324340 0.593700 0.587330 -0.536239
C4    C     C_R   0.154995 0.617842 0.613580 0.689092
V2    V     V_3+5 0.435940 0.509380 0.501550 1.415570
O10   O     O_3   0.159100 0.449440 0.491620 -0.364830
H1    H     H_    0.881407 0.858876 0.575212 0.121425
C5    C     C_R   0.268459 0.592445 0.744269 -0.137916
C6    C     C_R   0.336345 0.576230 0.804992 0.008508
C7    C     C_R   0.345169 0.638328 0.869735 -0.209933
C8    C     C_R   0.273248 0.715303 0.876426 -0.005773
C9    C     C_R   0.199832 0.734026 0.814953 -0.005111
C10   C     C_R   0.205781 0.670688 0.747206 0.036744
C11   C     C_R   0.120647 0.811472 0.817622 -0.160641
C12   C     C_R   0.052448 0.823121 0.752953 0.098017
C13   C     C_R   0.066981 0.760100 0.685953 0.071015
C14   C     C_R   0.144151 0.684414 0.683214 -0.162195
C15   C     C_R   0.972748 0.898002 0.753185 -0.089990
C16   C     C_R   0.911116 0.910263 0.689777 -0.100116
C17   C     C_R   0.927949 0.848903 0.624474 -0.120516
C18   C     C_R   0.005119 0.774669 0.622245 -0.144550
H2    H     H_    0.263563 0.542388 0.694631 0.148166
H3    H     H_    0.396367 0.624881 0.917047 0.135958
H4    H     H_    0.958546 0.948615 0.801985 0.109981
H5    H     H_    0.851346 0.968013 0.691350 0.125019
H6    H     H_    0.016383 0.729094 0.569924 0.097561
C19   C     C_R   0.117081 0.599205 0.296841 -0.227541
C20   C     C_R   0.156312 0.635315 0.370124 -0.064936
C21   C     C_R   0.196724 0.718639 0.396647 -0.242309
C22   C     C_R   0.199534 0.767109 0.350361 0.016292
C23   C     C_R   0.148669 0.730233 0.276948 0.062673
C24   C     C_R   0.109157 0.646176 0.250359 0.115924
C25   C     C_R   0.249883 0.850949 0.374551 -0.017993
C26   C     C_R   0.239990 0.895911 0.325870 -0.154430
C27   C     C_R   0.183096 0.860082 0.254210 0.067824
C28   C     C_R   0.136537 0.777100 0.229668 0.042165
C29   C     C_R   0.075944 0.740950 0.157719 0.106600
C30   C     C_R   0.038466 0.657573 0.132274 -0.172051
C31   C     C_R   0.059361 0.610362 0.177686 -0.225357
C32   C     C_R   0.174008 0.905909 0.206366 -0.136930
C33   C     C_R   0.110815 0.870451 0.135094 -0.003838
C34   C     C_R   0.055684 0.788518 0.112074 -0.132445
H7    H     H_    0.088993 0.534647 0.276384 0.113792
H8    H     H_    0.225474 0.743841 0.453537 0.092765
H9    H     H_    0.277463 0.959671 0.343808 0.158847
H10   H     H_    0.211967 0.969607 0.224916 0.085172
H11   H     H_    0.000316 0.761003 0.058239 0.099469
H12   H     H_    0.994747 0.628660 0.076925 0.124221
H13   H     H_    0.030854 0.545922 0.156452 0.126570
C35   C     C_R   0.755517 0.190415 0.872890 -0.265838
C36   C     C_R   0.622607 0.127009 0.863008 -0.110448
C37   C     C_R   0.495470 0.107610 0.803224 -0.045818
C38   C     C_R   0.498267 0.155026 0.755803 -0.001482
C39   C     C_R   0.629804 0.220190 0.767936 0.037869
C40   C     C_R   0.759734 0.237125 0.826241 0.112006
C41   C     C_R   0.377012 0.137366 0.695171 -0.199954
C42   C     C_R   0.379616 0.183971 0.648270 0.074707
C43   C     C_R   0.506322 0.251194 0.661952 0.104863
C44   C     C_R   0.633682 0.268160 0.721315 0.043349
C45   C     C_R   0.767592 0.332665 0.733687 0.098797
C46   C     C_R   0.895498 0.348463 0.791695 -0.184929
C47   C     C_R   0.891768 0.301117 0.837477 -0.190817
C48   C     C_R   0.511803 0.301261 0.617444 -0.184334
C49   C     C_R   0.643473 0.365352 0.630136 -0.048505
C50   C     C_R   0.772898 0.380075 0.687587 -0.180497
H14   H     H_    0.853161 0.204662 0.918327 0.123947
H15   H     H_    0.279242 0.086346 0.682962 0.119306
H16   H     H_    0.417525 0.290448 0.571566 0.114669
H17   H     H_    0.876151 0.429266 0.696899 0.125446
H18   H     H_    0.998477 0.397697 0.801800 0.160806
H19   H     H_    0.992259 0.314726 0.881935 0.127236
H20   H     H_    0.601758 0.143952 0.445610 0.131478
C51   C     C_R   0.637546 0.412653 0.233723 0.061947
C52   C     C_R   0.634110 0.417191 0.162808 -0.104639
C53   C     C_R   0.632169 0.349041 0.103318 -0.177005
C54   C     C_R   0.629422 0.273575 0.111583 -0.131824
C55   C     C_R   0.628887 0.263178 0.180516 0.074911
C56   C     C_R   0.636958 0.333168 0.243854 0.016703
C57   C     C_R   0.620196 0.183185 0.185062 -0.168813
C58   C     C_R   0.620285 0.170219 0.253751 -0.010350
C59   C     C_R   0.628626 0.239523 0.317264 0.089776
C60   C     C_R   0.642006 0.319756 0.312976 -0.170631
C61   C     C_R   0.615902 0.091024 0.263030 -0.039578
C62   C     C_R   0.612343 0.083799 0.332375 -0.083478
C63   C     C_R   0.610672 0.151186 0.392739 -0.171551
C64   C     C_R   0.621171 0.227657 0.385803 -0.134173
H21   H     H_    0.631837 0.473651 0.151140 0.110096
H22   H     H_    0.630912 0.354814 0.049740 0.121888
H23   H     H_    0.626694 0.223244 0.062133 0.096813
H24   H     H_    0.606349 0.024800 0.340001 0.155357
H25   H     H_    0.621952 0.277407 0.435668 0.098174
O11   O     O_R   0.775200 0.060470 0.937800 -0.549924
O12   O     O_R   0.441110 0.093720 0.087350 -0.552491
O13   O     O_R   0.266330 0.939630 0.062280 -0.535330
C65   C     C_R   0.609571 0.114418 0.116470 0.651819
O14   O     O_R   0.445750 0.069950 0.939820 -0.538087
O15   O     O_R   0.271000 0.915700 0.913700 -0.508827
C66   C     C_R   0.614504 0.082932 0.916695 0.751704
O16   O     O_R   0.770530 0.084400 0.086380 -0.538030
O17   O     O_3   0.602830 0.949510 0.991680 -0.345670
V3    V     V_3+5 0.329710 0.009370 0.001550 1.489021
O18   O     O_R   0.940990 0.906170 0.912570 -0.545114
C67   C     C_R   0.110431 0.881819 0.885716 0.689291
O19   O     O_R   0.936350 0.929940 0.060100 -0.525148
C68   C     C_R   0.103573 0.918973 0.084957 0.707841
V4    V     V_3+5 0.829160 0.990450 0.998310 1.498198
O20   O     O_3   0.105910 0.050480 0.008320 -0.384798
C69   C     C_2   0.319696 0.893100 0.449057 0.343509
H26   H     H_    0.350795 0.860691 0.486555 0.053279
O21   O     O_2   0.347604 0.966128 0.469596 -0.553012
C70   C     C_2   0.364528 0.036546 0.789095 0.361298
H27   H     H_    0.215173 0.041544 0.775770 0.026075
O22   O     O_2   0.424076 0.971465 0.790894 -0.531367
C71   C     C_3   0.250634 0.157913 0.582675 -0.340560
C72   C     C_3   0.070944 0.210617 0.593332 -0.314747
C73   C     C_3   0.961864 0.193677 0.522708 -0.736909
H28   H     H_    0.053179 0.208066 0.481538 0.233092
H29   H     H_    0.917087 0.129099 0.502461 0.238651
H30   H     H_    0.832264 0.232021 0.531534 0.209014
H31   H     H_    0.975995 0.197003 0.633951 0.203277
H32   H     H_    0.108932 0.275937 0.613443 0.218896
H33   H     H_    0.332753 0.158901 0.534110 0.181997
H34   H     H_    0.203065 0.094083 0.571715 0.213655
C74   C     C_3   0.637864 0.492571 0.296020 -0.380893
C75   C     C_3   0.627116 0.571558 0.276263 -0.342843
C76   C     C_3   0.643755 0.647164 0.342077 -0.688078
H35   H     H_    0.786345 0.651612 0.367124 0.232164
H36   H     H_    0.620694 0.701978 0.325808 0.218312
H37   H     H_    0.538500 0.646101 0.383813 0.240836
H38   H     H_    0.745580 0.574143 0.239410 0.206840
H39   H     H_    0.489286 0.573478 0.248646 0.208089
H40   H     H_    0.509271 0.492488 0.329195 0.198287
H41   H     H_    0.770993 0.495763 0.327602 0.187961
C77   C     C_2   0.390939 0.493545 0.802502 0.317164
H42   H     H_    0.466035 0.483771 0.847552 0.054466
O23   O     O_2   0.347889 0.435129 0.751091 -0.544157
C78   C     C_2   0.610738 0.012755 0.204224 0.331382
H43   H     H_    0.507396 0.001511 0.161315 0.069445
O24   O     O_2   0.716019 0.957616 0.205812 -0.526217
C79   C     C_2   0.261075 0.769380 0.950586 0.406436
H44   H     H_    0.127871 0.799785 0.969009 -0.016046
O25   O     O_2   0.395676 0.776934 0.992129 -0.524178

loop_
_geom_bond_atom_site_label_1
_geom_bond_atom_site_label_2
_ccdc_geom_bond_type
C55   C56   A    
C61   C62   A    
C63   C64   A    
C48   C49   A    
C78   H43   S    
C1    O6    A    
C42   C71   S    
O19   C68   A    
C75   C76   S    
C53   C54   A    
C12   C15   A    
C13   C14   A    
C6    C77   S    
C71   H34   S    
C73   H28   S    
C51   C52   A    
C52   H21   S    
C15   C16   A    
C78   O24   D    
C18   H6    S    
O5    C3    A    
C17   C18   A    
C21   H8    S    
V2    O10   S    
V4    O20   S    
C71   H33   S    
O12   V3    S    
C5    C6    A    
C23   C24   A    
C61   C78   S    
C19   C24   A    
C36   C66   S    
O17   V3    S    
C46   H18   S    
C51   C74   S    
C53   H22   S    
O16   V4    S    
C74   H41   S    
C69   H26   S    
O8    V2    S    
C72   H31   S    
C22   C25   A    
O15   C67   A    
C6    C7    A    
C43   C44   A    
C48   H16   S    
O11   C66   A    
C45   C46   A    
O1    V2    S    
C10   C14   A    
C4    C14   S    
C16   C17   A    
O7    V1    S    
C1    C49   S    
C47   H19   S    
C59   C60   A    
C19   H7    S    
C51   C56   A    
C59   C64   A    
C38   C41   A    
C15   H4    S    
C11   C67   S    
C8    C9    A    
H1    C17   S    
C44   C45   A    
C76   H37   S    
O18   C67   A    
C69   O21   D    
O14   V3    S    
C75   H38   S    
C49   C50   A    
C75   H39   S    
C42   C43   A    
C56   C60   A    
C64   H25   S    
C52   C53   A    
C76   H36   S    
C21   C22   A    
O4    C2    A    
C54   C55   A    
C77   H42   S    
C24   C31   A    
C73   H30   S    
C12   C13   A    
C27   C28   A    
C35   H14   S    
C32   H10   S    
C33   C34   A    
C35   C36   A    
O2    C1    A    
C25   C26   A    
C19   C20   A    
C74   H40   S    
O13   C68   A    
C72   H32   S    
C29   C30   A    
C62   H24   S    
C23   C28   A    
C37   C38   A    
C32   C33   A    
C62   C63   A    
O12   C65   A    
C8    C79   S    
C11   C12   A    
C54   H23   S    
C70   H27   S    
C74   C75   S    
O3    C4    A    
C7    H3    S    
C77   O23   D    
C30   C31   A    
C35   C40   A    
O6    V2    S    
O9    V2    S    
C72   C73   S    
C9    C11   A    
C5    H2    S    
O2    V1    S    
O17   V4    S    
O18   V4    S    
C26   C27   A    
C58   C61   A    
C41   H15   S    
C65   O16   A    
C28   C29   A    
C22   C23   A    
C73   H29   S    
H20   C63   S    
O1    C2    A    
O15   V3    S    
C76   H35   S    
O5    V1    S    
O13   V3    S    
O19   V4    S    
O8    C3    A    
C30   H12   S    
C29   C34   A    
C40   C47   A    
C39   C44   A    
C16   H5    S    
C31   H13   S    
V3    O20   S    
C39   C40   A    
C55   C57   A    
C43   C48   A    
O4    V1    S    
O3    V1    S    
V1    O10   S    
C26   H9    S    
C58   C59   A    
C20   C21   A    
O14   C66   A    
C27   C32   A    
C5    C10   A    
C2    C60   S    
C41   C42   A    
C79   O25   D    
C3    C20   S    
C36   C37   A    
C33   C68   S    
C70   O22   D    
O11   V4    S    
C34   H11   S    
C25   C69   S    
C38   C39   A    
C13   C18   A    
C46   C47   A    
C7    C8    A    
C57   C65   S    
C45   C50   A    
C9    C10   A    
C71   C72   S    
C57   C58   A    
O9    C4    A    
C50   H17   S    
C37   C70   S    
O7    V2    S    
C79   H44   S    
