data_mof_unit_63565.cif
_audit_creation_date              2012-10-26T20:35:27-0400
_audit_creation_method            fapswitch 2.2
_symmetry_space_group_name_H-M    P1
_symmetry_Int_Tables_number       1
_space_group_crystal_system       triclinic
_cell_length_a                    13.609637
_cell_length_b                    16.54521
_cell_length_c                    17.731195
_cell_angle_alpha                 90.53434
_cell_angle_beta                  94.411493
_cell_angle_gamma                 74.454285
_cell_volume                      3834.88665515

loop_
_atom_site_label
_atom_site_type_symbol
_atom_type_description
_atom_site_fract_x
_atom_site_fract_y
_atom_site_fract_z
_atom_type_partial_charge
C1    C     C_R   0.493923 0.501570 0.644660 0.584333
C2    C     C_R   0.810263 0.429109 0.480055 -0.022997
C3    C     C_R   0.472910 0.452229 0.148889 0.231205
C4    C     C_R   0.699504 0.455665 0.495343 0.582731
C5    C     C_R   0.469293 0.450021 0.227087 -0.147548
C6    C     C_R   0.520011 0.496515 0.274315 -0.047551
C7    C     C_R   0.582413 0.541216 0.242527 0.092086
C8    C     C_R   0.584148 0.545690 0.163253 0.264660
C9    C     C_R   0.530837 0.499621 0.117047 0.028532
C10   C     C_1   0.531567 0.502155 0.036344 0.080894
C11   C     C_1   0.525258 0.503176 0.968500 0.058570
C12   C     C_R   0.975491 0.462740 0.473094 -0.021058
C13   C     C_R   0.530978 0.426890 0.849132 0.072695
C14   C     C_R   0.512079 0.426738 0.770283 0.241406
C15   C     C_R   0.487979 0.503077 0.728388 -0.050599
C16   C     C_R   0.506622 0.498489 0.356019 0.565299
C17   C     C_R   0.457983 0.579358 0.768405 0.074243
C18   C     C_R   0.467557 0.578734 0.847889 0.261949
C19   C     C_R   0.511352 0.503092 0.887571 -0.035949
C20   C     C_R   0.424907 0.187938 0.451000 0.211064
C21   C     C_R   0.424395 0.274600 0.456237 0.392654
C22   C     C_R   0.575297 0.238082 0.540492 0.216914
C23   C     C_R   0.873552 0.484028 0.494080 -0.041170
C24   C     C_R   0.576790 0.151742 0.536764 0.027157
C25   C     C_R   0.498783 0.126783 0.494435 -0.031784
C26   C     C_1   0.491314 0.039210 0.497446 0.064146
C27   C     C_1   0.485937 0.966428 0.499511 0.018820
C28   C     C_R   0.300423 0.543981 0.497490 0.559197
C29   C     C_R   0.441893 0.841276 0.441879 -0.176098
C30   C     C_R   0.444668 0.755374 0.442968 0.225201
C31   C     C_R   0.542992 0.737436 0.560632 0.237273
C32   C     C_R   0.529418 0.825924 0.564926 0.073973
C33   C     C_R   0.484314 0.877630 0.502683 -0.048870
C34   C     C_R   0.030336 0.524906 0.480413 -0.063079
C35   C     C_R   0.023800 0.673809 0.479338 0.281751
C36   C     C_R   0.188019 0.568548 0.490259 -0.033634
C37   C     C_R   0.852739 0.351103 0.444736 0.135669
C38   C     C_R   0.957030 0.326314 0.431788 0.283372
C39   C     C_R   0.017024 0.382689 0.444097 -0.121282
C40   C     C_3   0.166759 0.761204 0.556643 0.022032
C41   C     C_3   0.229644 0.824753 0.560031 -0.338749
C42   C     C_3   0.597910 0.676167 0.131067 -0.008755
C43   C     C_3   0.532991 0.704136 0.057339 -0.362480
C44   C     C_3   0.414835 0.339642 0.733906 0.011353
C45   C     C_R   0.974731 0.609881 0.488174 0.014587
C46   C     C_3   0.414822 0.255319 0.699084 -0.318488
C47   C     C_3   0.335419 0.661384 0.908107 -0.007899
C48   C     C_3   0.285841 0.752821 0.925481 -0.342438
C49   C     C_3   0.383230 0.124349 0.342772 -0.029093
C50   C     C_3   0.298104 0.095815 0.299248 -0.375842
C51   C     C_3   0.318555 0.332489 0.349755 0.000042
C52   C     C_3   0.255423 0.418216 0.319905 -0.378604
C53   C     C_3   0.754089 0.739968 0.461061 0.031859
C54   C     C_3   0.724353 0.835403 0.463264 -0.327706
C55   C     C_3   0.978971 0.781031 0.391347 0.001406
C56   C     C_R   0.874001 0.626610 0.510046 0.299998
C57   C     C_3   0.988178 0.870780 0.391324 -0.354647
C58   C     C_3   0.078915 0.200014 0.446039 0.001133
C59   C     C_3   0.090717 0.107788 0.428823 -0.344525
C60   C     C_3   0.322559 0.452484 0.083904 -0.013898
C61   C     C_3   0.271511 0.404408 0.026865 -0.348526
C62   C     C_R   0.841799 0.558190 0.534284 0.141183
C63   C     C_R   0.136954 0.505359 0.483281 -0.200021
C64   C     C_R   0.131221 0.653608 0.487704 0.248984
Cu1   Cu    Cu3+1 0.500000 0.419580 0.500020 1.064730
Cu2   Cu    Cu3+1 0.500000 0.580420 0.499980 1.067683
H1    H     H_    0.425624 0.412472 0.250405 0.133065
H2    H     H_    0.659404 0.708941 0.135720 0.174972
H3    H     H_    0.550409 0.697340 0.179773 0.144631
H4    H     H_    0.465362 0.678567 0.054415 0.140768
H5    H     H_    0.505964 0.773679 0.054857 0.115053
H6    H     H_    0.578622 0.681776 0.008275 0.217111
H7    H     H_    0.358346 0.389665 0.699602 0.126426
H8    H     H_    0.389615 0.339748 0.792259 0.135241
H9    H     H_    0.476853 0.204607 0.727523 0.205232
H10   H     H_    0.340191 0.241925 0.705555 0.104268
H11   H     H_    0.425900 0.256704 0.637964 0.154496
H12   H     H_    0.402157 0.880742 0.394548 0.131409
H13   H     H_    0.338332 0.623093 0.959798 0.108614
H14   H     H_    0.285426 0.641740 0.862673 0.141869
H15   H     H_    0.279993 0.792304 0.874160 0.195847
H16   H     H_    0.207834 0.759531 0.943725 0.107140
H17   H     H_    0.331825 0.775131 0.971389 0.152859
H18   H     H_    0.448703 0.068057 0.354358 0.140099
H19   H     H_    0.408457 0.167752 0.305933 0.121455
H20   H     H_    0.229981 0.149963 0.287601 0.165013
H21   H     H_    0.324535 0.068040 0.244690 0.115508
H22   H     H_    0.276938 0.047543 0.332775 0.151283
H23   H     H_    0.181085 0.440571 0.485100 0.187272
H24   H     H_    0.270550 0.288988 0.336336 0.176269
H25   H     H_    0.390099 0.313093 0.320010 0.122004
H26   H     H_    0.294204 0.467391 0.336784 0.171308
H27   H     H_    0.244441 0.416904 0.257313 0.095221
H28   H     H_    0.178843 0.434387 0.342301 0.149534
H29   H     H_    0.684258 0.717592 0.460130 0.157145
H30   H     H_    0.789998 0.720962 0.406898 0.138111
H31   H     H_    0.789962 0.859818 0.452421 0.188076
H32   H     H_    0.661690 0.861309 0.419100 0.091660
H33   H     H_    0.699987 0.857566 0.519684 0.211018
H34   H     H_    0.093890 0.364458 0.426338 0.122175
H35   H     H_    0.909909 0.778706 0.354729 0.121829
H36   H     H_    0.046435 0.740958 0.364338 0.158203
H37   H     H_    0.059574 0.874155 0.424177 0.176337
H38   H     H_    0.990523 0.891824 0.332367 0.112270
H39   H     H_    0.922073 0.913789 0.416648 0.158151
H40   H     H_    0.066792 0.209022 0.507473 0.137366
H41   H     H_    0.150732 0.215661 0.434353 0.185363
H42   H     H_    0.098441 0.096565 0.367484 0.164846
H43   H     H_    0.159808 0.068536 0.461299 0.113647
H44   H     H_    0.022456 0.089278 0.444974 0.172539
H45   H     H_    0.192099 0.717577 0.606016 0.153487
H46   H     H_    0.321108 0.513661 0.057376 0.109427
H47   H     H_    0.277622 0.464432 0.134611 0.127493
H48   H     H_    0.270035 0.343434 0.051767 0.172121
H49   H     H_    0.191779 0.441532 0.010975 0.108669
H50   H     H_    0.314340 0.392688 0.975203 0.168674
H51   H     H_    0.085598 0.796426 0.561099 0.187552
H52   H     H_    0.216981 0.861738 0.612667 0.131473
H53   H     H_    0.311983 0.791810 0.559904 0.197121
H54   H     H_    0.207381 0.868257 0.510613 0.146865
I1    I     I_    0.686214 0.592372 0.311490 -0.391936
I2    I     I_    0.887125 0.527463 0.650590 -0.268926
I3    I     I_    0.585169 0.310145 0.908981 -0.250450
I4    I     I_    0.379694 0.696276 0.715276 -0.354231
I5    I     I_    0.685989 0.270028 0.619299 -0.127392
I6    I     I_    0.698217 0.056413 0.592989 -0.286027
I7    I     I_    0.344058 0.724957 0.356192 -0.361105
I8    I     I_    0.641077 0.666437 0.648689 -0.127278
I9    I     I_    0.573596 0.884734 0.665563 -0.228575
I10   I     I_    0.765495 0.268485 0.400440 -0.251367
N1    N     N_R   0.500030 0.298780 0.500030 -0.257424
N2    N     N_R   0.500020 0.701210 0.500010 -0.244548
O1    O     O_R   0.500010 0.432060 0.608760 -0.451572
O2    O     O_3   0.645067 0.588692 0.130891 -0.524369
O3    O     O_3   0.514134 0.351578 0.734958 -0.489948
O4    O     O_3   0.435576 0.653213 0.886454 -0.525557
O5    O     O_3   0.346401 0.164573 0.409952 -0.586387
O6    O     O_3   0.338827 0.336552 0.428727 -0.533417
O7    O     O_3   0.819480 0.707222 0.525809 -0.492670
O8    O     O_3   0.968059 0.756288 0.466120 -0.538464
O9    O     O_3   0.996491 0.249272 0.398925 -0.533701
O10   O     O_3   0.423581 0.404301 0.103733 -0.531800
O11   O     O_R   0.500000 0.567880 0.608730 -0.467808
O12   O     O_R   0.650990 0.398950 0.500000 -0.466134
O13   O     O_R   0.650980 0.534770 0.499970 -0.484539
O14   O     O_R   0.500000 0.432120 0.391270 -0.493186
O15   O     O_R   0.499990 0.567940 0.391240 -0.461257
O16   O     O_R   0.349020 0.465230 0.500030 -0.480127
O17   O     O_R   0.349010 0.601050 0.500000 -0.438161
O18   O     O_3   0.180264 0.717021 0.487936 -0.524721

loop_
_geom_bond_atom_site_label_1
_geom_bond_atom_site_label_2
_ccdc_geom_bond_type
C57   H39   S    
C43   H6    S    
C49   O5    S    
C47   O4    S    
C53   H29   S    
C2    C37   A    
C47   H13   S    
C5    H1    S    
C46   H10   S    
C7    C8    A    
C53   C54   S    
C27   C33   S    
C55   H36   S    
C11   C19   S    
C26   C27   T    
C37   C38   A    
C16   O15   A    
C60   H46   S    
C47   H14   S    
C49   H18   S    
C58   H41   S    
C51   H24   S    
C38   C39   A    
C13   I3    S    
C20   C25   A    
C29   C33   A    
C59   H44   S    
C37   I10   S    
C61   H48   S    
C16   O14   A    
C18   C19   A    
C32   I9    S    
Cu2   O13   S    
C60   O10   S    
C23   C62   A    
C21   N1    A    
C29   H12   S    
C47   C48   S    
C45   C56   A    
C8    C9    A    
C61   H49   S    
C54   H31   S    
C18   O4    S    
C35   C64   A    
C1    C15   S    
C41   H52   S    
C36   C63   A    
C9    C10   S    
C50   H22   S    
C51   H25   S    
C44   O3    S    
C40   H51   S    
C28   O17   A    
C13   C14   A    
C53   H30   S    
C24   I6    S    
C60   H47   S    
C3    O10   S    
C21   O6    S    
C7    I1    S    
C1    O1    A    
C46   H9    S    
Cu1   N1    S    
C44   C46   S    
C40   H45   S    
Cu2   N2    S    
C57   H37   S    
C28   O16   A    
C22   N1    A    
C13   C19   A    
C8    O2    S    
C51   C52   S    
C49   H19   S    
C44   H8    S    
C24   C25   A    
Cu2   O17   S    
Cu1   O12   S    
C22   I5    S    
Cu2   O11   S    
C25   C26   S    
C6    C16   S    
C42   H3    S    
C55   O8    S    
C64   O18   S    
C60   C61   S    
C58   H40   S    
C20   O5    S    
C2    C4    S    
C31   N2    A    
C1    O11   A    
C35   O8    S    
C17   I4    S    
C31   C32   A    
C12   C23   A    
C63   H23   S    
C61   H50   S    
C17   C18   A    
C40   O18   S    
C52   H27   S    
C34   C45   A    
C41   H53   S    
Cu1   O16   S    
C52   H28   S    
C3    C9    A    
Cu2   O15   S    
C50   H21   S    
C31   I8    S    
C40   C41   S    
Cu1   Cu2   S    
C43   H4    S    
C55   C57   S    
C38   O9    S    
C56   C62   A    
C54   H33   S    
C52   H26   S    
C42   C43   S    
C12   C34   A    
C35   C45   A    
C62   I2    S    
C56   O7    S    
C57   H38   S    
C30   I7    S    
C43   H5    S    
C53   O7    S    
C3    C5    A    
C4    O12   A    
C46   H11   S    
C15   C17   A    
C6    C7    A    
C55   H35   S    
C59   H42   S    
C48   H17   S    
C42   O2    S    
C32   C33   A    
C12   C39   A    
C48   H15   S    
C58   C59   S    
C58   O9    S    
C39   H34   S    
C5    C6    A    
C30   N2    A    
C4    O13   A    
C34   C63   A    
C59   H43   S    
C48   H16   S    
C22   C24   A    
C42   H2    S    
C41   H54   S    
C44   H7    S    
C10   C11   T    
C50   H20   S    
C29   C30   A    
C51   O6    S    
C20   C21   A    
C28   C36   S    
C49   C50   S    
C14   O3    S    
C2    C23   A    
C14   C15   A    
C54   H32   S    
Cu1   O14   S    
C36   C64   A    
Cu1   O1    S    
