data_mof_unit_10886.cif
_audit_creation_date              2012-12-11T14:49:47-0500
_audit_creation_method            fapswitch 2.2
_symmetry_space_group_name_H-M    P1
_symmetry_Int_Tables_number       1
_space_group_crystal_system       triclinic
_cell_length_a                    16.811273
_cell_length_b                    16.727439
_cell_length_c                    19.739337
_cell_angle_alpha                 116.611407
_cell_angle_beta                  63.467251
_cell_angle_gamma                 100.167142
_cell_volume                      4438.23546409

loop_
_atom_site_label
_atom_site_type_symbol
_atom_type_description
_atom_site_fract_x
_atom_site_fract_y
_atom_site_fract_z
_atom_type_partial_charge
C1    C     C_R   0.045351 0.757513 0.005151 0.043680
C2    C     C_R   0.251574 0.527024 0.830354 0.516471
C3    C     C_3   0.239306 0.482235 0.320543 -0.277146
C4    C     C_3   0.199322 0.518029 0.415373 -0.977071
C5    C     C_3   0.369471 0.793616 0.118575 0.176664
C6    C     C_3   0.273508 0.829656 0.170067 -0.297573
C7    C     C_3   0.266909 0.925288 0.235750 -0.994276
C8    C     C_1   0.990003 0.630367 0.301033 -0.029857
C9    C     C_3   0.968309 0.120054 0.243338 0.148867
C10   C     C_3   0.050072 0.059454 0.203224 -0.306092
C11   C     C_3   0.121430 0.108527 0.233628 -0.965288
C12   C     C_1   0.953480 0.663163 0.854980 0.018752
C13   C     C_R   0.180483 0.498025 0.093633 -0.055142
C14   C     C_R   0.759802 0.427994 0.166916 0.049256
C15   C     C_R   0.980321 0.343246 0.764902 -0.011904
C16   C     C_R   0.250782 0.554681 0.077388 0.064063
C17   C     C_R   0.933224 0.267473 0.766602 -0.044502
C18   C     C_R   0.258165 0.472467 0.749962 -0.329680
C19   C     C_R   0.024748 0.222950 0.009065 -0.024105
C20   C     C_R   0.998424 0.116333 0.672726 0.490906
C21   C     C_R   0.946559 0.187469 0.692260 -0.038224
C22   C     C_R   0.759281 0.459007 0.244170 0.013411
C23   C     C_R   0.917875 0.187892 0.636947 -0.305971
C24   C     C_R   0.941899 0.117601 0.558771 0.090949
C25   C     C_R   0.989085 0.042206 0.539999 -0.049737
C26   C     C_R   0.804743 0.560111 0.960101 -0.141175
C27   C     C_R   0.013784 0.039054 0.598744 -0.106323
C28   C     C_R   0.919808 0.120825 0.498957 0.054438
C29   C     C_R   0.942623 0.048729 0.421946 -0.279940
C30   C     C_R   0.986756 0.973907 0.404073 0.130216
C31   C     C_R   0.010860 0.969935 0.462505 0.055701
C32   C     C_R   0.054596 0.892613 0.443561 0.070863
C33   C     C_R   0.723390 0.545682 0.016145 0.074437
C34   C     C_R   0.076151 0.887702 0.502803 -0.029282
C35   C     C_R   0.054175 0.960053 0.581153 -0.041638
C36   C     C_R   0.003031 0.900747 0.329499 -0.242604
C37   C     C_R   0.041753 0.823778 0.313095 0.110511
C38   C     C_R   0.003678 0.665208 0.242110 0.094609
C39   C     C_R   0.070953 0.819873 0.367004 -0.230943
C40   C     C_R   0.389151 0.392954 0.625357 -0.323335
C41   C     C_R   0.333472 0.469028 0.676593 0.189389
C42   C     C_R   0.348078 0.543176 0.658681 -0.211897
C43   C     C_R   0.419026 0.541437 0.586864 0.088117
C44   C     C_R   0.041613 0.745389 0.242777 0.001809
C45   C     C_R   0.475218 0.464139 0.533190 0.024858
C46   C     C_R   0.460353 0.389606 0.552585 0.144879
C47   C     C_R   0.434027 0.615170 0.567581 -0.181960
C48   C     C_R   0.505157 0.612744 0.494905 -0.205578
C49   C     C_R   0.560975 0.536431 0.441437 0.135712
C50   C     C_R   0.738305 0.479973 0.033935 -0.108732
C51   C     C_R   0.546008 0.461439 0.460126 0.038459
C52   C     C_R   0.602059 0.383987 0.405736 0.135992
C53   C     C_R   0.586890 0.310277 0.425223 -0.192904
C54   C     C_R   0.516192 0.313177 0.498711 -0.205258
C55   C     C_R   0.244726 0.577007 0.020184 -0.091462
C56   C     C_R   0.632096 0.533808 0.369489 -0.261485
C57   C     C_R   0.686517 0.457399 0.316511 0.130268
C58   C     C_R   0.672516 0.382373 0.333051 -0.260511
C59   C     C_R   0.637630 0.590327 0.049079 -0.034258
C60   C     C_R   0.316577 0.589177 0.115280 -0.176477
C61   C     C_R   0.403398 0.561616 0.174201 -0.352324
C62   C     C_R   0.066621 0.743935 0.166376 -0.187478
C63   C     C_R   0.322488 0.556113 0.167878 0.523729
C64   C     C_R   0.384203 0.646333 0.088867 0.442220
C65   C     C_R   0.468468 0.637630 0.083008 -0.042233
C66   C     C_R   0.916736 0.265192 0.839858 0.145084
C67   C     C_R   0.478031 0.595410 0.126602 -0.099989
C68   C     C_R   0.563057 0.581992 0.116978 0.550845
C69   C     C_R   0.627775 0.636940 0.009109 -0.254658
C70   C     C_R   0.543918 0.664066 0.028801 -0.159502
C71   C     C_R   0.818189 0.165282 0.134262 0.073672
C72   C     C_R   0.971784 0.860758 0.984015 0.123592
C73   C     C_R   0.917924 0.954528 0.947148 -0.175226
C74   C     C_R   0.836411 0.502209 0.243621 -0.199343
C75   C     C_R   0.958710 0.875105 0.924772 -0.156376
C76   C     C_R   0.947720 0.929436 0.064928 -0.229055
C77   C     C_R   0.172386 0.457527 0.753447 0.484364
C78   C     C_R   0.907848 0.009999 0.087946 0.013100
C79   C     C_R   0.890429 0.021353 0.028900 0.118703
C80   C     C_R   0.844391 0.098613 0.053097 -0.246551
C81   C     C_R   0.837479 0.155597 0.192024 -0.375972
C82   C     C_R   0.883022 0.078647 0.169381 0.557760
C83   C     C_R   0.969959 0.688746 0.927519 0.039303
C84   C     C_R   0.000201 0.772001 0.967204 -0.057779
C85   C     C_1   0.115938 0.813155 0.021906 0.014129
C86   C     C_1   0.846706 0.215722 0.878443 0.041889
C87   C     C_3   0.187615 0.349643 0.622277 0.201777
C88   C     C_R   0.046984 0.307267 0.055925 0.530644
C89   C     C_3   0.233400 0.357562 0.539011 -0.247018
C90   C     C_3   0.278011 0.268994 0.467193 -1.016337
C91   C     C_3   0.013703 0.352158 0.191875 0.149463
C92   C     C_3   0.050134 0.364123 0.253919 -0.262476
C93   C     C_3   0.975774 0.383119 0.340526 -1.023250
C94   C     C_3   0.399207 0.524910 0.814351 0.213851
C95   C     C_3   0.390637 0.435706 0.821976 -0.372127
C96   C     C_3   0.480729 0.386859 0.775353 -0.954576
C97   C     C_1   0.971576 0.392317 0.724325 0.142356
C98   C     C_3   0.121497 0.158675 0.699637 0.163822
C99   C     C_R   0.972852 0.239432 0.977634 -0.265634
C100  C     C_3   0.158292 0.177598 0.763297 -0.216130
C101  C     C_3   0.249587 0.218999 0.740278 -1.073307
C102  C     C_1   0.874267 0.197034 0.514301 0.037821
C103  C     C_1   0.707536 0.355506 0.135033 0.041307
C104  C     C_1   0.118703 0.807626 0.484677 0.036051
C105  C     C_1   0.068001 0.949037 0.644194 0.169816
C106  C     C_3   0.566334 0.628820 0.243705 0.150451
C107  C     C_3   0.657919 0.669148 0.234916 -0.308991
C108  C     C_3   0.651801 0.751534 0.314078 -0.990342
C109  C     C_3   0.225617 0.549293 0.293062 0.145703
H1    H     H_    0.942538 0.188921 0.939668 0.165135
H2    H     H_    0.516491 0.670215 0.480434 0.126955
H3    H     H_    0.645759 0.590979 0.354371 0.138106
H4    H     H_    0.815790 0.605762 0.932717 0.114202
H5    H     H_    0.716705 0.324129 0.290013 0.130587
H6    H     H_    0.629692 0.250783 0.383836 0.139255
H7    H     H_    0.504920 0.255791 0.513282 0.135908
H8    H     H_    0.683755 0.648921 0.959636 0.147476
H9    H     H_    0.410158 0.530337 0.208910 0.188765
H10   H     H_    0.538293 0.696840 0.994566 0.164074
H11   H     H_    0.828074 0.107307 0.009573 0.141369
H12   H     H_    0.155260 0.477720 0.143895 0.187606
H13   H     H_    0.816411 0.207605 0.254860 0.142560
H14   H     H_    0.906651 0.963130 0.900836 0.134461
H15   H     H_    0.978878 0.824894 0.861373 0.135298
H16   H     H_    0.956230 0.918189 0.111250 0.159017
H17   H     H_    0.689823 0.448151 0.071004 0.170390
H18   H     H_    0.103343 0.794105 0.145945 0.126512
H19   H     H_    0.858379 0.526174 0.292713 0.138289
H20   H     H_    0.277635 0.629918 0.002329 0.222212
H21   H     H_    0.133174 0.301891 0.618801 0.098337
H22   H     H_    0.234012 0.319019 0.630878 0.078923
H23   H     H_    0.879633 0.245262 0.654549 0.161694
H24   H     H_    0.183227 0.378037 0.527084 0.200253
H25   H     H_    0.284272 0.409652 0.541440 0.212752
H26   H     H_    0.330060 0.248441 0.476857 0.273376
H27   H     H_    0.309843 0.276815 0.407730 0.277188
H28   H     H_    0.228009 0.215973 0.462501 0.266332
H29   H     H_    0.960174 0.302165 0.194887 0.105128
H30   H     H_    0.985312 0.417770 0.210424 0.103594
H31   H     H_    0.088453 0.302973 0.231754 0.206671
H32   H     H_    0.095490 0.421035 0.257879 0.218438
H33   H     H_    0.936410 0.444001 0.363934 0.279060
H34   H     H_    0.924248 0.050086 0.376318 0.159458
H35   H     H_    0.005032 0.393862 0.384372 0.279393
H36   H     H_    0.930720 0.325746 0.338712 0.260264
H37   H     H_    0.442954 0.567455 0.844755 0.141674
H38   H     H_    0.434963 0.516514 0.748938 0.120605
H39   H     H_    0.364035 0.448429 0.888531 0.220948
H40   H     H_    0.344656 0.391223 0.795835 0.202205
H41   H     H_    0.508223 0.371478 0.707982 0.267408
H42   H     H_    0.472772 0.323040 0.781949 0.273630
H43   H     H_    0.528118 0.428489 0.801441 0.267161
H44   H     H_    0.119832 0.222354 0.695520 0.083679
H45   H     H_    0.980107 0.901315 0.286297 0.132851
H46   H     H_    0.166769 0.109500 0.637639 0.099194
H47   H     H_    0.112212 0.224879 0.825599 0.208902
H48   H     H_    0.163404 0.114343 0.766816 0.205731
H49   H     H_    0.297356 0.173543 0.677847 0.274327
H50   H     H_    0.274966 0.230963 0.787104 0.284546
H51   H     H_    0.244499 0.283973 0.739801 0.253419
H52   H     H_    0.541518 0.605318 0.293949 0.136526
H53   H     H_    0.517198 0.681190 0.264552 0.094192
H54   H     H_    0.703726 0.618208 0.221382 0.213475
H55   H     H_    0.686303 0.689332 0.182370 0.203554
H56   H     H_    0.103109 0.758754 0.349812 0.132400
H57   H     H_    0.610671 0.805190 0.325456 0.268767
H58   H     H_    0.719493 0.776830 0.306819 0.278516
H59   H     H_    0.621727 0.734956 0.368824 0.255264
H60   H     H_    0.153550 0.566536 0.322509 0.138902
H61   H     H_    0.258721 0.613013 0.317449 0.093346
H62   H     H_    0.207933 0.418139 0.295398 0.209887
H63   H     H_    0.311348 0.467889 0.295558 0.195795
H64   H     H_    0.231786 0.580742 0.441911 0.271076
H65   H     H_    0.210011 0.467761 0.433049 0.265638
H66   H     H_    0.126672 0.531267 0.442083 0.273126
H67   H     H_    0.376219 0.336758 0.641847 0.143296
H68   H     H_    0.407634 0.833563 0.082419 0.131828
H69   H     H_    0.400984 0.803907 0.161072 0.088784
H70   H     H_    0.246869 0.828515 0.127422 0.209848
H71   H     H_    0.233119 0.785977 0.201457 0.202780
H72   H     H_    0.290372 0.927617 0.281017 0.266751
H73   H     H_    0.196574 0.949881 0.270156 0.279857
H74   H     H_    0.307461 0.970060 0.205707 0.267237
H75   H     H_    0.947408 0.154110 0.311873 0.143749
H76   H     H_    0.986881 0.173786 0.220558 0.095132
H77   H     H_    0.030319 0.000529 0.218399 0.205499
H78   H     H_    0.303398 0.601434 0.700456 0.141092
H79   H     H_    0.078311 0.035159 0.134375 0.203931
H80   H     H_    0.144070 0.166684 0.217464 0.264869
H81   H     H_    0.179355 0.062352 0.203225 0.274765
H82   H     H_    0.095159 0.131990 0.302254 0.267062
H83   H     H_    0.390865 0.674433 0.608613 0.135112
N1    N     N_R   0.036080 0.671900 0.995420 -0.066254
N2    N     N_R   0.867430 0.509300 0.948100 -0.045085
N3    N     N_R   0.003360 0.617250 0.167070 -0.062727
N4    N     N_R   0.825450 0.461270 0.995400 -0.057934
N5    N     N_R   0.045340 0.665280 0.119770 -0.045210
N6    N     N_R   0.883740 0.497640 0.167070 -0.055125
N7    N     N_R   0.987050 0.628910 0.948110 -0.067860
N8    N     N_R   0.174550 0.538730 0.004600 -0.062669
N9    N     N_1   0.173054 0.858179 0.034385 -0.093245
N10   N     N_1   0.790274 0.175891 0.909286 -0.091274
N11   N     N_1   0.964276 0.431410 0.691563 -0.072734
N12   N     N_R   0.954660 0.334720 0.880230 -0.082714
N13   N     N_1   0.837947 0.257951 0.526407 -0.083275
N14   N     N_1   0.665513 0.297131 0.109594 -0.075013
N15   N     N_1   0.152461 0.744062 0.470657 -0.105171
N16   N     N_1   0.078949 0.939799 0.694181 -0.090601
N17   N     N_1   0.979775 0.603259 0.348888 -0.101363
N18   N     N_1   0.940378 0.642603 0.796609 -0.080049
N19   N     N_R   0.116260 0.502360 0.832930 -0.113335
N20   N     N_R   0.012950 0.371090 0.051890 -0.107232
N21   N     N_R   0.963920 0.328100 0.004580 -0.069951
N22   N     N_R   0.165290 0.545350 0.880240 -0.114689
N23   N     N_R   0.132570 0.490700 0.051900 -0.070007
N24   N     N_R   0.996640 0.382750 0.832930 -0.077252
N25   N     N_R   0.834710 0.454650 0.119760 -0.063399
Ni1   Ni    Ni4+2 0.104370 0.604370 0.000010 0.222740
Ni2   Ni    Ni4+2 0.895630 0.395630 0.999990 0.202912
Ni3   Ni    Ni4+2 0.991920 0.505780 0.891500 0.229083
Ni4   Ni    Ni4+2 0.008080 0.494220 0.108500 0.199074
O1    O     O_3   0.149821 0.434019 0.687548 -0.651786
O2    O     O_3   0.083310 0.323186 0.110896 -0.667726
O3    O     O_3   0.317551 0.573658 0.855836 -0.672573
O4    O     O_3   0.035267 0.124454 0.725831 -0.671158
O5    O     O_3   0.572674 0.553749 0.169089 -0.689387
O6    O     O_3   0.253626 0.509786 0.205279 -0.674589
O7    O     O_3   0.371570 0.703541 0.060952 -0.684495
O8    O     O_3   0.896793 0.067630 0.228811 -0.671033

loop_
_geom_bond_atom_site_label_1
_geom_bond_atom_site_label_2
_ccdc_geom_bond_type
C42   H78   S    
C94   H37   S    
N2    N4    A    
C80   H11   S    
C25   C31   A    
C6    H70   S    
C2    C18   A    
N8    Ni1   S    
C41   C42   A    
C95   C96   S    
C103  N14   T    
C72   C76   A    
N4    Ni2   S    
C22   C57   S    
C81   C82   A    
C109  O6    S    
C36   H45   S    
C53   C54   A    
C56   C57   A    
C1    C84   A    
C40   C46   A    
N19   Ni3   S    
C17   C66   A    
C8    N17   T    
C60   C63   A    
C5    C6    S    
C87   H21   S    
C58   H5    S    
C28   C29   A    
C76   C78   A    
C9    H76   S    
C62   H18   S    
C68   O5    S    
C3    H63   S    
C104  N15   T    
C106  C107  S    
C45   C51   A    
C65   C70   A    
C96   H43   S    
N8    N23   A    
C90   H27   S    
C38   N3    A    
C3    C4    S    
C9    O8    S    
C34   C35   A    
C16   C60   S    
C106  H52   S    
C87   H22   S    
C47   H83   S    
C61   C63   A    
C61   C67   A    
C92   C93   S    
C13   N23   A    
C50   N4    A    
C100  H48   S    
C74   H19   S    
C74   N6    A    
C101  H51   S    
C49   C51   A    
C4    H66   S    
C54   H7    S    
C47   C48   A    
C10   H79   S    
C107  C108  S    
C106  O5    S    
C14   N25   A    
C93   H36   S    
C50   H17   S    
C9    C10   S    
C86   N10   T    
C85   N9    T    
C98   O4    S    
C66   N12   A    
C100  H47   S    
C108  H59   S    
C98   H44   S    
C33   C59   S    
C4    H65   S    
C94   O3    S    
C76   H16   S    
C73   C75   A    
C69   C70   A    
C8    C38   S    
C97   N11   T    
C72   C75   A    
N23   Ni4   S    
C71   C80   A    
C109  H60   S    
C15   C97   S    
C44   C62   A    
N20   Ni4   S    
C21   C23   A    
N21   Ni2   S    
N1    Ni1   S    
C89   H24   S    
C7    H72   S    
N12   Ni2   S    
C51   C52   A    
C87   O1    S    
N24   Ni3   S    
N6    Ni4   S    
C24   C25   A    
C19   C88   A    
N22   Ni1   S    
C18   C41   S    
C91   C92   S    
C40   H67   S    
C19   C99   A    
C78   C79   A    
N2    Ni3   S    
C99   N21   A    
C65   C67   A    
C33   C50   A    
N1    N7    A    
C96   H42   S    
C34   C104  S    
C20   O4    S    
C75   H15   S    
C12   C83   S    
C11   H80   S    
C32   C34   A    
C39   H56   S    
C1    N1    A    
C67   C68   A    
C38   C44   A    
C29   C30   A    
C35   C105  S    
C28   C102  S    
C59   C68   A    
C91   H29   S    
C13   H12   S    
C78   C82   A    
C26   C33   A    
C83   C84   A    
C70   H10   S    
C23   C24   A    
C96   H41   S    
C46   C54   A    
C2    O3    S    
C73   C79   A    
C88   O2    S    
C55   N8    A    
N20   N21   A    
C92   H32   S    
C43   C45   A    
C5    H68   S    
C72   C84   S    
C93   H35   S    
C52   C58   A    
C59   C69   A    
C95   H40   S    
C40   C41   A    
C108  H58   S    
C107  H54   S    
C101  H49   S    
C2    N22   A    
C98   C100  S    
C4    H64   S    
C87   C89   S    
C91   H30   S    
C1    C85   S    
N25   Ni2   S    
C42   C43   A    
C22   C74   A    
C91   O2    S    
N5    Ni1   S    
C92   H31   S    
C64   O7    S    
C90   H28   S    
C52   C53   A    
C105  N16   T    
N3    Ni4   S    
C94   H38   S    
C15   C17   A    
C108  H57   S    
C98   H46   S    
C36   C37   A    
C89   H25   S    
C7    H73   S    
C6    H71   S    
C61   H9    S    
N19   N22   A    
C82   O8    S    
C31   C32   A    
N7    Ni3   S    
C24   C28   A    
C62   N5    A    
C15   N24   A    
C66   C86   S    
C63   O6    S    
C6    C7    S    
C20   C27   A    
C30   C36   A    
C25   C27   A    
C49   C56   A    
N12   N24   A    
C5    O7    S    
C7    H74   S    
C81   H13   S    
C60   C64   A    
C11   H81   S    
C27   C35   A    
C64   C65   A    
C14   C22   A    
C37   C44   S    
C55   H20   S    
C16   C55   A    
C12   N18   T    
C73   H14   S    
C37   C39   A    
C9    H75   S    
C90   H26   S    
C99   H1    S    
C3    H62   S    
C57   C58   A    
C30   C31   A    
C43   C47   A    
C3    C109  S    
C18   C77   A    
C48   C49   A    
C109  H61   S    
C69   H8    S    
C100  C101  S    
C10   H77   S    
C23   H23   S    
C11   H82   S    
C106  H53   S    
C94   C95   S    
C102  N13   T    
C17   C21   S    
C5    H69   S    
C26   H4    S    
C10   C11   S    
C77   N19   A    
C79   C80   A    
N6    N25   A    
C45   C46   A    
C77   O1    S    
C48   H2    S    
C95   H39   S    
C107  H55   S    
C101  H50   S    
C29   H34   S    
C20   C21   A    
C88   N20   A    
C13   C16   A    
C32   C39   A    
C14   C103  S    
C71   C81   A    
C89   C90   S    
C83   N7    A    
C56   H3    S    
C93   H33   S    
C53   H6    S    
N3    N5    A    
C26   N2    A    
