data_mof_unit_18272.cif
_audit_creation_date              2013-03-05T15:40:43-0500
_audit_creation_method            fapswitch 2.2
_symmetry_space_group_name_H-M    P1
_symmetry_Int_Tables_number       1
_space_group_crystal_system       triclinic
_cell_length_a                    15.177152
_cell_length_b                    14.773761
_cell_length_c                    14.900205
_cell_angle_alpha                 109.413286
_cell_angle_beta                  109.470393
_cell_angle_gamma                 108.558756
_cell_volume                      2602.10135606

loop_
_atom_site_label
_atom_site_type_symbol
_atom_site_description
_atom_site_fract_x
_atom_site_fract_y
_atom_site_fract_z
_atom_type_partial_charge
C1    C     C_R   0.016749 0.809835 0.105212 0.050743
H1    H     H_    0.006035 0.844830 0.173821 0.207914
N1    N     N_R   0.993980 0.704500 0.053430 -0.076648
C2    C     C_R   0.785971 0.207664 0.693040 -0.046376
H2    H     H_    0.809036 0.178691 0.632557 0.168148
N2    N     N_R   0.850110 0.295520 0.792970 -0.056332
C3    C     C_R   0.024885 0.593279 0.779453 0.048081
H3    H     H_    0.053936 0.678422 0.800862 0.162297
N3    N     N_R   0.053690 0.556380 0.849240 -0.066488
C4    C     C_R   0.686959 0.411676 0.941812 -0.171621
H4    H     H_    0.625883 0.327716 0.898686 0.127213
N4    N     N_R   0.790390 0.443640 0.997160 -0.069923
C5    C     C_R   0.936649 0.410632 0.687836 -0.035499
H5    H     H_    0.885270 0.326800 0.624159 0.115710
N5    N     N_R   0.998260 0.443670 0.792970 -0.044112
C6    C     C_R   0.776898 0.593278 0.029387 0.363673
N6    N     N_R   0.845830 0.556350 0.053430 -0.099932
C7    C     C_R   0.696228 0.209477 0.785425 -0.138881
H6    H     H_    0.638174 0.182570 0.810433 0.122691
N7    N     N_R   0.792820 0.295510 0.849240 -0.043211
C8    C     C_R   0.097999 0.803668 0.007846 -0.076358
H7    H     H_    0.156123 0.825735 0.982171 0.200297
N8    N     N_R   0.051260 0.704510 0.997160 -0.082967
C9    C     C_R   0.081555 0.873079 0.079614 0.082639
C10   C     C_R   0.688319 0.156874 0.685533 0.022563
C11   C     C_R   0.949186 0.503242 0.677513 -0.086415
C12   C     C_R   0.674413 0.504974 0.957793 0.033221
C13   C     C_R   0.015155 0.587746 0.308755 0.335930
N9    N     N_R   0.001740 0.556330 0.207030 -0.100740
C14   C     C_R   0.200697 0.405949 0.892880 0.315805
N10   N     N_R   0.154170 0.443650 0.946570 -0.119548
C15   C     C_R   0.297797 0.799558 0.209089 -0.042058
H8    H     H_    0.349507 0.830360 0.179456 0.209465
N11   N     N_R   0.207180 0.704490 0.150760 -0.081809
C16   C     C_R   0.963670 0.237672 0.053425 -0.087054
H9    H     H_    0.925382 0.217975 0.098732 0.123412
N12   N     N_R   0.948740 0.295490 0.002840 -0.056845
C17   C     C_R   0.061629 0.244195 0.969384 -0.032170
H10   H     H_    0.115748 0.233599 0.940887 0.177866
N13   N     N_R   0.006020 0.295500 0.946570 -0.057834
C18   C     C_R   0.205620 0.802389 0.297736 0.395205
N14   N     N_R   0.149890 0.704480 0.207030 -0.104420
C19   C     C_R   0.926449 0.405874 0.215487 -0.165546
H11   H     H_    0.871340 0.322403 0.187983 0.132678
N15   N     N_R   0.946310 0.443620 0.150760 -0.068258
C20   C     C_R   0.290446 0.587296 0.983866 0.286518
N16   N     N_R   0.209610 0.556360 0.002840 -0.101971
Ni1   Ni    Ni4+2 0.997880 0.629240 0.129060 0.316831
Ni2   Ni    Ni4+2 0.002120 0.370760 0.870940 0.320480
Ni3   Ni    Ni4+2 0.129260 0.629260 0.000000 0.289348
Ni4   Ni    Ni4+2 0.870740 0.370740 0.000000 0.230597
C21   C     C_R   0.971531 0.494629 0.316284 -0.035904
C22   C     C_R   0.285909 0.494701 0.909613 -0.083212
C23   C     C_R   0.299054 0.861103 0.301664 -0.047947
C24   C     C_R   0.036601 0.207928 0.036655 0.132575
C25   C     C_3   0.475008 0.395800 0.827538 0.031019
H12   H     H_    0.478178 0.324083 0.833740 0.088321
C26   C     C_3   0.365025 0.381291 0.819211 0.113226
H13   H     H_    0.341667 0.321268 0.846588 0.171976
H14   H     H_    0.544034 0.421383 0.028775 0.217440
C27   C     C_3   0.553490 0.500295 0.031538 -0.487563
C28   C     C_3   0.563051 0.608524 0.930296 0.218970
C29   C     C_3   0.569903 0.504926 0.936104 -0.049584
H15   H     H_    0.595734 0.628975 0.879243 0.209268
C30   C     C_3   0.382588 0.491657 0.905381 -0.207184
C31   C     C_3   0.455489 0.513101 0.023900 0.133329
C32   C     C_3   0.445486 0.585328 0.886746 0.045171
H16   H     H_    0.448638 0.661149 0.934602 0.203107
H17   H     H_    0.624503 0.565956 0.112023 0.247439
H18   H     H_    0.485568 0.599940 0.082677 0.201012
C33   C     C_2   0.399511 0.005026 0.486156 0.068542
C34   C     C_2   0.381007 0.971887 0.384021 -0.030707
H19   H     H_    0.346516 0.959185 0.507473 0.191544
H20   H     H_    0.439399 0.016675 0.366647 0.174651
C35   C     C_2   0.503734 0.087843 0.575151 -0.312828
C36   C     C_2   0.589640 0.074399 0.587616 0.450450
H21   H     H_    0.508302 0.156409 0.637480 0.184665
C37   C     C_2   0.849050 0.416670 0.479571 -0.217529
C38   C     C_2   0.897967 0.506966 0.577233 0.465148
H22   H     H_    0.823731 0.335868 0.471873 0.133332
C39   C     C_2   0.858433 0.423526 0.387193 -0.036906
C40   C     C_2   0.952760 0.492443 0.404917 -0.032435
H23   H     H_    0.793484 0.363138 0.304879 0.147691
H24   H     H_    0.019234 0.549477 0.487242 0.195040
C41   C     C_2   0.163995 0.142512 0.089840 -0.136743
C42   C     C_2   0.071113 0.140798 0.075125 -0.217496
H25   H     H_    0.218687 0.199766 0.078239 0.210338
H26   H     H_    0.013531 0.083754 0.084006 0.164755
C43   C     C_2   0.184920 0.055034 0.101205 0.521861
C44   C     C_2   0.129042 0.992668 0.131706 -0.266830
H27   H     H_    0.094996 0.025774 0.179050 0.155394
N17   N     N_R   0.141810 0.298954 0.798826 0.246536
O1    O     O_R   0.052622 0.272384 0.718387 -0.356266
O2    O     O_R   0.163614 0.221588 0.802610 -0.342746
Cl1   Cl    Cl    0.146615 0.867826 0.359171 -0.554509
N18   N     N_R   0.348349 0.697977 0.010066 0.214160
O3    O     O_R   0.443103 0.761825 0.095282 -0.353423
O4    O     O_R   0.300125 0.739858 0.960728 -0.369934
N19   N     N_R   0.482583 0.386757 0.728855 0.281449
O5    O     O_R   0.564770 0.459184 0.736201 -0.343633
O6    O     O_R   0.423058 0.293179 0.638833 -0.309758
N20   N     N_R   0.279005 0.330421 0.705973 0.299556
O7    O     O_R   0.241514 0.226845 0.641195 -0.233399
O8    O     O_R   0.222671 0.376136 0.676887 -0.277050
N21   N     N_R   0.399284 0.446334 0.061839 0.240993
O9    O     O_R   0.367664 0.341764 0.019777 -0.377494
O10   O     O_R   0.388600 0.494089 0.145275 -0.352427
Cl2   Cl    Cl    0.634552 0.733420 0.061434 -0.470588
N22   N     N_R   0.393048 0.567379 0.774977 0.278079
O11   O     O_R   0.316213 0.591440 0.747471 -0.282503
O12   O     O_R   0.434602 0.551165 0.711584 -0.286174
Cl3   Cl    Cl    0.588053 0.961884 0.493593 -0.537342
Cl4   Cl    Cl    0.918063 0.635624 0.587070 -0.493856
Cl5   Cl    Cl    0.276801 0.031438 0.062729 -0.554129
N23   N     N_R   0.807866 0.706048 0.072980 0.230074
O13   O     O_R   0.801273 0.749459 0.009479 -0.374256
O14   O     O_R   0.847040 0.766844 0.177379 -0.276346
N24   N     N_R   0.020861 0.687221 0.374043 0.265232
O15   O     O_R   0.945839 0.709620 0.332956 -0.267964
O16   O     O_R   0.082077 0.738676 0.479467 -0.281990

loop_
_geom_bond_atom_site_label_1
_geom_bond_atom_site_label_2
_geom_bond_distance
_ccdc_geom_bond_type
C4    C12   1.404256 A    
C17   N13   1.337765 A    
C18   N14   1.339369 A    
N1    N8    1.394504 A    
C16   H9    1.078214 S    
N11   N14   1.394632 A    
N6    Ni1   1.905979 S    
C35   C36   1.342309 D    
C2    C10   1.377647 A    
C3    H3    1.079299 S    
C18   Cl1   1.756081 S    
C41   C42   1.342933 D    
N21   O10   1.301452 A    
C3    C11   1.384641 A    
C28   C32   1.553483 S    
C13   N9    1.349352 A    
C16   N12   1.336580 A    
C7    H6    1.080551 S    
N12   N13   1.394505 A    
N22   O12   1.300087 A    
C14   N10   1.334026 A    
N12   Ni4   1.864078 S    
C42   H26   1.083466 S    
C19   C21   1.370367 A    
C28   Cl2   1.820833 S    
N15   Ni4   1.846456 S    
N13   Ni2   1.827574 S    
N1    Ni1   1.827574 S    
C25   H12   1.108166 S    
C1    H1    1.073209 S    
C27   C29   1.542307 S    
N24   O15   1.300228 A    
C28   H15   1.106760 S    
C43   Cl5   1.761915 S    
C27   C31   1.530253 S    
C32   N22   1.471634 S    
C17   C24   1.384679 A    
C6    N6    1.328118 A    
N23   O14   1.301827 A    
N18   O4    1.300350 A    
N4    N6    1.376021 A    
C26   N20   1.476540 S    
C22   C30   1.503596 S    
C7    N7    1.322879 A    
C6    C12   1.391513 A    
N10   N16   1.376023 A    
C8    H7    1.075004 S    
C7    C10   1.373424 A    
N10   Ni2   1.905979 S    
C15   C23   1.366558 A    
C39   H23   1.085702 S    
C39   C40   1.340631 D    
N16   Ni3   1.865695 S    
C41   H25   1.086403 S    
C17   H10   1.072211 S    
C14   C22   1.393648 A    
N11   Ni3   1.847327 S    
N9    Ni1   1.827589 S    
C16   C24   1.379036 A    
C32   H16   1.085206 S    
C34   H20   1.088014 S    
C33   H19   1.083062 S    
C41   C43   1.473312 S    
C37   C38   1.344331 D    
N8    Ni3   1.864077 S    
C30   C32   1.579469 S    
C26   H13   1.102348 S    
N9    N15   1.376019 A    
H14   C27   1.113132 S    
C1    N1    1.348413 A    
C15   N11   1.334772 A    
N20   O8    1.300037 A    
C19   H11   1.080381 S    
C28   C29   1.595057 S    
C19   N15   1.332783 A    
C26   C30   1.575338 S    
N19   O5    1.301677 A    
C5    N5    1.338384 A    
C36   Cl3   1.769278 S    
N18   O3    1.301204 A    
N17   O2    1.300105 A    
C25   C29   1.589161 S    
C20   N18   1.425025 S    
N14   Ni1   1.905317 S    
C21   C40   1.449005 S    
C35   H21   1.086467 S    
C4    N4    1.331754 A    
C2    N2    1.339434 A    
N19   O6    1.300417 A    
C40   H24   1.085956 S    
C8    N8    1.335200 A    
C5    C11   1.387629 A    
C31   N21   1.475378 S    
C6    N23   1.413203 S    
N4    Ni4   1.865694 S    
C27   H17   1.113689 S    
C3    N3    1.339791 A    
C20   N16   1.324464 A    
N3    Ni3   1.846457 S    
C2    H2    1.080368 S    
C9    C44   1.465706 S    
N7    Ni4   1.847328 S    
N2    N7    1.394632 A    
N21   O9    1.301434 A    
C11   C38   1.465419 S    
C10   C36   1.433967 S    
C15   H8    1.074788 S    
C24   C42   1.447406 S    
C38   Cl4   1.772958 S    
N3    N5    1.376019 A    
C33   C34   1.329212 D    
C13   N24   1.423411 S    
N22   O11   1.302424 A    
C33   C35   1.431334 S    
C13   C21   1.384122 A    
C37   C39   1.462651 S    
C44   H27   1.085530 S    
C31   H18   1.111338 S    
C20   C22   1.408306 A    
N17   O1    1.300142 A    
C25   C26   1.569751 S    
C37   H22   1.083259 S    
N5    Ni2   1.827589 S    
N2    Ni2   1.905317 S    
N20   O7    1.301811 A    
N24   O16   1.300877 A    
C18   C23   1.376470 A    
C4    H4    1.073275 S    
C23   C34   1.443327 S    
C1    C9    1.374016 A    
C30   C31   1.595486 S    
C8    C9    1.367204 A    
C12   C29   1.509232 S    
C25   N19   1.478179 S    
C43   C44   1.346339 D    
C5    H5    1.073801 S    
N23   O13   1.302957 A    
C14   N17   1.433369 S    
