data_mof_unit_25532.cif
_audit_creation_date              2013-03-05T16:06:01-0500
_audit_creation_method            fapswitch 2.2
_symmetry_space_group_name_H-M    P1
_symmetry_Int_Tables_number       1
_space_group_crystal_system       triclinic
_cell_length_a                    10.804211
_cell_length_b                    9.505366
_cell_length_c                    23.561489
_cell_angle_alpha                 90.121797
_cell_angle_beta                  90.380238
_cell_angle_gamma                 89.955132
_cell_volume                      2419.6578569

loop_
_atom_site_label
_atom_site_type_symbol
_atom_site_description
_atom_site_fract_x
_atom_site_fract_y
_atom_site_fract_z
_atom_type_partial_charge
O1    O     O_R   0.319640 0.618740 0.500000 -0.568731
O2    O     O_R   0.680360 0.381260 0.500000 -0.563085
O3    O     O_R   0.680360 0.618740 0.500000 -0.569120
O4    O     O_R   0.319640 0.381260 0.500000 -0.564805
C1    C     C_R   0.262360 0.500111 0.499623 0.938218
C2    C     C_R   0.737674 0.499857 0.500221 0.941256
O5    O     O_R   0.499960 0.618810 0.417880 -0.588675
O6    O     O_R   0.500040 0.381190 0.582120 -0.598613
O7    O     O_R   0.500040 0.618810 0.582120 -0.556673
O8    O     O_R   0.499960 0.381190 0.417880 -0.561568
C3    C     C_R   0.496619 0.499816 0.390933 0.902118
C4    C     C_R   0.502316 0.500294 0.609294 0.923194
Cu1   Cu    Cu3+1 0.500000 0.640660 0.500000 1.055102
Cu2   Cu    Cu3+1 0.500000 0.359340 0.500000 1.048564
C5    C     C_R   0.609853 0.501323 0.881696 0.614133
C6    C     C_R   0.389551 0.457744 0.119098 0.613541
N1    N     N_R   0.501076 0.480065 0.852738 -0.455514
N2    N     N_R   0.497507 0.484057 0.148034 -0.456190
C7    C     C_R   0.392015 0.456956 0.880460 0.611600
C8    C     C_R   0.606472 0.507556 0.120280 0.614456
C9    C     C_R   0.389407 0.454779 0.939967 -0.027890
C10   C     C_R   0.609887 0.504722 0.060795 -0.026633
C11   C     C_R   0.500183 0.478238 0.970448 -0.006976
C12   C     C_R   0.499443 0.479254 0.030329 -0.006584
C13   C     C_R   0.611569 0.501543 0.941196 -0.029655
C14   C     C_R   0.388131 0.455569 0.059592 -0.031298
C15   C     C_R   0.279012 0.430924 0.969589 -0.125756
C16   C     C_R   0.720494 0.527328 0.031182 -0.122323
C17   C     C_R   0.278435 0.430987 0.028800 -0.125883
C18   C     C_R   0.721383 0.525419 0.971984 -0.124880
O9    O     O_2   0.715691 0.522623 0.852870 -0.474156
O10   O     O_2   0.284152 0.433969 0.147943 -0.468309
O11   O     O_2   0.286637 0.436973 0.850470 -0.477707
O12   O     O_2   0.710822 0.533900 0.150230 -0.474838
H1    H     H_    0.192710 0.412418 0.947150 0.199828
H2    H     H_    0.806643 0.546757 0.053617 0.199795
H3    H     H_    0.191698 0.412489 0.050321 0.199948
H4    H     H_    0.808192 0.543504 0.950467 0.198386
C19   C     C_R   0.542221 0.373954 0.240649 0.353034
C20   C     C_R   0.497429 0.360775 0.759585 0.356959
C21   C     C_R   0.541437 0.381400 0.299904 -0.235830
C22   C     C_R   0.497263 0.369440 0.700323 -0.296885
H5    H     H_    0.579335 0.294545 0.324143 0.243675
H6    H     H_    0.492656 0.272917 0.675907 0.229596
C23   C     C_R   0.491753 0.497941 0.328333 -0.265160
C24   C     C_R   0.505453 0.499326 0.672279 -0.252076
C25   C     C_R   0.440012 0.609966 0.296459 0.416924
C26   C     C_R   0.513632 0.624354 0.705059 0.442684
C27   C     C_R   0.447048 0.608277 0.237183 0.440176
C28   C     C_R   0.506262 0.618306 0.764239 0.427380
C29   C     C_R   0.495874 0.488739 0.208950 0.028466
C30   C     C_R   0.501164 0.486138 0.791849 0.032270
C31   C     C_R   0.063750 0.414127 0.460632 0.228954
C32   C     C_R   0.936360 0.585488 0.539150 0.240562
C33   C     C_R   0.934591 0.413196 0.461501 0.235302
C34   C     C_R   0.065496 0.586647 0.538301 0.228323
C35   C     C_R   0.871597 0.499201 0.500487 -0.342951
C36   C     C_R   0.128502 0.500653 0.499278 -0.346614
C37   C     C_R   0.421626 0.074363 0.465208 0.042971
C38   C     C_R   0.578541 0.925679 0.534696 0.057460
C39   C     C_R   0.578473 0.074584 0.534749 0.045817
C40   C     C_R   0.421447 0.925448 0.465289 0.061284
H7    H     H_    0.359094 0.130508 0.437282 0.182276
H8    H     H_    0.641473 0.869607 0.562405 0.166682
H9    H     H_    0.641285 0.130885 0.562583 0.148728
H10   H     H_    0.358439 0.869207 0.437560 0.150998
N3    N     N_R   0.500000 0.852070 0.500000 -0.189512
N4    N     N_R   0.500000 0.147930 0.500000 -0.192399
N5    N     N_R   0.590684 0.249759 0.213445 0.173864
O13   O     O_R   0.547024 0.207289 0.164753 -0.305907
O14   O     O_R   0.671165 0.170956 0.239719 -0.260524
N6    N     N_R   0.493598 0.224297 0.786166 0.173116
O15   O     O_R   0.545466 0.203116 0.835405 -0.303426
O16   O     O_R   0.447490 0.116941 0.758950 -0.254100
O17   O     O_3   0.380275 0.722259 0.321447 -0.628143
H11   H     H_    0.335876 0.687307 0.355227 0.332138
O18   O     O_3   0.527801 0.754937 0.680825 -0.605520
H12   H     H_    0.599172 0.748217 0.654815 0.351688
O19   O     O_3   0.402012 0.724394 0.208395 -0.606180
H13   H     H_    0.423811 0.718097 0.167776 0.334303
O20   O     O_3   0.507565 0.744522 0.793579 -0.593154
H14   H     H_    0.488818 0.728318 0.834059 0.335110
N7    N     N_R   0.128526 0.334375 0.418237 0.156944
O21   O     O_R   0.107475 0.200502 0.411989 -0.271368
O22   O     O_R   0.206372 0.396379 0.384644 -0.373714
N8    N     N_R   0.871539 0.663098 0.582080 0.150832
O23   O     O_R   0.886636 0.798414 0.587024 -0.287093
O24   O     O_R   0.798227 0.598024 0.616858 -0.389000
N9    N     N_R   0.867307 0.333333 0.419868 0.176162
O25   O     O_R   0.810515 0.397611 0.378541 -0.332652
O26   O     O_R   0.849530 0.199330 0.427356 -0.266933
N10   N     N_R   0.132703 0.666688 0.579968 0.178923
O27   O     O_R   0.196753 0.602389 0.619043 -0.323020
O28   O     O_R   0.142253 0.802513 0.574671 -0.255715

loop_
_geom_bond_atom_site_label_1
_geom_bond_atom_site_label_2
_geom_bond_distance
_ccdc_geom_bond_type
C19   C29   1.413028 A    
C15   C17   1.395144 A    
O3    C2    1.288151 A    
O20   H14   0.988765 S    
C25   C27   1.399271 A    
O18   H12   0.990096 S    
O5    C3    1.296327 A    
C1    C36   1.446201 S    
O1    C1    1.286684 A    
C7    C9    1.402736 A    
C12   C14   1.408715 A    
N8    O24   1.301149 A    
C5    C13   1.401891 A    
C18   H4    1.083140 S    
C22   C24   1.404668 A    
C23   C25   1.416787 A    
N5    O14   1.301624 A    
O7    Cu1   1.946421 S    
C38   N3    1.366467 A    
C27   C29   1.418578 A    
C28   C30   1.417251 A    
C11   C12   1.410974 A    
N9    O26   1.300865 A    
O3    Cu1   1.959592 S    
C8    O12   1.349392 S    
C26   C28   1.398472 A    
C9    C15   1.404742 A    
C10   C16   1.404693 A    
Cu1   Cu2   2.674050 S    
C21   H5    1.083416 S    
C2    C35   1.446912 S    
O2    C2    1.286594 A    
C22   H6    1.082897 S    
N1    C30   1.435902 S    
N2    C29   1.436101 S    
C24   C26   1.418475 A    
C31   C33   1.395781 A    
C9    C11   1.409352 A    
C6    C14   1.402145 A    
C32   C34   1.395544 A    
C40   H10   1.081326 S    
N6    O16   1.301711 A    
C7    O11   1.349340 S    
C32   N8    1.436402 S    
N8    O23   1.301531 A    
N6    O15   1.301053 A    
C15   H1    1.083138 S    
C20   C30   1.412560 A    
C27   O19   1.383121 S    
C38   C39   1.415391 A    
C26   O18   1.376447 S    
O17   H11   0.990166 S    
C37   N4    1.366486 A    
N7    O21   1.300735 A    
O5    Cu1   1.945543 S    
O6    C4    1.299615 A    
N10   O28   1.301592 A    
C19   N5    1.441835 S    
C16   H2    1.083139 S    
C40   N3    1.366714 A    
C4    C24   1.484230 S    
N7    O22   1.301081 A    
C8    C10   1.402496 A    
C33   C35   1.406961 A    
O8    Cu2   1.946421 S    
C10   C12   1.409289 A    
C3    C23   1.475596 S    
O1    Cu1   1.959917 S    
Cu1   N3    2.009529 S    
C13   C18   1.404886 A    
C5    N1    1.369941 A    
C37   C40   1.415501 A    
O6    Cu2   1.945543 S    
C20   N6    1.442480 S    
O4    C1    1.287724 A    
C31   C36   1.408647 A    
C5    O9    1.349501 S    
C6    O10   1.349463 S    
C37   H7    1.081311 S    
C31   N7    1.437867 S    
C38   H8    1.080566 S    
C16   C18   1.394957 A    
C25   O17   1.379774 S    
C33   N9    1.433601 S    
C21   C23   1.401670 A    
C39   N4    1.366566 A    
C20   C22   1.398892 A    
N10   O27   1.301277 A    
N1    C7    1.369148 A    
C34   C36   1.407528 A    
N2    C8    1.369213 A    
C11   C13   1.408702 A    
O4    Cu2   1.959593 S    
N5    O13   1.301078 A    
O2    Cu2   1.959916 S    
O7    C4    1.297096 A    
O8    C3    1.295589 A    
O19   H13   0.988795 S    
C39   H9    1.081757 S    
C34   N10   1.434608 S    
C19   C21   1.397855 A    
C14   C17   1.404958 A    
C6    N2    1.370028 A    
C17   H3    1.083136 S    
Cu2   N4    2.009530 S    
N9    O25   1.300742 A    
C28   O20   1.383401 S    
C32   C35   1.407622 A    
