data_mof_unit_58864.cif
_audit_creation_date              2012-12-10T17:16:43-0500
_audit_creation_method            fapswitch 2.2
_symmetry_space_group_name_H-M    P1
_symmetry_Int_Tables_number       1
_space_group_crystal_system       triclinic
_cell_length_a                    10.131702
_cell_length_b                    10.714439
_cell_length_c                    10.891978
_cell_angle_alpha                 90.03653
_cell_angle_beta                  94.950588
_cell_angle_gamma                 81.882163
_cell_volume                      1166.08972132

loop_
_atom_site_label
_atom_site_type_symbol
_atom_type_description
_atom_site_fract_x
_atom_site_fract_y
_atom_site_fract_z
_atom_type_partial_charge
C1    C     C_R   0.444141 0.508644 0.267872 0.910241
C2    C     C_R   0.501050 0.739203 0.500081 0.869012
C3    C     C_R   0.569694 0.120847 0.287424 -0.247544
C4    C     C_R   0.421266 0.880844 0.710192 -0.274594
C5    C     C_R   0.615607 0.051014 0.187586 0.526078
C6    C     C_R   0.371827 0.951428 0.808180 0.432359
C7    C     C_R   0.625235 0.920520 0.191295 -0.141550
C8    C     C_R   0.370887 0.081213 0.807745 -0.115213
C9    C     C_R   0.584985 0.860528 0.292013 -0.187673
C10   C     C_R   0.417162 0.139978 0.709356 -0.225862
C11   C     C_R   0.542887 0.929589 0.396557 0.066064
C12   C     C_R   0.555865 0.491796 0.732132 0.908639
C13   C     C_R   0.457633 0.070773 0.604372 0.059060
C14   C     C_R   0.537346 0.060633 0.394961 0.006915
C15   C     C_R   0.460297 0.940029 0.604969 0.031329
C16   C     C_R   0.503250 0.871425 0.501176 -0.130844
C17   C     C_R   0.496856 0.128808 0.499623 -0.128863
C18   C     C_2   0.412441 0.514074 0.136708 -0.266247
C19   C     C_2   0.587575 0.487932 0.863303 -0.344584
C20   C     C_2   0.513413 0.501311 0.065364 -0.049042
C21   C     C_2   0.486628 0.504065 0.934637 -0.077553
C22   C     C_2   0.072857 0.489914 0.490033 -0.107706
C23   C     C_2   0.927143 0.510083 0.509974 -0.110919
C24   C     C_R   0.499087 0.260875 0.500476 0.864686
H1    H     H_    0.335154 0.137310 0.883917 0.208456
H2    H     H_    0.308582 0.527984 0.098526 0.174260
H3    H     H_    0.890842 0.578090 0.577524 0.173598
H4    H     H_    0.109157 0.421904 0.422485 0.174307
H5    H     H_    0.880225 0.384731 0.385367 0.190205
H6    H     H_    0.119784 0.615274 0.614635 0.193400
H7    H     H_    0.704175 0.075969 0.872255 0.387377
H8    H     H_    0.508956 0.768221 0.958599 0.331415
H9    H     H_    0.661271 0.864781 0.115051 0.198022
H10   H     H_    0.559012 0.222309 0.278792 0.178016
H11   H     H_    0.427669 0.779682 0.718100 0.170324
H12   H     H_    0.587152 0.759803 0.285298 0.185364
H13   H     H_    0.419379 0.240107 0.717228 0.186723
H14   H     H_    0.382519 0.519533 0.896948 0.206058
H15   H     H_    0.617541 0.487591 0.103047 0.192432
H16   H     H_    0.691416 0.472339 0.901485 0.179113
N1    N     N_2   0.157300 0.551390 0.551120 -0.190089
N2    N     N_2   0.842700 0.448610 0.448880 -0.191729
O1    O     O_R   0.568940 0.489660 0.307530 -0.624947
O2    O     O_2   0.772751 0.198980 0.093655 -0.292331
O3    O     O_3   0.700682 0.024040 0.946812 -0.559101
O4    O     O_2   0.238187 0.971051 0.011449 -0.239714
O5    O     O_2   0.217390 0.787644 0.879987 -0.296651
O6    O     O_3   0.439188 0.791743 0.016036 -0.558100
O7    O     O_R   0.431060 0.510340 0.692470 -0.621065
O8    O     O_R   0.348880 0.522640 0.340350 -0.598384
O9    O     O_R   0.651120 0.477360 0.659650 -0.601654
O10   O     O_R   0.610030 0.300280 0.483580 -0.603590
O11   O     O_R   0.389970 0.699720 0.516420 -0.596152
O12   O     O_R   0.389970 0.333270 0.516400 -0.620766
O13   O     O_R   0.610030 0.666730 0.483600 -0.627911
O14   O     O_2   0.539004 0.220141 0.008677 -0.359221
S1    S     S_3+6 0.657782 0.128276 0.057098 0.002818
S2    S     S_3+6 0.311101 0.875622 0.930866 0.036805
Zn1   Zn    Zn3+2 0.646940 0.477980 0.478080 0.968134
Zn2   Zn    Zn3+2 0.353060 0.522020 0.521920 0.978387

loop_
_geom_bond_atom_site_label_1
_geom_bond_atom_site_label_2
_ccdc_geom_bond_type
N2    Zn1   S    
C24   O10   A    
C9    H12   S    
C10   C13   A    
H6    N1    S    
O6    S2    S    
O12   Zn2   S    
O10   Zn1   S    
C23   H3    S    
H5    N2    S    
C2    C16   S    
C1    O8    A    
C6    S2    S    
C18   H2    S    
O1    Zn1   S    
O2    S1    D    
O8    Zn2   S    
C7    C9    A    
C20   C21   S    
C4    C15   A    
C12   O7    A    
C4    H11   S    
O7    Zn2   S    
C5    S1    S    
C22   H4    S    
O4    S2    D    
O5    S2    D    
C8    H1    S    
C9    C11   A    
C14   C17   A    
O3    S1    S    
C1    C18   S    
H8    O6    S    
C23   N2    D    
C3    C14   A    
C10   H13   S    
C12   C19   S    
C8    C10   A    
C19   C21   D    
O11   Zn2   S    
C18   C20   D    
C2    O13   A    
C13   C15   A    
C11   C14   A    
C22   N1    D    
O9    Zn1   S    
C19   H16   S    
C7    H9    S    
C24   O12   A    
C13   C17   A    
C17   C24   S    
O13   Zn1   S    
C12   O9    A    
O14   S1    D    
C4    C6    A    
H7    O3    S    
C5    C7    A    
C20   H15   S    
C22   C23   S    
C6    C8    A    
C3    H10   S    
C1    O1    A    
C11   C16   A    
C21   H14   S    
C15   C16   A    
N1    Zn2   S    
C3    C5    A    
C2    O11   A    
