data_mof_unit_67697.cif
_audit_creation_date              2012-12-10T19:48:31-0500
_audit_creation_method            fapswitch 2.2
_symmetry_space_group_name_H-M    P1
_symmetry_Int_Tables_number       1
_space_group_crystal_system       triclinic
_cell_length_a                    11.168606
_cell_length_b                    10.692152
_cell_length_c                    9.532426
_cell_angle_alpha                 91.115096
_cell_angle_beta                  90.497889
_cell_angle_gamma                 89.077819
_cell_volume                      1137.92537209

loop_
_atom_site_label
_atom_site_type_symbol
_atom_type_description
_atom_site_fract_x
_atom_site_fract_y
_atom_site_fract_z
_atom_type_partial_charge
C1    C     C_R   0.496808 0.259928 0.499035 0.927389
C2    C     C_R   0.503295 0.740067 0.500963 0.884756
C3    C     C_R   0.871663 0.502364 0.504988 -0.045330
C4    C     C_R   0.128289 0.497643 0.495239 -0.049995
C5    C     C_R   0.941899 0.534711 0.624315 0.077971
C6    C     C_R   0.058038 0.465289 0.376007 0.095471
C7    C     C_3   0.609038 0.045464 0.528573 -0.251719
C8    C     C_3   0.390664 0.954521 0.471455 -0.315786
C9    C     C_3   0.576446 0.958862 0.403620 0.536266
C10   C     C_3   0.423210 0.041161 0.596421 0.459939
C11   C     C_3   0.504943 0.877071 0.501746 -0.197677
C12   C     C_3   0.494836 0.122928 0.498283 -0.185362
C13   C     C_3   0.536648 0.962470 0.628019 -0.183957
C14   C     C_3   0.463074 0.037558 0.371999 -0.115427
C15   C     C_3   0.538937 0.603848 0.052984 -0.124779
C16   C     C_3   0.460998 0.396240 0.947031 -0.112780
C17   C     C_3   0.432399 0.587890 0.953936 0.521575
C18   C     C_3   0.567560 0.412114 0.046085 0.536046
C19   C     C_3   0.605969 0.515879 0.948031 -0.210791
C20   C     C_3   0.394011 0.484169 0.051926 -0.208749
C21   C     C_R   0.262439 0.498312 0.498439 0.840569
C22   C     C_R   0.737545 0.501741 0.501609 0.852468
C23   C     C_R   0.129004 0.512916 0.001440 -0.130590
C24   C     C_R   0.870031 0.486237 0.998688 -0.129815
C25   C     C_R   0.112900 0.536197 0.144271 -0.181338
C26   C     C_R   0.886170 0.463403 0.855721 -0.171263
C27   C     C_R   0.106868 0.436597 0.236889 -0.046629
C28   C     C_R   0.893106 0.563347 0.763609 -0.042293
C29   C     C_R   0.120129 0.311990 0.186022 0.422646
C30   C     C_R   0.881337 0.687884 0.815483 0.402173
C31   C     C_R   0.137748 0.289871 0.041950 -0.156340
C32   C     C_R   0.863128 0.709442 0.959465 -0.178199
C33   C     C_R   0.140889 0.389891 0.950006 -0.233743
C34   C     C_R   0.858477 0.609088 0.050712 -0.217808
C35   C     C_R   0.932640 0.468313 0.383123 -0.160918
C36   C     C_R   0.067298 0.531565 0.617148 -0.165133
Cu1   Cu    Cu3+1 0.500030 0.499990 0.643150 1.050823
Cu2   Cu    Cu3+1 0.499970 0.500010 0.356850 1.066486
H1    H     H_    0.151879 0.372328 0.839150 0.225054
H2    H     H_    0.846976 0.626331 0.161560 0.219702
H3    H     H_    0.572373 0.691500 0.101064 0.235610
H4    H     H_    0.427565 0.308616 0.898987 0.235801
H5    H     H_    0.680943 0.550820 0.890132 0.200036
H6    H     H_    0.318721 0.450034 0.109818 0.200703
H7    H     H_    0.129285 0.590890 0.932004 0.225522
H8    H     H_    0.869280 0.408132 0.067857 0.195141
H9    H     H_    0.099327 0.631703 0.181677 0.205976
H10   H     H_    0.899172 0.367954 0.817861 0.204327
H11   H     H_    0.147902 0.195526 0.000173 0.252165
H12   H     H_    0.854290 0.803638 0.001891 0.212480
H13   H     H_    0.881739 0.442541 0.291608 0.162139
H14   H     H_    0.118147 0.557091 0.708702 0.187618
H15   H     H_    0.698924 0.084365 0.551191 0.225118
H16   H     H_    0.300940 0.915393 0.448543 0.212069
H17   H     H_    0.572878 0.933549 0.730938 0.234510
H18   H     H_    0.426623 0.066359 0.269079 0.256095
N1    N     N_3   0.500090 0.499970 0.858290 -0.243798
N2    N     N_3   0.499910 0.500030 0.141710 -0.243512
O1    O     O_R   0.500060 0.316850 0.620870 -0.563183
O2    O     O_R   0.499940 0.683150 0.379130 -0.555735
O3    O     O_R   0.500000 0.316860 0.379090 -0.524590
O4    O     O_R   0.500000 0.683140 0.620910 -0.559806
O5    O     O_R   0.319670 0.500010 0.620890 -0.544584
O6    O     O_R   0.680330 0.499990 0.379110 -0.539038
O7    O     O_R   0.319620 0.500010 0.379110 -0.599858
O8    O     O_R   0.680380 0.499990 0.620890 -0.601237
S1    S     S_3+6 0.353928 0.728584 0.908959 0.059498
O9    O     O_2   0.272891 0.767399 0.027536 -0.249308
O10   O     O_2   0.444587 0.828800 0.891514 -0.264450
O11   O     O_3   0.272181 0.712449 0.761511 -0.532089
H19   H     H_    0.293556 0.783367 0.702098 0.390930
S2    S     S_3+6 0.644570 0.270509 0.090774 0.034344
O12   O     O_2   0.553880 0.170051 0.105505 -0.231235
O13   O     O_2   0.726810 0.233261 0.972590 -0.324514
O14   O     O_3   0.723198 0.284211 0.240734 -0.530930
H20   H     H_    0.799210 0.237981 0.223257 0.399669
S3    S     S_3+6 0.117045 0.184260 0.300726 -0.013194
O15   O     O_2   0.130594 0.062311 0.220809 -0.256704
O16   O     O_2   0.218652 0.197406 0.403608 -0.328610
O17   O     O_3   0.987424 0.185797 0.389060 -0.532713
H21   H     H_    0.996324 0.118020 0.457916 0.403355
S4    S     S_3+6 0.890209 0.816772 0.703087 0.029080
O18   O     O_2   0.009273 0.814236 0.630973 -0.234811
O19   O     O_2   0.793158 0.807117 0.593737 -0.304266
O20   O     O_3   0.874614 0.953042 0.792873 -0.479355
H22   H     H_    0.788152 0.960389 0.814396 0.359648
S5    S     S_3+6 0.684441 0.909029 0.276519 0.048105
O21   O     O_2   0.724481 0.777304 0.305021 -0.323574
O22   O     O_2   0.630295 0.915641 0.132023 -0.260706
O23   O     O_3   0.803520 0.002726 0.287097 -0.472733
H23   H     H_    0.857530 0.972548 0.211386 0.392905
S6    S     S_3+6 0.315829 0.092276 0.724011 0.048231
O24   O     O_2   0.370247 0.084638 0.868230 -0.205611
O25   O     O_2   0.277684 0.224874 0.697091 -0.333575
O26   O     O_3   0.194660 0.001343 0.715871 -0.440796
H24   H     H_    0.153420 0.024109 0.627388 0.380523

loop_
_geom_bond_atom_site_label_1
_geom_bond_atom_site_label_2
_ccdc_geom_bond_type
C14   H18   S    
S5    O21   D    
C4    C36   A    
C23   H7    S    
C27   C29   A    
O26   H24   S    
C9    C14   S    
Cu1   O4    S    
S3    O15   D    
C19   N1    S    
C15   C19   S    
C33   H1    S    
C34   H2    S    
C24   C26   A    
C1    O1    A    
C2    O2    A    
C5    C36   A    
C17   C20   S    
C6    C35   A    
C7    C9    S    
C18   C19   S    
C22   O8    A    
C20   H6    S    
Cu2   N2    S    
C18   N2    S    
C23   C33   A    
C31   C33   A    
O11   H19   S    
C25   H9    S    
C36   H14   S    
C26   H10   S    
Cu2   O3    S    
C10   S6    S    
C1    C12   S    
C31   H11   S    
S2    O14   S    
C2    C11   S    
Cu1   O5    S    
C19   H5    S    
Cu2   O6    S    
S3    O16   D    
C18   S2    S    
C7    C12   S    
C17   S1    S    
S1    O9    D    
C15   H3    S    
C4    C6    A    
C8    H16   S    
O17   H21   S    
O20   H22   S    
S6    O26   S    
C24   C34   A    
S1    O10   D    
C32   C34   A    
C30   S4    S    
O14   H20   S    
Cu1   Cu2   S    
C5    C28   S    
C6    C27   S    
Cu2   O7    S    
C3    C35   A    
C16   C20   S    
Cu1   O8    S    
S6    O25   D    
C16   C18   S    
C9    C11   S    
C32   H12   S    
Cu1   O1    S    
C10   C12   S    
Cu2   O2    S    
S2    O13   D    
C12   C14   S    
S4    O19   D    
S5    O22   D    
C35   H13   S    
C15   N2    S    
C7    H15   S    
C20   N2    S    
C16   H4    S    
S3    O17   S    
C15   C17   S    
C8    C14   S    
C21   O7    A    
S2    O12   D    
C3    C5    A    
C10   C13   S    
C1    O3    A    
C25   C27   A    
S4    O20   S    
C26   C28   A    
S1    O11   S    
C24   H8    S    
C28   C30   A    
C29   C31   A    
C9    S5    S    
C30   C32   A    
C4    C21   S    
C11   C13   S    
O23   H23   S    
C8    C11   S    
S6    O24   D    
C16   N1    S    
C23   C25   A    
C21   O5    A    
C22   O6    A    
C7    C13   S    
C29   S3    S    
C8    C10   S    
S4    O18   D    
S5    O23   S    
C3    C22   S    
Cu1   N1    S    
C2    O4    A    
C17   N1    S    
C13   H17   S    
