data_mof_unit_68254.cif
_audit_creation_date              2012-12-11T19:51:58-0500
_audit_creation_method            fapswitch 2.2
_symmetry_space_group_name_H-M    P1
_symmetry_Int_Tables_number       1
_space_group_crystal_system       triclinic
_cell_length_a                    16.647013
_cell_length_b                    27.742101
_cell_length_c                    8.452238
_cell_angle_alpha                 90.58276
_cell_angle_beta                  104.226014
_cell_angle_gamma                 90.642524
_cell_volume                      3783.16113885

loop_
_atom_site_label
_atom_site_type_symbol
_atom_type_description
_atom_site_fract_x
_atom_site_fract_y
_atom_site_fract_z
_atom_type_partial_charge
Ba1   Ba    Ba6+2 0.000400 0.534870 0.845190 1.699030
Ba2   Ba    Ba6+2 0.000400 0.465130 0.345190 1.692065
Ba3   Ba    Ba6+2 0.500400 0.034870 0.845190 1.697979
Ba4   Ba    Ba6+2 0.500400 0.965130 0.345190 1.702974
C1    C     C_3   0.959310 0.767747 0.554684 -0.342345
C2    C     C_2   0.755833 0.642855 0.423461 -0.178687
C3    C     C_2   0.249028 0.857508 0.915566 -0.105900
C4    C     C_2   0.257044 0.143290 0.425485 -0.179545
C5    C     C_2   0.813051 0.390172 0.908298 0.040477
C6    C     C_2   0.816776 0.609704 0.412333 0.074104
C7    C     C_2   0.311842 0.890406 0.906216 0.041470
C8    C     C_2   0.317176 0.109768 0.412834 0.074093
C9    C     C_2   0.838201 0.345738 0.673817 0.009235
C10   C     C_2   0.845998 0.655281 0.186884 0.042426
C11   C     C_2   0.337008 0.845997 0.671314 -0.039958
C12   C     C_3   0.983502 0.219308 0.108439 -0.335604
C13   C     C_2   0.346622 0.155397 0.187766 0.041382
C14   C     C_3   0.762053 0.318840 0.668565 -0.150170
C15   C     C_3   0.774764 0.685112 0.186938 -0.092297
C16   C     C_3   0.259507 0.820064 0.661902 -0.140116
C17   C     C_3   0.275877 0.185482 0.188908 -0.091534
C18   C     C_3   0.742895 0.312664 0.827522 0.050748
C19   C     C_3   0.752508 0.687795 0.343296 -0.019632
C20   C     C_3   0.236567 0.814618 0.817707 -0.004743
C21   C     C_3   0.254151 0.188261 0.345720 -0.019321
C22   C     C_2   0.745978 0.273731 0.560999 0.401667
C23   C     C_3   0.459932 0.267862 0.556878 -0.344541
C24   C     C_2   0.782481 0.735966 0.131325 0.413500
C25   C     C_2   0.244056 0.774636 0.555814 0.404190
C26   C     C_2   0.283798 0.236281 0.133264 0.414563
C27   C     C_2   0.253484 0.730281 0.621633 -0.000577
C28   C     C_2   0.214110 0.257750 0.049321 -0.105874
C29   C     C_2   0.755799 0.229185 0.625170 0.006262
C30   C     C_2   0.712766 0.757528 0.047712 -0.108872
C31   C     C_R   0.286901 0.675372 0.405733 0.040777
C32   C     C_R   0.264221 0.316309 0.866435 0.057412
C33   C     C_R   0.788052 0.174713 0.407387 0.033980
C34   C     C_3   0.491671 0.718806 0.128326 -0.325683
C35   C     C_R   0.763362 0.815972 0.864715 0.056976
C36   C     C_R   0.235374 0.686443 0.518778 0.004803
C37   C     C_R   0.212216 0.306122 0.978973 -0.093001
C38   C     C_R   0.736739 0.185730 0.520815 0.003608
C39   C     C_R   0.711073 0.805800 0.976740 -0.088017
C40   C     C_3   0.030537 0.712797 0.065801 0.721613
C41   C     C_3   0.993285 0.273858 0.628000 0.686116
C42   C     C_3   0.531035 0.212761 0.067312 0.722803
C43   C     C_3   0.492437 0.773987 0.634601 0.678241
C44   C     C_R   0.267333 0.632826 0.296613 0.073366
C45   C     C_R   0.142202 0.618719 0.396742 -0.237844
C46   C     C_R   0.252720 0.360554 0.769301 0.117169
C47   C     C_R   0.767908 0.132445 0.297241 0.072879
C48   C     C_R   0.752329 0.860381 0.768378 0.115979
C49   C     C_R   0.195569 0.607985 0.284703 0.063154
C50   C     C_R   0.187493 0.389600 0.770815 0.025650
C51   C     C_R   0.695873 0.107862 0.284919 0.063462
C52   C     C_R   0.687178 0.889494 0.769894 0.027395
C53   C     C_R   0.165445 0.653341 0.520610 0.005447
C54   C     C_R   0.148647 0.341412 0.992031 -0.041352
C55   C     C_R   0.666130 0.153023 0.521458 0.004914
C56   C     C_R   0.132618 0.379215 0.881318 -0.301168
C57   C     C_R   0.647629 0.841135 0.989663 -0.044199
C58   C     C_3   0.069999 0.761290 0.039921 -0.315791
C59   C     C_3   0.073719 0.255704 0.593618 -0.303013
C60   C     C_3   0.570814 0.261181 0.041662 -0.320391
C61   C     C_3   0.571934 0.752890 0.604864 -0.285724
C62   C     C_3   0.680119 0.472203 0.060037 0.505842
C63   C     C_3   0.694133 0.508736 0.583278 0.499114
C64   C     C_3   0.180280 0.972849 0.059436 0.505834
C65   C     C_3   0.193377 0.009287 0.582306 0.498197
C66   C     C_3   0.609678 0.455257 0.916939 -0.433150
C67   C     C_R   0.642530 0.118655 0.396915 -0.237318
C68   C     C_3   0.647169 0.555564 0.594935 -0.369753
C69   C     C_3   0.109554 0.956688 0.915604 -0.432293
C70   C     C_3   0.147166 0.056437 0.593267 -0.370483
C71   C     C_3   0.232220 0.468600 0.127524 0.386050
C72   C     C_3   0.240615 0.530211 0.637593 0.470715
C73   C     C_3   0.731860 0.968547 0.127104 0.385418
C74   C     C_3   0.741089 0.030095 0.637924 0.470568
C75   C     C_3   0.310004 0.439414 0.132284 0.227256
C76   C     C_3   0.321323 0.558135 0.648205 0.219690
C77   C     C_3   0.809458 0.939215 0.131610 0.227662
C78   C     C_R   0.631984 0.879064 0.879590 -0.301161
C79   C     C_3   0.821997 0.057791 0.648288 0.218302
C80   C     C_3   0.982872 0.715121 0.592197 0.715897
C81   C     C_3   0.002667 0.272072 0.084041 0.694689
C82   C     C_3   0.483488 0.215178 0.593371 0.715603
C83   C     C_3   0.503563 0.772531 0.104677 0.770641
C84   C     C_2   0.861592 0.381252 0.786608 -0.188580
C85   C     C_2   0.866242 0.618832 0.293188 -0.253305
C86   C     C_2   0.361061 0.880954 0.786038 -0.234584
C87   C     C_2   0.366468 0.118733 0.293272 -0.253026
C88   C     C_3   0.336676 0.631487 0.075181 -0.129134
C89   C     C_2   0.752403 0.356237 0.921512 -0.107722
C90   C     C_3   0.396461 0.378258 0.774331 -0.250443
C91   C     C_3   0.836009 0.130830 0.073945 -0.128955
C92   C     C_3   0.896436 0.877613 0.775102 -0.250299
C93   C     C_3   0.644726 0.558858 0.079696 -0.172400
C94   C     C_3   0.666106 0.423201 0.503915 -0.233032
C95   C     C_3   0.146430 0.059663 0.081276 -0.172753
C96   C     C_3   0.164004 0.923968 0.501564 -0.232561
H1    H     H_    0.631215 0.426554 0.846129 0.069133
H2    H     H_    0.623180 0.570824 0.471654 0.102127
H3    H     H_    0.794928 0.108962 0.976621 0.186525
H4    H     H_    0.796774 0.895545 0.586264 0.235391
H5    H     H_    0.938832 0.882235 0.693190 0.119390
H6    H     H_    0.916801 0.845791 0.852722 0.121871
H7    H     H_    0.901025 0.910377 0.853453 0.120154
H8    H     H_    0.699723 0.312273 0.372273 0.296716
H9    H     H_    0.851089 0.795028 0.166516 0.304243
H10   H     H_    0.199505 0.812680 0.365014 0.295456
H11   H     H_    0.352465 0.295321 0.167839 0.304237
H12   H     H_    0.026410 0.729923 0.285685 0.300730
H13   H     H_    0.086831 0.987299 0.834899 0.121022
H14   H     H_    0.939569 0.210851 0.615239 0.295153
H15   H     H_    0.526594 0.230156 0.286810 0.301578
H16   H     H_    0.434297 0.712524 0.627272 0.295329
H17   H     H_    0.602504 0.501497 0.196860 0.203992
H18   H     H_    0.629642 0.584893 0.168383 0.078114
H19   H     H_    0.594390 0.559683 0.966054 0.084310
H20   H     H_    0.704160 0.570763 0.054296 0.114101
H21   H     H_    0.581962 0.469623 0.566564 0.191377
H22   H     H_    0.615667 0.399084 0.434766 0.109104
H23   H     H_    0.690757 0.408110 0.626261 0.052663
H24   H     H_    0.124351 0.071930 0.470025 0.101849
H25   H     H_    0.715899 0.424503 0.437525 0.138938
H26   H     H_    0.103150 0.002336 0.196861 0.204356
H27   H     H_    0.131893 0.085660 0.170642 0.077598
H28   H     H_    0.096044 0.060945 0.967803 0.083925
H29   H     H_    0.206019 0.071278 0.055912 0.113892
H30   H     H_    0.080685 0.970745 0.565185 0.191432
H31   H     H_    0.189325 0.908953 0.623767 0.061613
H32   H     H_    0.213175 0.925001 0.433589 0.136246
H33   H     H_    0.113012 0.899968 0.433699 0.109493
H34   H     H_    0.195512 0.470698 0.999415 -0.094886
H35   H     H_    0.204894 0.528470 0.508217 -0.137608
H36   H     H_    0.695061 0.970674 0.999074 -0.096151
H37   H     H_    0.705259 0.028422 0.508606 -0.138067
H38   H     H_    0.194867 0.450391 0.202056 0.032140
H39   H     H_    0.204069 0.549196 0.711994 0.013167
H40   H     H_    0.694484 0.950449 0.201762 0.035815
H41   H     H_    0.687376 0.582210 0.676801 0.099059
H42   H     H_    0.704769 0.049192 0.712513 0.011724
H43   H     H_    0.343990 0.455850 0.048145 0.108077
H44   H     H_    0.351410 0.543946 0.553635 0.070929
H45   H     H_    0.843373 0.955534 0.047149 0.107734
H46   H     H_    0.851728 0.043607 0.553180 0.071362
H47   H     H_    0.293209 0.401786 0.090348 -0.077776
H48   H     H_    0.307742 0.596781 0.625458 -0.090399
H49   H     H_    0.792429 0.901587 0.089924 -0.076039
H50   H     H_    0.808729 0.096491 0.626194 -0.088288
H51   H     H_    0.974642 0.694860 0.475096 -0.029345
H52   H     H_    0.130447 0.928055 0.843671 0.070222
H53   H     H_    0.027124 0.273425 0.973892 0.010873
H54   H     H_    0.474865 0.195045 0.475961 -0.026596
H55   H     H_    0.518635 0.776677 0.984558 -0.075442
H56   H     H_    0.999381 0.784215 0.481979 0.089387
H57   H     H_    0.940547 0.204996 0.995572 0.115108
H58   H     H_    0.394128 0.270318 0.488793 0.123097
H59   H     H_    0.449598 0.703419 0.016263 0.079927
H60   H     H_    0.893564 0.770118 0.486199 0.122826
H61   H     H_    0.954579 0.215405 0.212986 0.109219
H62   H     H_    0.467529 0.288886 0.671664 0.112864
H63   H     H_    0.187458 0.082731 0.676560 0.099234
H64   H     H_    0.464528 0.712710 0.234201 0.125736
H65   H     H_    0.138518 0.759051 0.080267 0.135313
H66   H     H_    0.114110 0.240733 0.706327 0.064468
H67   H     H_    0.639264 0.259020 0.084394 0.132939
H68   H     H_    0.610359 0.738067 0.719735 0.063987
H69   H     H_    0.715408 0.361392 0.009396 0.052724
H70   H     H_    0.718641 0.638291 0.510394 0.079728
H71   H     H_    0.212241 0.862860 0.003699 0.057050
H72   H     H_    0.220411 0.139000 0.513506 0.081291
H73   H     H_    0.914060 0.404714 0.785693 0.048247
H74   H     H_    0.557668 0.440404 0.963169 0.094558
H75   H     H_    0.915935 0.594480 0.286804 0.067737
H76   H     H_    0.414791 0.903651 0.787831 0.056957
H77   H     H_    0.415715 0.094146 0.286052 0.067994
H78   H     H_    0.088284 0.596079 0.392083 0.058705
H79   H     H_    0.085430 0.404932 0.889844 0.071753
H80   H     H_    0.588248 0.096260 0.391534 0.058621
H81   H     H_    0.585224 0.904987 0.888873 0.067351
H82   H     H_    0.272371 0.725841 0.752987 0.029770
H83   H     H_    0.155927 0.237865 0.027486 0.019910
H84   H     H_    0.775799 0.224275 0.756186 0.041197
H85   H     H_    0.593733 0.548878 0.648901 0.063341
H86   H     H_    0.654263 0.737975 0.026761 0.025462
H87   H     H_    0.966695 0.788937 0.669050 0.112942
H88   H     H_    0.041325 0.198072 0.132753 0.065854
H89   H     H_    0.499858 0.284446 0.484094 0.089932
H90   H     H_    0.551859 0.700018 0.149403 0.063505
H91   H     H_    0.058531 0.684749 0.002623 0.097896
H92   H     H_    0.011322 0.303822 0.718796 -0.044698
H93   H     H_    0.559195 0.184635 0.004735 0.097091
H94   H     H_    0.511995 0.804592 0.722259 -0.058224
H95   H     H_    0.053420 0.771033 0.909944 0.108860
H96   H     H_    0.057169 0.942047 0.961124 0.095563
H97   H     H_    0.107366 0.285994 0.552319 0.119657
H98   H     H_    0.555375 0.270626 0.911417 0.108288
H99   H     H_    0.608279 0.781519 0.561738 0.114296
H100  H     H_    0.048430 0.790481 0.109784 0.094223
H101  H     H_    0.060484 0.227042 0.497670 0.107523
H102  H     H_    0.548458 0.290525 0.109707 0.095283
H103  H     H_    0.557307 0.723435 0.511943 0.097714
H104  H     H_    0.694325 0.441278 0.144054 0.028002
H105  H     H_    0.731092 0.498676 0.705975 0.037689
H106  H     H_    0.193849 0.941654 0.142423 0.023388
H107  H     H_    0.092984 0.050109 0.645352 0.063664
H108  H     H_    0.229685 0.999089 0.705373 0.038313
H109  H     H_    0.873702 0.698022 0.617742 0.281323
H110  H     H_    0.911512 0.299241 0.159794 0.344091
H111  H     H_    0.374531 0.198341 0.620734 0.281794
H112  H     H_    0.389945 0.788246 0.003098 0.266235
H113  H     H_    0.340209 0.414823 0.351842 0.301308
H114  H     H_    0.426095 0.571452 0.801362 0.290299
H115  H     H_    0.839808 0.914756 0.351350 0.303269
H116  H     H_    0.927055 0.070767 0.800980 0.290773
H117  H     H_    0.388600 0.615609 0.315998 0.178419
H118  H     H_    0.586214 0.485525 0.835183 0.121721
H119  H     H_    0.400015 0.625837 0.058455 0.089902
H120  H     H_    0.322075 0.670507 0.063928 0.101053
H121  H     H_    0.294289 0.610594 0.976977 0.186539
H122  H     H_    0.296263 0.395186 0.585093 0.234398
H123  H     H_    0.438624 0.382684 0.691867 0.119441
H124  H     H_    0.417369 0.346789 0.853362 0.121186
H125  H     H_    0.400723 0.411319 0.851187 0.120958
H126  H     H_    0.889076 0.115280 0.314702 0.179375
H127  H     H_    0.899719 0.126382 0.057723 0.087333
H128  H     H_    0.819015 0.169483 0.060523 0.101254
N1    N     N_2   0.331816 0.613576 0.232458 -0.417004
N2    N     N_2   0.312309 0.371029 0.678133 -0.414122
N3    N     N_2   0.832025 0.113164 0.232048 -0.416717
N4    N     N_2   0.812290 0.870977 0.678148 -0.413928
N5    N     N_2   0.651735 0.511026 0.149097 -0.392900
N6    N     N_2   0.633573 0.470610 0.519815 -0.422663
N7    N     N_2   0.152608 0.011682 0.149527 -0.392838
N8    N     N_2   0.132203 0.971528 0.518121 -0.423025
O1    O     O_2   0.163830 0.569270 0.980510 -0.465686
O2    O     O_3   0.939192 0.288136 0.480477 -0.596293
O3    O     O_3   0.444660 0.214179 0.999906 -0.546259
O4    O     O_3   0.440570 0.787997 0.484272 -0.552232
O5    O     O_3   0.904940 0.476110 0.001150 -0.470425
O6    O     O_3   0.904940 0.523890 0.501150 -0.463138
O7    O     O_3   0.404940 0.976110 0.001150 -0.470096
O8    O     O_3   0.404940 0.023890 0.501150 -0.463777
O9    O     O_3   0.095420 0.524330 0.188510 -0.504628
O10   O     O_3   0.095420 0.475670 0.688510 -0.497252
O11   O     O_3   0.595420 0.024330 0.188510 -0.505350
O12   O     O_2   0.163830 0.430730 0.480510 -0.466817
O13   O     O_3   0.595420 0.975670 0.688510 -0.498000
O14   O     O_3   0.028940 0.612400 0.656050 -0.462723
O15   O     O_3   0.028940 0.387600 0.156050 -0.446718
O16   O     O_3   0.528940 0.112400 0.656050 -0.462126
O17   O     O_3   0.528940 0.887600 0.156050 -0.446004
O18   O     O_2   0.164824 0.651479 0.849455 -0.520513
O19   O     O_2   0.174170 0.355627 0.325237 -0.485649
O20   O     O_2   0.664997 0.151242 0.849910 -0.521082
O21   O     O_2   0.677705 0.858395 0.319697 -0.489322
O22   O     O_3   0.256920 0.514650 0.190860 -0.596314
O23   O     O_2   0.663830 0.069270 0.980510 -0.465882
O24   O     O_3   0.260422 0.483983 0.697960 -0.624075
O25   O     O_3   0.756797 0.014566 0.190427 -0.596481
O26   O     O_3   0.760593 0.983837 0.698248 -0.624277
O27   O     O_3   0.065282 0.714336 0.685509 -0.617311
O28   O     O_3   0.061943 0.289426 0.222071 -0.607430
O29   O     O_3   0.566080 0.214287 0.685690 -0.618359
O30   O     O_3   0.568590 0.789926 0.232243 -0.585136
O31   O     O_2   0.837400 0.570350 0.710350 -0.474796
O32   O     O_2   0.837400 0.429650 0.210350 -0.453115
O33   O     O_2   0.337400 0.070350 0.710350 -0.474622
O34   O     O_2   0.663830 0.930730 0.480510 -0.465053
O35   O     O_2   0.337400 0.929650 0.210350 -0.453500
O36   O     O_3   0.972820 0.612580 0.035550 -0.475341
O37   O     O_3   0.972820 0.387420 0.535550 -0.479369
O38   O     O_3   0.472820 0.112580 0.035550 -0.475276
O39   O     O_3   0.472820 0.887420 0.535550 -0.478394
O40   O     O_2   0.833412 0.649361 0.855368 -0.470709
O41   O     O_2   0.833838 0.351907 0.341485 -0.474863
O42   O     O_2   0.333514 0.149524 0.855977 -0.471766
O43   O     O_2   0.335609 0.851002 0.338765 -0.431835
O44   O     O_3   0.931528 0.694745 0.682382 -0.676588
O45   O     O_3   0.745884 0.512875 0.474670 -0.613590
O46   O     O_3   0.929875 0.299085 0.056785 -0.745510
O47   O     O_3   0.432503 0.194663 0.684029 -0.676293
O48   O     O_3   0.430447 0.796854 0.106942 -0.676313
O49   O     O_3   0.362221 0.439825 0.290121 -0.704788
O50   O     O_3   0.374759 0.553180 0.803367 -0.719526
O51   O     O_3   0.861866 0.939638 0.289267 -0.704791
O52   O     O_3   0.875668 0.052561 0.803082 -0.719395
O53   O     O_3   0.714004 0.278019 0.394866 -0.725008
O54   O     O_3   0.858071 0.759916 0.182953 -0.751757
O55   O     O_3   0.213410 0.778452 0.389184 -0.720864
O56   O     O_3   0.749211 0.488418 0.003665 -0.634300
O57   O     O_3   0.359354 0.260244 0.185281 -0.752637
O58   O     O_3   0.048823 0.702940 0.232932 -0.788569
O59   O     O_3   0.955342 0.237145 0.697989 -0.782485
O60   O     O_3   0.548802 0.202998 0.234482 -0.788875
O61   O     O_3   0.451144 0.739485 0.707084 -0.800250
O62   O     O_3   0.245836 0.012904 0.474819 -0.613491
O63   O     O_3   0.249756 0.988771 0.003843 -0.633995
O64   O     O_3   0.944093 0.714142 0.999320 -0.546036
P1    P     P_3+3 0.171820 0.553000 0.158080 1.017517
P2    P     P_3+3 0.894157 0.343268 0.508798 0.994286
P3    P     P_3+3 0.398903 0.157716 0.019232 1.068144
P4    P     P_3+3 0.394437 0.843113 0.508309 1.047893
P5    P     P_3+3 0.104292 0.343425 0.172071 0.982908
P6    P     P_3+3 0.106635 0.656869 0.677851 0.958769
P7    P     P_3+3 0.605862 0.844206 0.172422 0.991907
P8    P     P_3+3 0.606997 0.156694 0.678155 0.958228
P9    P     P_3+3 0.171820 0.447000 0.658080 0.981929
P10   P     P_3+3 0.671820 0.053000 0.158080 1.016341
P11   P     P_3+3 0.671820 0.947000 0.658080 0.981639
P12   P     P_3+3 0.829210 0.554130 0.532500 1.015253
P13   P     P_3+3 0.829210 0.445870 0.032500 0.993646
P14   P     P_3+3 0.329210 0.054130 0.532500 1.015088
P15   P     P_3+3 0.329210 0.945870 0.032500 1.000793
P16   P     P_3+3 0.898625 0.657610 0.018796 1.068882

loop_
_geom_bond_atom_site_label_1
_geom_bond_atom_site_label_2
_ccdc_geom_bond_type
C60   H98   S    
C8    C87   S    
Ba1   O36   S    
C23   H58   S    
C72   O24   S    
C78   H81   S    
C66   H118  S    
C73   O25   S    
C9    C14   A    
C65   N8    S    
C34   H59   S    
C57   C78   A    
C5    C84   S    
C54   C56   A    
C3    C20   A    
C86   H76   S    
C33   C38   S    
C30   H86   S    
C61   H99   S    
C59   H66   S    
C34   H90   S    
C10   P16   S    
Ba4   O7    S    
C63   H105  S    
H14   O59   S    
C40   O58   S    
C41   O59   S    
H9    O54   S    
C77   H49   S    
C11   C16   A    
C95   H29   S    
Ba3   P14   S    
C12   H88   S    
O33   P14   D    
C13   C17   A    
C59   H97   S    
C23   C82   S    
C15   C19   A    
C52   P11   S    
Ba1   O31   S    
C71   O22   S    
Ba2   O32   S    
C65   C70   S    
C65   O62   S    
C12   C81   S    
C96   N8    S    
H111  O47   S    
C32   C46   S    
C39   C57   S    
Ba3   O38   S    
O41   P2    D    
C65   H108  S    
O43   P4    D    
C10   C15   A    
C71   H38   S    
C96   H32   S    
C95   H28   S    
C6    P12   S    
C76   O50   S    
C31   C36   S    
C82   H54   S    
C50   P9    S    
C23   H62   S    
Ba2   O15   S    
C62   C66   S    
H113  O49   S    
O64   P16   S    
C45   C49   S    
H115  O51   S    
C47   C51   D    
H116  O52   S    
C91   H127  S    
C68   H85   S    
C83   O30   S    
C58   H100  S    
O19   P5    D    
C76   H48   S    
H21   N6    S    
C69   H96   S    
C71   C75   S    
O28   P5    S    
C51   C67   S    
C26   O57   S    
H10   O55   S    
O7    P15   S    
C13   C87   D    
O45   P12   S    
C63   O45   S    
C71   H34   S    
C56   H79   S    
C61   H68   S    
C29   C38   S    
Ba2   O9    S    
C37   C54   S    
C60   H67   S    
Ba4   P11   S    
Ba3   O23   S    
C45   C53   A    
C63   C68   S    
C83   O48   S    
C90   H125  S    
C94   H25   S    
C75   H43   S    
C6    C85   S    
C76   H44   S    
O17   P7    S    
C28   C37   S    
C40   O64   S    
C4    C8    A    
C79   H50   S    
C62   H104  S    
O42   P3    D    
C90   H124  S    
C74   O26   S    
C42   O60   S    
C72   H35   S    
C91   H3    S    
C57   P7    S    
C5    P13   S    
C70   H107  S    
C44   C49   D    
C47   N3    S    
O37   P2    S    
C1    C80   S    
O39   P4    S    
Ba3   O7    S    
Ba1   O1    S    
C67   H80   S    
C93   H19   S    
C88   H119  S    
Ba4   O11   S    
C64   N7    S    
Ba2   O6    S    
C22   C29   D    
C94   N6    S    
H17   N5    S    
O15   P5    S    
C1    H60   S    
O5    P13   S    
C29   H84   S    
C42   O3    S    
C15   C24   S    
C66   H74   S    
O3    P3    S    
C44   N1    S    
O4    P4    S    
Ba1   P12   S    
H16   O61   S    
C69   H52   S    
C64   H106  S    
C9    P2    S    
Ba3   P10   S    
Ba3   Ba4   S    
C74   H37   S    
C90   N2    S    
C2    H70   S    
C72   H39   S    
O9    P1    S    
C94   H22   S    
C17   C21   A    
C59   H101  S    
C14   C18   A    
Ba4   O39   S    
C30   C39   S    
C72   C76   S    
C38   C55   S    
C52   C78   S    
O12   P9    D    
Ba3   O33   S    
H12   O58   S    
C49   P1    S    
H112  O48   S    
C68   H2    S    
C88   N1    S    
O6    P12   S    
C80   O44   S    
H30   N8    S    
C46   N2    S    
Ba3   O8    S    
C53   P6    S    
Ba1   O6    S    
C80   H51   S    
H122  N2    S    
O8    P14   S    
Ba4   O8    S    
C75   O49   S    
C70   H24   S    
C92   H5    S    
C63   N6    S    
H11   O57   S    
C3    H71   S    
C28   H83   S    
C14   C22   S    
O38   P3    S    
O62   P14   S    
H114  O50   S    
C89   H69   S    
C46   C50   D    
C88   H121  S    
C91   N3    S    
C54   P5    S    
C74   H42   S    
O23   P10   D    
O30   P7    S    
C69   H13   S    
C27   C36   S    
Ba2   O12   S    
C92   H6    S    
C43   H94   S    
C74   C79   S    
Ba2   P9    S    
C73   H40   S    
C77   O51   S    
C73   H36   S    
Ba4   O35   S    
O34   P11   D    
C24   C30   D    
C4    C21   A    
C32   C37   S    
O29   P8    S    
C58   H95   S    
C31   C44   S    
Ba4   P15   S    
O2    P2    S    
C68   H41   S    
C66   H1    S    
C62   N5    S    
Ba3   O13   S    
O25   P10   S    
C75   H47   S    
C10   C85   D    
C79   H46   S    
C41   H92   S    
C73   C77   S    
Ba2   P13   S    
O21   P7    D    
O32   P13   D    
C92   H7    S    
C81   O46   S    
C27   H82   S    
C85   H75   S    
C81   O28   S    
C45   H78   S    
O14   P6    S    
C36   C53   S    
C12   H57   S    
C51   P10   S    
O27   P6    S    
C2    C6    A    
C95   H27   S    
O20   P8    D    
C12   H61   S    
C1    H56   S    
C17   C26   S    
C34   C83   S    
C8    P14   S    
Ba2   O37   S    
O1    P1    D    
C82   O29   S    
O31   P12   D    
C4    H72   S    
O11   P10   S    
O24   P9    S    
C22   O53   S    
O26   P11   S    
C96   H31   S    
C50   C56   S    
C3    C7    A    
C43   O61   S    
Ba1   O10   S    
C40   H91   S    
C70   H63   S    
C33   C47   S    
H4    N4    S    
H126  N3    S    
Ba1   Ba2   S    
O36   P16   S    
C93   H18   S    
C88   H120  S    
C41   O2    S    
H117  N1    S    
C91   H128  S    
C16   C20   A    
C61   H103  S    
C82   O47   S    
C80   O27   S    
O18   P6    D    
O40   P16   D    
C25   O55   S    
O63   P15   S    
O13   P11   S    
C34   H64   S    
C35   C48   S    
C62   O56   S    
Ba1   P1    S    
Ba4   O17   S    
C55   P8    S    
C16   C25   S    
O22   P1    S    
Ba4   O34   S    
C94   H23   S    
C64   O63   S    
O16   P8    S    
H110  O46   S    
C13   P3    S    
Ba3   O16   S    
O56   P13   S    
Ba1   O14   S    
C48   N4    S    
C35   C39   S    
C40   C58   S    
C64   C69   S    
C41   C59   S    
C84   H73   S    
C42   C60   S    
C95   N7    S    
H8    O53   S    
C93   N5    S    
C81   H53   S    
H26   N7    S    
Ba1   O5    S    
C77   H45   S    
C90   H123  S    
C18   C89   A    
C83   H55   S    
C5    C89   A    
C96   H33   S    
C42   H93   S    
O10   P9    S    
C60   H102  S    
H15   O60   S    
O35   P15   D    
H109  O44   S    
C93   H20   S    
C24   O54   S    
C25   C27   D    
C11   C86   D    
C26   C28   D    
C7    C86   S    
C11   P4    S    
C7    P15   S    
C2    C19   A    
C87   H77   S    
C9    C84   D    
C92   N4    S    
Ba2   O5    S    
C43   O4    S    
C58   H65   S    
C1    H87   S    
C23   H89   S    
C43   C61   S    
C79   O52   S    
C48   C52   D    
C55   C67   A    
