data_mof_unit_30673.cif
_audit_creation_date              2012-12-11T17:01:32-0500
_audit_creation_method            fapswitch 2.2
_symmetry_space_group_name_H-M    P1
_symmetry_Int_Tables_number       1
_space_group_crystal_system       triclinic
_cell_length_a                    14.969648
_cell_length_b                    15.109549
_cell_length_c                    14.888998
_cell_angle_alpha                 110.111498
_cell_angle_beta                  108.663404
_cell_angle_gamma                 109.778951
_cell_volume                      2587.59380111

loop_
_atom_site_label
_atom_site_type_symbol
_atom_type_description
_atom_site_fract_x
_atom_site_fract_y
_atom_site_fract_z
_atom_type_partial_charge
C1    C     C_R   0.996152 0.798879 0.091975 -0.111085
C2    C     C_R   0.224750 0.758584 0.316356 0.507142
C3    C     C_R   0.906392 0.410492 0.210863 -0.054066
C4    C     C_R   0.793571 0.199040 0.699015 -0.129509
C5    C     C_R   0.299673 0.590745 0.994493 -0.142735
C6    C     C_R   0.934008 0.501531 0.303013 0.001471
C7    C     C_R   0.301272 0.500058 0.932628 0.003344
C8    C     C_R   0.325928 0.777889 0.324577 0.020581
C9    C     C_R   0.952828 0.143006 0.949338 -0.143897
C10   C     C_3   0.470568 0.396083 0.827866 0.403469
C11   C     C_3   0.366693 0.398079 0.823170 -0.490352
C12   C     C_R   0.699656 0.135942 0.694046 0.079280
C13   C     C_3   0.564757 0.498286 0.036116 -0.516418
C14   C     C_3   0.574902 0.602357 0.934562 -0.353854
C15   C     C_3   0.573060 0.498821 0.935030 0.289391
C16   C     C_R   0.025526 0.591163 0.778415 -0.133334
C17   C     C_3   0.397758 0.499774 0.928228 0.311008
C18   C     C_3   0.461721 0.497783 0.031448 -0.382016
C19   C     C_3   0.471317 0.602944 0.930900 -0.380833
C20   C     C_R   0.615291 0.992486 0.504220 0.119503
C21   C     C_R   0.623019 0.023923 0.607424 -0.058952
C22   C     C_R   0.548395 0.949301 0.619869 -0.268621
C23   C     C_R   0.952527 0.500386 0.674675 0.059609
C24   C     C_R   0.454020 0.855957 0.525934 0.530947
C25   C     C_R   0.433642 0.843513 0.421642 -0.065348
C26   C     C_R   0.520645 0.905006 0.412739 0.041237
C27   C     C_3   0.523926 0.960394 0.346504 -0.540848
C28   C     C_R   0.685788 0.407648 0.932826 -0.126082
C29   C     C_3   0.629452 0.056460 0.446773 0.305547
C30   C     C_R   0.943600 0.602432 0.480020 0.105724
C31   C     C_R   0.897254 0.504061 0.383299 0.033875
C32   C     C_R   0.830699 0.406861 0.375778 -0.159456
C33   C     C_R   0.835742 0.406858 0.471337 -0.166598
C34   C     C_R   0.674808 0.498788 0.948355 0.067200
C35   C     C_R   0.907667 0.503855 0.573888 0.033362
C36   C     C_R   0.949390 0.602471 0.574351 0.159311
C37   C     C_3   0.060308 0.703256 0.645244 -0.519677
C38   C     C_3   0.053334 0.703196 0.542113 -0.377989
C39   C     C_R   0.931414 0.931027 0.020339 0.129045
C40   C     C_R   0.936933 0.408420 0.684565 -0.099517
C41   C     C_R   0.034971 0.943159 0.048829 0.036247
C42   C     C_R   0.114375 0.025697 0.049990 -0.208450
C43   C     C_R   0.085601 0.089154 0.012434 -0.145645
C44   C     C_R   0.977019 0.067356 0.971622 0.070518
C45   C     C_R   0.992170 0.590857 0.298315 -0.058708
C46   C     C_R   0.902751 0.992582 0.981851 0.263124
C47   C     C_3   0.790805 0.898905 0.895122 -0.397016
C48   C     C_3   0.821762 0.830565 0.938414 -0.549226
C49   C     C_R   0.776958 0.590693 0.024788 -0.154661
C50   C     C_R   0.699390 0.196009 0.788063 -0.092632
C51   C     C_R   0.087072 0.801062 0.999226 -0.148293
C52   C     C_R   0.049361 0.857764 0.055755 0.079326
C53   C     C_R   0.210424 0.409598 0.905373 -0.103260
C54   C     C_R   0.312125 0.743235 0.220075 -0.218848
C55   C     C_R   0.914858 0.201070 0.004124 0.399653
C56   C     C_R   0.005579 0.201083 0.911639 0.380572
Cl1   Cl    Cl    0.810478 0.147272 0.032463 -0.727918
Cl2   Cl    Cl    0.025976 0.142848 0.801258 -0.685081
Cl3   Cl    Cl    0.204583 0.830564 0.421629 -0.677578
Cl4   Cl    Cl    0.364097 0.760411 0.542492 -0.622339
Cl5   Cl    Cl    0.743919 0.076033 0.425373 -0.650080
H1    H     H_    0.965309 0.824368 0.146678 0.117557
H2    H     H_    0.563599 0.425177 0.038890 0.173580
H3    H     H_    0.410341 0.423558 0.030153 0.172724
H4    H     H_    0.645918 0.678063 0.010090 0.143251
H5    H     H_    0.581256 0.605136 0.863051 0.207493
H6    H     H_    0.425923 0.605598 0.857227 0.181670
H7    H     H_    0.496853 0.678509 0.004971 0.161153
H8    H     H_    0.636950 0.571506 0.113859 0.198028
H9    H     H_    0.484304 0.570048 0.107410 0.180541
H10   H     H_    0.559166 0.966812 0.700708 0.185069
H11   H     H_    0.052292 0.675102 0.802202 0.112068
H12   H     H_    0.182652 0.326102 0.850634 0.175672
H13   H     H_    0.533637 0.918270 0.275725 0.229448
H14   H     H_    0.456729 0.978932 0.325576 0.182345
H15   H     H_    0.624965 0.131682 0.482325 0.072615
H16   H     H_    0.785908 0.329157 0.300322 0.152382
H17   H     H_    0.794618 0.329355 0.465806 0.162052
H18   H     H_    0.059754 0.774135 0.701106 0.208032
H19   H     H_    0.126284 0.688599 0.684865 0.215216
H20   H     H_    0.048026 0.773560 0.538272 0.221929
H21   H     H_    0.622418 0.322956 0.884356 0.100048
H22   H     H_    0.115266 0.688646 0.524048 0.255238
H23   H     H_    0.373615 0.746709 0.196481 0.145182
H24   H     H_    0.195556 0.036924 0.074046 0.143289
H25   H     H_    0.147550 0.154008 0.014157 0.157948
H26   H     H_    0.725858 0.910217 0.909050 0.238412
H27   H     H_    0.777631 0.874398 0.810396 0.201972
H28   H     H_    0.775880 0.803938 0.978624 0.200127
H29   H     H_    0.825254 0.765076 0.878370 0.216789
H30   H     H_    0.884559 0.323947 0.620029 0.139122
H31   H     H_    0.797633 0.674794 0.062058 0.099670
H32   H     H_    0.645137 0.165687 0.817253 0.128090
H33   H     H_    0.139881 0.829593 0.967997 0.105092
H34   H     H_    0.845561 0.328542 0.179996 0.169954
H35   H     H_    0.004324 0.671049 0.342520 0.156451
H36   H     H_    0.422324 0.318105 0.672020 0.329574
H37   H     H_    0.353427 0.674708 0.021909 0.098646
H38   H     H_    0.464852 0.321029 0.828979 0.035464
H39   H     H_    0.320516 0.399252 0.748688 0.203166
H40   H     H_    0.828743 0.171452 0.650187 0.192608
H41   H     H_    0.313312 0.321259 0.816170 0.149537
N1    N     N_R   0.995640 0.706130 0.053910 -0.043910
N2    N     N_R   0.054010 0.556790 0.847890 -0.043192
N3    N     N_R   0.789940 0.443190 0.997130 -0.044226
N4    N     N_R   0.997630 0.443170 0.791110 -0.040448
N5    N     N_R   0.846320 0.556810 0.053910 -0.044604
N6    N     N_R   0.791080 0.293860 0.847890 -0.047202
N7    N     N_R   0.052880 0.706130 0.997130 -0.043015
N8    N     N_R   0.002370 0.556830 0.208890 -0.055222
N9    N     N_R   0.153680 0.443190 0.946090 -0.038125
N10   N     N_R   0.208920 0.706140 0.152110 -0.066747
N11   N     N_R   0.947120 0.293870 0.002870 -0.104618
N12   N     N_R   0.004360 0.293870 0.946090 -0.108677
N13   N     N_R   0.151690 0.706140 0.208890 -0.092910
N14   N     N_R   0.945990 0.443210 0.152110 -0.048194
N15   N     N_R   0.210060 0.556810 0.002870 -0.038813
N16   N     N_R   0.848310 0.293860 0.791110 -0.052093
Ni1   Ni    Ni4+2 0.999010 0.630300 0.130220 0.242204
Ni2   Ni    Ni4+2 0.000990 0.369700 0.869780 0.266216
Ni3   Ni    Ni4+2 0.130280 0.630280 0.000000 0.211388
Ni4   Ni    Ni4+2 0.869720 0.369720 0.000000 0.250059
O1    O     O_3   0.477583 0.393070 0.735029 -0.746647

loop_
_geom_bond_atom_site_label_1
_geom_bond_atom_site_label_2
_ccdc_geom_bond_type
C18   H9    S    
C6    C45   A    
C38   H22   S    
C27   C29   S    
C41   C42   A    
C35   C36   A    
C16   H11   S    
C3    C6    A    
N7    Ni3   S    
C1    H1    S    
C54   H23   S    
C39   C41   A    
C29   H15   S    
C37   H18   S    
C26   C27   S    
N14   Ni4   S    
C13   C18   S    
C36   C37   S    
C3    N14   A    
C30   C31   A    
C33   H17   S    
C9    C56   A    
C23   C40   A    
C30   C38   S    
N15   Ni3   S    
C17   C19   S    
C32   H16   S    
C16   N2    A    
N11   Ni4   S    
C31   C32   A    
C7    C17   S    
C19   H6    S    
C9    C55   A    
C4    C12   A    
C27   H13   S    
C1    N1    A    
C15   C34   S    
C53   N9    A    
C6    C31   S    
C28   C34   A    
C51   N7    A    
N1    N7    A    
C48   H29   S    
C21   C22   A    
C50   N6    A    
C8    C25   S    
C4    N16   A    
C27   H14   S    
N5    Ni1   S    
C44   C46   A    
C20   C29   S    
C37   H19   S    
C29   Cl5   S    
C28   H21   S    
C51   C52   A    
N6    N16   A    
C24   C25   A    
C49   N5    A    
C10   O1    S    
C8    C54   A    
C5    C7    A    
C2    Cl3   S    
N2    Ni3   S    
C55   N11   A    
C25   C26   A    
C12   C21   S    
C5    N15   A    
C11   H39   S    
C47   H26   S    
C43   C44   A    
C37   C38   S    
N3    N5    A    
C2    N13   A    
C47   C48   S    
C13   H2    S    
C28   N3    A    
C24   Cl4   S    
C4    H40   S    
C17   C18   S    
C14   H5    S    
C54   N10   A    
C19   H7    S    
C42   H24   S    
C5    H37   S    
N1    Ni1   S    
C39   C46   A    
C16   C23   A    
C23   C35   S    
C48   H28   S    
C55   Cl1   S    
C38   H20   S    
C22   C24   A    
C42   C43   A    
C7    C53   A    
C49   H31   S    
N8    N14   A    
C22   H10   S    
C40   N4    A    
N11   N12   A    
C46   C47   S    
C11   C17   S    
C9    C44   S    
C41   C52   S    
N4    Ni2   S    
C10   C15   S    
C45   N8    A    
C43   H25   S    
C14   C19   S    
C53   H12   S    
N6    Ni4   S    
C20   C26   A    
N8    Ni1   S    
C12   C50   A    
C50   H32   S    
N2    N4    A    
N13   Ni1   S    
C30   C36   A    
N9    N15   A    
C47   H27   S    
C13   C15   S    
N10   Ni3   S    
H36   O1    S    
C32   C33   A    
C18   H3    S    
C13   H8    S    
C33   C35   A    
C14   H4    S    
C56   Cl2   S    
N3    Ni4   S    
C11   H41   S    
C40   H30   S    
C10   H38   S    
C1    C52   A    
N16   Ni2   S    
C10   C11   S    
C51   H33   S    
C20   C21   A    
C34   C49   A    
C2    C8    A    
C56   N12   A    
C14   C15   S    
N9    Ni2   S    
C3    H34   S    
C45   H35   S    
N10   N13   A    
N12   Ni2   S    
C39   C48   S    
