data_mof_unit_67093.cif
_audit_creation_date              2012-12-11T17:41:25-0500
_audit_creation_method            fapswitch 2.2
_symmetry_space_group_name_H-M    P1
_symmetry_Int_Tables_number       1
_space_group_crystal_system       triclinic
_cell_length_a                    8.157545
_cell_length_b                    12.693841
_cell_length_c                    14.226092
_cell_angle_alpha                 92.13952
_cell_angle_beta                  90.738626
_cell_angle_gamma                 98.407504
_cell_volume                      1456.02192619

loop_
_atom_site_label
_atom_site_type_symbol
_atom_type_description
_atom_site_fract_x
_atom_site_fract_y
_atom_site_fract_z
_atom_type_partial_charge
Ba1   Ba    Ba6+2 0.855630 0.555280 0.454520 1.636030
Ba2   Ba    Ba6+2 0.334200 0.444810 0.545490 1.659845
C1    C     C_3   0.605143 0.949660 0.177282 -0.417761
C2    C     C_R   0.182266 0.500923 0.196026 0.046039
C3    C     C_R   0.337675 0.552783 0.225929 -0.293861
C4    C     C_3   0.146316 0.803557 0.193208 0.366955
C5    C     C_R   0.451203 0.599908 0.162250 0.019423
C6    C     C_R   0.407162 0.602285 0.067238 -0.152790
C7    C     C_R   0.249114 0.554639 0.034649 -0.007176
C8    C     C_R   0.135809 0.501207 0.098491 -0.026245
C9    C     C_R   0.050603 0.507394 0.902675 -0.016723
C10   C     C_R   0.935605 0.457644 0.967094 0.013623
C11   C     C_R   0.005322 0.503437 0.804895 0.055739
C12   C     C_3   0.650478 0.858527 0.234013 0.346797
C13   C     C_R   0.850424 0.449610 0.775161 -0.283915
C14   C     C_R   0.733469 0.407853 0.839597 -0.026398
C15   C     C_R   0.774824 0.414931 0.935710 -0.156606
C16   C     C_3   0.131395 0.840532 0.093345 -0.370065
C17   C     C_R   0.205406 0.558314 0.938596 -0.048332
C18   C     C_R   0.765788 0.175889 0.534022 -0.258452
C19   C     C_R   0.432290 0.813450 0.457749 -0.268511
C20   C     C_R   0.407038 0.995161 0.425091 -0.082576
C21   C     C_R   0.342425 0.887702 0.420202 -0.004536
C22   C     C_R   0.579444 0.846067 0.509063 0.108492
C23   C     C_3   0.477029 0.316629 0.259635 0.318925
C24   C     C_R   0.645075 0.956477 0.517698 0.006847
C25   C     C_R   0.557988 0.031325 0.473479 -0.022138
C26   C     C_R   0.620902 0.140988 0.482145 0.050820
C27   C     C_R   0.856180 0.103858 0.573849 -0.051585
C28   C     C_3   0.216196 0.759701 0.646533 0.252326
C29   C     C_R   0.793311 0.995035 0.569304 -0.086004
C30   C     C_3   0.209927 0.879359 0.656995 0.230312
C31   C     C_3   0.969514 0.235926 0.342713 0.281763
C32   C     C_3   0.960491 0.117225 0.320917 -0.354445
C33   C     C_3   0.715367 0.675763 0.739350 0.303255
C34   C     C_3   0.456597 0.298223 0.153918 -0.418521
C35   C     C_3   0.729764 0.701148 0.844817 -0.405473
C36   C     C_3   0.439354 0.955253 0.744573 0.205085
C37   C     C_3   0.965236 0.169184 0.797680 0.326419
C38   C     C_3   0.996279 0.155438 0.901791 -0.352012
C39   C     C_3   0.494821 0.202734 0.921572 0.296932
C40   C     C_3   0.430481 0.092135 0.955348 -0.413320
C41   C     C_R   0.980593 0.451617 0.062508 -0.034363
H1    H     H_    0.743142 0.890884 0.289512 0.076526
H2    H     H_    0.615234 0.607470 0.725903 0.062543
H3    H     H_    0.556767 0.009104 0.224552 0.098307
H4    H     H_    0.834595 0.766029 0.860353 0.121337
H5    H     H_    0.751678 0.629978 0.883014 0.071781
H6    H     H_    0.613289 0.726983 0.870383 0.112503
H7    H     H_    0.536559 0.821661 0.268969 -0.059844
H8    H     H_    0.508468 0.918470 0.123664 0.113739
H9    H     H_    0.360409 0.338846 0.288024 0.016403
H10   H     H_    0.580134 0.382880 0.273876 0.063785
H11   H     H_    0.347204 0.237012 0.137430 0.124452
H12   H     H_    0.139337 0.899451 0.720318 0.044014
H13   H     H_    0.438224 0.373121 0.120358 0.058885
H14   H     H_    0.569549 0.270829 0.124868 0.110853
H15   H     H_    0.715545 0.988992 0.140614 0.129610
H16   H     H_    0.173324 0.781807 0.042702 0.066187
H17   H     H_    0.973232 0.256002 0.786871 0.020274
H18   H     H_    0.838572 0.128435 0.778173 -0.038929
H19   H     H_    0.118883 0.200023 0.923672 0.126533
H20   H     H_    0.900471 0.187729 0.944023 0.061581
H21   H     H_    0.992337 0.069674 0.916007 0.106980
H22   H     H_    0.426465 0.260485 0.959424 0.040807
H23   H     H_    0.138909 0.902937 0.596442 0.068417
H24   H     H_    0.628003 0.217304 0.940961 -0.012505
H25   H     H_    0.509856 0.033818 0.929211 0.091923
H26   H     H_    0.300127 0.066623 0.932164 0.126013
H27   H     H_    0.064704 0.726093 0.198692 0.092420
H28   H     H_    0.435839 0.093172 0.033366 0.090440
H29   H     H_    0.373881 0.552140 0.299321 0.070400
H30   H     H_    0.496416 0.640710 0.018995 0.069458
H31   H     H_    0.682556 0.387467 0.986543 0.042912
H32   H     H_    0.817532 0.444536 0.701040 0.067276
H33   H     H_    0.892253 0.407808 0.107811 0.101075
H34   H     H_    0.846221 0.253900 0.362095 -0.002417
H35   H     H_    0.294183 0.600845 0.892681 0.093167
H36   H     H_    0.334839 0.049372 0.393056 0.085710
H37   H     H_    0.862225 0.942445 0.605726 0.079377
H38   H     H_    0.813426 0.260118 0.539193 0.055796
H39   H     H_    0.276729 0.792335 0.206377 -0.071417
H40   H     H_    0.381336 0.729781 0.452548 0.058962
H41   H     H_    0.000564 0.848184 0.076373 0.152610
H42   H     H_    0.209244 0.919071 0.085935 0.107678
H43   H     H_    0.341135 0.744344 0.627292 0.022762
H44   H     H_    0.128862 0.728435 0.588462 0.052789
H45   H     H_    0.058223 0.258138 0.402289 0.074999
H46   H     H_    0.568046 0.997065 0.739930 0.065233
H47   H     H_    0.443476 0.879161 0.780305 0.040595
H48   H     H_    0.366843 0.007284 0.785382 0.108435
H49   H     H_    0.874153 0.093107 0.260724 0.116178
H50   H     H_    0.915556 0.071540 0.382499 0.077202
H51   H     H_    0.085220 0.098435 0.302648 0.140754
H52   H     H_    0.834486 0.655040 0.714097 0.006997
O1    O     O_2   0.887370 0.460630 0.272300 -0.471152
O2    O     O_2   0.203681 0.112794 0.575844 -0.439214
O3    O     O_3   0.084683 0.124639 0.745001 -0.575190
O4    O     O_3   0.129410 0.451380 0.388510 -0.495167
O5    O     O_3   0.575400 0.626570 0.547370 -0.492744
O6    O     O_2   0.344320 0.238700 0.455090 -0.469017
O7    O     O_3   0.512082 0.222583 0.298827 -0.654096
O8    O     O_2   0.385896 0.398875 0.832124 -0.493981
O9    O     O_3   0.475162 0.208561 0.823298 -0.574900
O10   O     O_3   0.670210 0.653170 0.329170 -0.479561
O11   O     O_2   0.791311 0.594170 0.165687 -0.495229
O12   O     O_3   0.679192 0.766228 0.695155 -0.641027
O13   O     O_3   0.018731 0.289841 0.261770 -0.639504
O14   O     O_3   0.720372 0.787553 0.173548 -0.591998
O15   O     O_2   0.845380 0.761330 0.544970 -0.494482
O16   O     O_3   0.088930 0.704860 0.376040 -0.489528
O17   O     O_2   0.000894 0.888715 0.430612 -0.502699
O18   O     O_3   0.370544 0.937720 0.653541 -0.656340
O19   O     O_3   0.098030 0.880229 0.256730 -0.599436
O20   O     O_2   0.302330 0.539400 0.727760 -0.465582
O21   O     O_3   0.060300 0.548700 0.611500 -0.496975
O22   O     O_3   0.519500 0.346920 0.670840 -0.440327
O23   O     O_3   0.175500 0.711530 0.731906 -0.670822
O24   O     O_3   0.614310 0.373510 0.452640 -0.482433
O25   O     O_3   0.100780 0.295230 0.623970 -0.470676
P1    P     P_3+3 0.054400 0.427280 0.286870 0.967022
P2    P     P_3+3 0.668300 0.742890 0.573060 0.972985
P3    P     P_3+3 0.133169 0.842503 0.371584 0.936208
P4    P     P_3+3 0.135310 0.572810 0.713130 0.965844
P5    P     P_3+3 0.060602 0.156440 0.627560 0.994428
P6    P     P_3+3 0.658344 0.656627 0.206702 0.956687
P7    P     P_3+3 0.526676 0.242404 0.421040 0.934450
P8    P     P_3+3 0.528699 0.342656 0.793983 0.979071

loop_
_geom_bond_atom_site_label_1
_geom_bond_atom_site_label_2
_ccdc_geom_bond_type
C12   O14   S    
C13   H32   S    
C4    H39   S    
C27   P5    S    
C39   C40   S    
C32   H50   S    
O13   P1    S    
Ba1   O4    S    
C29   H37   S    
C39   H24   S    
C36   H46   S    
C9    C17   A    
C24   C25   A    
C38   H20   S    
O1    P1    D    
C12   H1    S    
C33   C35   S    
C31   H45   S    
C22   C24   A    
C20   H36   S    
C3    H29   S    
C23   O7    S    
C13   C14   A    
C38   H19   S    
Ba1   Ba2   S    
Ba1   O24   S    
Ba1   P2    S    
C4    O19   S    
Ba2   O21   S    
C7    C17   A    
O3    P5    S    
C19   H40   S    
C14   C15   A    
C10   C15   A    
C16   H41   S    
Ba1   O21   S    
C30   O18   S    
C35   H4    S    
C7    C8    A    
C30   H12   S    
C26   P7    S    
O4    P1    S    
Ba2   O5    S    
C24   C29   A    
C18   H38   S    
C40   H25   S    
C31   O13   S    
C4    C16   S    
Ba1   O5    S    
C6    H30   S    
Ba2   O22   S    
Ba1   P1    S    
C18   C27   A    
C37   H18   S    
C16   H42   S    
O16   P3    S    
C5    C6    A    
C34   H11   S    
O17   P3    D    
O2    P5    D    
C34   H14   S    
C37   C38   S    
C3    C5    A    
C36   O18   S    
C1    H8    S    
O25   P5    S    
C6    C7    A    
C37   O3    S    
C39   H22   S    
C18   C26   A    
Ba2   O6    S    
C36   H48   S    
C40   H26   S    
C17   H35   S    
C34   H13   S    
Ba1   O15   S    
C35   H6    S    
Ba2   O20   S    
C16   H16   S    
O9    P8    S    
C9    C10   A    
C22   P2    S    
C31   C32   S    
O23   P4    S    
C35   H5    S    
O8    P8    D    
C14   P8    S    
C1    C12   S    
O19   P3    S    
O10   P6    S    
Ba2   O4    S    
O7    P7    S    
Ba2   P4    S    
C20   C25   A    
C11   C13   A    
C15   H31   S    
C28   H43   S    
C2    C8    A    
C33   H2    S    
C30   H23   S    
C41   H33   S    
C4    H27   S    
C36   H47   S    
Ba2   O25   S    
O20   P4    D    
O21   P4    S    
C8    C41   A    
C32   H51   S    
C23   H10   S    
C2    C3    A    
C21   P3    S    
Ba2   O24   S    
C33   H52   S    
C10   C41   A    
C28   O23   S    
O11   P6    D    
C1    H3    S    
C38   H21   S    
C39   O9    S    
C19   C21   A    
C23   H9    S    
C27   C29   A    
Ba1   O16   S    
C28   C30   S    
C9    C11   A    
C31   H34   S    
C12   H7    S    
Ba1   O1    S    
C37   H17   S    
C40   H28   S    
O6    P7    D    
C2    P1    S    
C11   P4    S    
O5    P2    S    
C5    P6    S    
O22   P8    S    
C32   H49   S    
C33   O12   S    
C23   C34   S    
C1    H15   S    
O14   P6    S    
C19   C22   A    
C25   C26   A    
C20   C21   A    
O12   P2    S    
C28   H44   S    
O15   P2    D    
Ba1   O10   S    
O24   P7    S    
