data_mof_unit_5262.cif
_audit_creation_date              2013-03-05T15:48:14-0500
_audit_creation_method            fapswitch 2.2
_symmetry_space_group_name_H-M    P1
_symmetry_Int_Tables_number       1
_space_group_crystal_system       triclinic
_cell_length_a                    15.685685
_cell_length_b                    15.656718
_cell_length_c                    34.676763
_cell_angle_alpha                 90.298774
_cell_angle_beta                  90.114014
_cell_angle_gamma                 119.707232
_cell_volume                      7396.65140658

loop_
_atom_site_label
_atom_site_type_symbol
_atom_site_description
_atom_site_fract_x
_atom_site_fract_y
_atom_site_fract_z
_atom_type_partial_charge
O1    O     O_R   0.498680 0.159540 0.541860 -0.459805
O2    O     O_R   0.840460 0.339140 0.541860 -0.439775
O3    O     O_R   0.660860 0.501320 0.541860 -0.484060
O4    O     O_R   0.159540 0.498680 0.041860 -0.479249
O5    O     O_R   0.339140 0.840460 0.041860 -0.456774
O6    O     O_R   0.501320 0.660860 0.041860 -0.465182
O7    O     O_R   0.532760 0.358060 0.540030 -0.465870
O8    O     O_R   0.641940 0.174700 0.540030 -0.471791
O9    O     O_R   0.825300 0.467240 0.540030 -0.524984
O10   O     O_R   0.358060 0.532760 0.040030 -0.470762
O11   O     O_R   0.174700 0.641940 0.040030 -0.473530
O12   O     O_R   0.467240 0.825300 0.040030 -0.468964
C1    C     C_R   0.578474 0.441605 0.555181 0.590820
C2    C     C_R   0.559226 0.137495 0.555302 0.596956
C3    C     C_R   0.863284 0.422076 0.555261 0.578835
C4    C     C_R   0.441046 0.579005 0.055334 0.605539
C5    C     C_R   0.137051 0.559010 0.054614 0.635395
C6    C     C_R   0.421770 0.863013 0.055331 0.606800
O13   O     O_R   0.498590 0.161190 0.456930 -0.459229
O14   O     O_R   0.838810 0.337400 0.456930 -0.472059
O15   O     O_R   0.662600 0.501410 0.456930 -0.531639
O16   O     O_R   0.161190 0.498590 0.956930 -0.459929
O17   O     O_R   0.337400 0.838810 0.956930 -0.447819
O18   O     O_R   0.501410 0.662600 0.956930 -0.537905
O19   O     O_R   0.532680 0.359580 0.461300 -0.460927
O20   O     O_R   0.640420 0.173100 0.461300 -0.505036
O21   O     O_R   0.826900 0.467320 0.461300 -0.497049
O22   O     O_R   0.359580 0.532680 0.961300 -0.468950
O23   O     O_R   0.173100 0.640420 0.961300 -0.485502
O24   O     O_R   0.467320 0.826900 0.961300 -0.531420
C7    C     C_R   0.577144 0.442559 0.445770 0.555001
C8    C     C_R   0.556303 0.132513 0.446270 0.576822
C9    C     C_R   0.813882 0.394347 0.440237 0.539680
C10   C     C_R   0.442532 0.577049 0.945613 0.572722
C11   C     C_R   0.134385 0.557158 0.945639 0.615066
C12   C     C_R   0.422115 0.864595 0.945366 0.586846
Cr1   Cr    Cr6+3 0.522350 0.263930 0.500020 1.123372
Cr2   Cr    Cr6+3 0.736070 0.258420 0.500020 1.113741
Cr3   Cr    Cr6+3 0.741580 0.477650 0.500020 1.064203
Cr4   Cr    Cr6+3 0.263930 0.522350 0.000020 1.117435
Cr5   Cr    Cr6+3 0.258420 0.736070 0.000020 1.138880
Cr6   Cr    Cr6+3 0.477650 0.741580 0.000020 1.082517
O25   O     O_3   0.666667 0.333333 0.499990 -0.313922
O26   O     O_3   0.333333 0.666667 0.999990 -0.294310
N1    N     N_R   0.922231 0.419088 0.773759 -0.103872
N2    N     N_R   0.578294 0.493872 0.774716 -0.113695
N3    N     N_R   0.494324 0.082112 0.774897 -0.102195
N4    N     N_R   0.416563 0.915562 0.275182 -0.098245
N5    N     N_R   0.474969 0.563647 0.275353 -0.102717
N6    N     N_R   0.917253 0.394187 0.260681 -0.120149
N7    N     N_R   0.914218 0.411770 0.735541 -0.143545
N8    N     N_R   0.586548 0.492689 0.736571 -0.143880
N9    N     N_R   0.496125 0.091220 0.736735 -0.144134
N10   N     N_R   0.409323 0.907027 0.236966 -0.123428
N11   N     N_R   0.470681 0.572040 0.237350 -0.107227
N12   N     N_R   0.943454 0.406273 0.223842 -0.176033
C13   C     C_R   0.917662 0.456585 0.592516 -0.059011
C14   C     C_R   0.545499 0.461541 0.592661 -0.017160
C15   C     C_R   0.541388 0.086845 0.593051 -0.015812
C16   C     C_R   0.455020 0.914466 0.093209 -0.016667
C17   C     C_R   0.459942 0.548055 0.093199 -0.014853
C18   C     C_R   0.092396 0.544334 0.092596 -0.005590
C19   C     C_R   0.960452 0.403927 0.609150 0.212213
C20   C     C_R   0.598049 0.556090 0.610018 0.208854
C21   C     C_R   0.446300 0.041068 0.609481 0.203569
C22   C     C_R   0.403186 0.956998 0.110771 0.204919
C23   C     C_R   0.557364 0.587456 0.107049 0.207677
C24   C     C_R   0.997435 0.465680 0.099666 0.213441
C25   C     C_R   0.982237 0.413603 0.648805 0.045588
C26   C     C_R   0.588374 0.567140 0.649740 0.051012
C27   C     C_R   0.435026 0.020989 0.649199 0.045992
C28   C     C_R   0.413276 0.976931 0.150593 0.055745
C29   C     C_R   0.574299 0.579659 0.146359 0.053056
C30   C     C_R   0.960526 0.449789 0.137453 0.061313
C31   C     C_R   0.967367 0.480064 0.671318 -0.042340
C32   C     C_R   0.523014 0.485401 0.671647 -0.028536
C33   C     C_R   0.517491 0.042124 0.672092 -0.026854
C34   C     C_R   0.477971 0.958570 0.172571 -0.019750
C35   C     C_R   0.494242 0.531401 0.171612 -0.023768
C36   C     C_R   0.019569 0.511538 0.167933 -0.021883
C37   C     C_R   0.938741 0.542845 0.653964 0.227993
C38   C     C_R   0.461584 0.394457 0.653740 0.189272
C39   C     C_R   0.610013 0.076624 0.655176 0.190844
C40   C     C_R   0.538244 0.927610 0.154583 0.191580
C41   C     C_R   0.397441 0.484607 0.157398 0.190090
C42   C     C_R   0.114872 0.589659 0.160546 0.209535
C43   C     C_R   0.913857 0.531518 0.614729 0.034079
C44   C     C_R   0.472401 0.382253 0.614220 0.028799
C45   C     C_R   0.622251 0.098983 0.615679 0.028001
C46   C     C_R   0.527349 0.905905 0.114896 0.031588
C47   C     C_R   0.380104 0.492318 0.118179 0.031096
C48   C     C_R   0.150852 0.606183 0.122815 0.040124
N13   N     N_R   0.056539 0.564961 0.729832 -0.149203
N14   N     N_R   0.440228 0.496699 0.729264 -0.151556
N15   N     N_R   0.518226 0.954681 0.730026 -0.146815
N16   N     N_R   0.565563 0.045011 0.231162 -0.134479
N17   N     N_R   0.554052 0.484252 0.228199 -0.172189
N18   N     N_R   0.994801 0.573933 0.229301 -0.121176
N19   N     N_R   0.064815 0.571972 0.768021 -0.131508
N20   N     N_R   0.432344 0.498494 0.767366 -0.132502
N21   N     N_R   0.515827 0.945266 0.768134 -0.144734
N22   N     N_R   0.572507 0.053818 0.269346 -0.094413
N23   N     N_R   0.558075 0.475593 0.266163 -0.109842
N24   N     N_R   0.969322 0.562083 0.266234 -0.123198
C49   C     C_R   0.997586 0.499501 0.790667 0.400789
C50   C     C_R   0.500879 0.496636 0.790770 0.396022
C51   C     C_R   0.504360 0.009025 0.791279 0.393877
C52   C     C_R   0.498353 0.989173 0.292062 0.401518
C53   C     C_R   0.518104 0.514550 0.290290 0.402014
C54   C     C_R   0.930767 0.472087 0.282446 0.406399
C55   C     C_R   0.981545 0.484362 0.713053 0.346607
C56   C     C_R   0.517833 0.494512 0.713347 0.353819
C57   C     C_R   0.507593 0.027302 0.713769 0.353859
C58   C     C_R   0.483448 0.972021 0.214420 0.349070
C59   C     C_R   0.509977 0.532322 0.213222 0.356268
C60   C     C_R   0.982562 0.496293 0.207528 0.358656
C61   C     C_R   0.001109 0.426948 0.854136 0.170512
C62   C     C_R   0.572972 0.566505 0.855443 0.209104
C63   C     C_R   0.424697 0.999805 0.854638 0.171940
C64   C     C_R   0.425881 0.996520 0.355220 0.182779
C65   C     C_R   0.561148 0.576842 0.357986 0.209846
C66   C     C_R   0.802345 0.399214 0.331989 0.225788
C67   C     C_R   0.032625 0.440725 0.892748 0.062349
C68   C     C_R   0.559345 0.584151 0.893969 0.058129
C69   C     C_R   0.406279 0.966126 0.892874 0.068053
C70   C     C_R   0.439433 0.028980 0.393749 0.055940
C71   C     C_R   0.573524 0.558794 0.396674 0.059723
C72   C     C_R   0.774675 0.379967 0.370616 0.053712
C73   C     C_R   0.066874 0.610984 0.890650 0.056442
C74   C     C_R   0.385519 0.459274 0.889218 0.067382
C75   C     C_R   0.542513 0.932407 0.889739 0.048296
C76   C     C_R   0.607895 0.059172 0.392374 0.048807
C77   C     C_R   0.484295 0.381679 0.383690 0.058080
C78   C     C_R   0.946078 0.479775 0.390916 0.083307
C79   C     C_R   0.037153 0.597545 0.851557 0.182779
C80   C     C_R   0.399422 0.442873 0.850235 0.181966
C81   C     C_R   0.561988 0.968149 0.851833 0.207434
C82   C     C_R   0.594920 0.028746 0.353334 0.201281
C83   C     C_R   0.473598 0.399955 0.344895 0.184393
C84   C     C_R   0.974294 0.499951 0.352117 0.209683
C85   C     C_R   0.009599 0.507168 0.832873 -0.024710
C86   C     C_R   0.491768 0.500642 0.832885 -0.040076
C87   C     C_R   0.498813 0.995305 0.833399 -0.037410
C88   C     C_R   0.505557 0.002561 0.334284 -0.004496
C89   C     C_R   0.516388 0.497441 0.331779 -0.032097
C90   C     C_R   0.902186 0.458160 0.322818 -0.046641
C91   C     C_R   0.073812 0.535104 0.910014 0.024503
C92   C     C_R   0.463538 0.537406 0.909967 -0.023187
C93   C     C_R   0.459787 0.924564 0.909679 -0.005220
C94   C     C_R   0.533194 0.069255 0.411203 0.009464
C95   C     C_R   0.540805 0.461210 0.409080 -0.007031
C96   C     C_R   0.846065 0.418529 0.400142 -0.026301
N25   N     N_R   0.982953 0.341499 0.585792 0.126243
O27   O     O_R   0.961700 0.254389 0.597557 -0.242164
O28   O     O_R   0.029964 0.374048 0.553504 -0.276539
N26   N     N_R   0.660681 0.641076 0.587399 0.120220
O29   O     O_R   0.748032 0.704938 0.599665 -0.220967
O30   O     O_R   0.628390 0.657380 0.555245 -0.292144
N27   N     N_R   0.361013 0.014143 0.585883 0.123362
O31   O     O_R   0.292641 0.032369 0.597344 -0.237151
O32   O     O_R   0.349389 0.967056 0.553517 -0.277902
N28   N     N_R   0.339841 0.979642 0.088344 0.124336
O33   O     O_R   0.251759 0.953989 0.100205 -0.238289
O34   O     O_R   0.371497 0.029161 0.056538 -0.280731
N29   N     N_R   0.639258 0.635386 0.081252 0.123059
O35   O     O_R   0.715396 0.719088 0.090681 -0.243369
O36   O     O_R   0.638645 0.594400 0.048426 -0.295535
N30   N     N_R   0.938029 0.402742 0.068592 0.117234
O37   O     O_R   0.885558 0.308166 0.073435 -0.243019
O38   O     O_R   0.935180 0.439693 0.035400 -0.304974
N31   N     N_3   0.879062 0.593409 0.599116 -0.496570
H1    H     H_    0.803795 0.551477 0.593677 0.267080
H2    H     H_    0.917692 0.626746 0.573981 0.277320
N32   N     N_3   0.413744 0.287319 0.596603 -0.535346
H3    H     H_    0.339992 0.268735 0.597726 0.302598
H4    H     H_    0.423240 0.235415 0.612049 0.272974
N33   N     N_3   0.718486 0.141007 0.599198 -0.535536
H5    H     H_    0.742658 0.089809 0.600824 0.305719
H6    H     H_    0.766303 0.203798 0.615060 0.267610
N34   N     N_3   0.585078 0.868526 0.097196 -0.540716
H7    H     H_    0.659091 0.922427 0.098772 0.297277
H8    H     H_    0.574689 0.806345 0.112219 0.266816
N35   N     N_3   0.281153 0.444815 0.103730 -0.550280
H9    H     H_    0.246453 0.370282 0.110861 0.283768
H10   H     H_    0.243686 0.476957 0.116628 0.265779
N36   N     N_3   0.249818 0.681773 0.115144 -0.600299
H11   H     H_    0.256323 0.749915 0.121729 0.281481
H12   H     H_    0.297877 0.671111 0.132772 0.252885
N37   N     N_3   0.027100 0.359724 0.914040 -0.538358
H13   H     H_    0.065389 0.331264 0.899053 0.281951
H14   H     H_    0.953504 0.305061 0.916074 0.286881
N38   N     N_3   0.644136 0.652434 0.915786 -0.512568
H15   H     H_    0.642043 0.623638 0.943131 0.272134
H16   H     H_    0.645176 0.719441 0.918171 0.273403
N39   N     N_3   0.329754 0.969940 0.914142 -0.536323
H17   H     H_    0.263821 0.931199 0.898787 0.286578
H18   H     H_    0.347084 0.043332 0.916795 0.281139
N40   N     N_3   0.358782 0.024898 0.414809 -0.538506
H19   H     H_    0.330878 0.063109 0.399508 0.272562
H20   H     H_    0.303761 0.951391 0.417009 0.291861
N41   N     N_3   0.622653 0.641161 0.422541 -0.516917
H21   H     H_    0.583580 0.625339 0.448374 0.265548
H22   H     H_    0.693569 0.654044 0.428001 0.276420
N42   N     N_3   0.672820 0.321379 0.379467 -0.560915
H23   H     H_    0.663838 0.258536 0.393073 0.240773
H24   H     H_    0.654076 0.360547 0.398753 0.217633
N43   N     N_3   0.021779 0.357091 0.665743 -0.489493
H25   H     H_    0.088910 0.405414 0.678872 0.264977
H26   H     H_    0.973450 0.311827 0.686943 0.295244
N44   N     N_3   0.644162 0.662382 0.667419 -0.487729
H27   H     H_    0.595467 0.681004 0.680449 0.260884
H28   H     H_    0.689096 0.658452 0.688823 0.293970
N45   N     N_3   0.338840 0.976853 0.665814 -0.490959
H29   H     H_    0.324342 0.911187 0.679060 0.262193
H30   H     H_    0.338137 0.024470 0.686890 0.293778
N46   N     N_3   0.358777 0.017948 0.168250 -0.496208
H31   H     H_    0.408212 0.084113 0.181826 0.265869
H32   H     H_    0.312753 0.969204 0.189181 0.295620
N47   N     N_3   0.673378 0.622562 0.160316 -0.507567
H33   H     H_    0.683793 0.566941 0.171943 0.266703
H34   H     H_    0.683875 0.673288 0.182123 0.279085
N48   N     N_3   0.861145 0.373929 0.143961 -0.513853
H35   H     H_    0.823563 0.404395 0.158117 0.256691
H36   H     H_    0.861604 0.319857 0.161327 0.288347
N49   N     N_R   0.928320 0.614372 0.676643 0.123972
O39   O     O_R   0.968222 0.705173 0.665276 -0.195139
O40   O     O_R   0.873614 0.587717 0.707295 -0.248922
N50   N     N_R   0.392436 0.312265 0.676139 0.092041
O41   O     O_R   0.299143 0.269491 0.668150 -0.241482
O42   O     O_R   0.422513 0.280432 0.704772 -0.249729
N51   N     N_R   0.693468 0.095784 0.678589 0.090649
O43   O     O_R   0.742957 0.051109 0.671361 -0.241796
O44   O     O_R   0.719845 0.157559 0.707354 -0.250551
N52   N     N_R   0.605813 0.911207 0.177067 0.089402
O45   O     O_R   0.699278 0.959519 0.169665 -0.255660
O46   O     O_R   0.574092 0.848422 0.205208 -0.251516
N53   N     N_R   0.316485 0.428294 0.182817 0.097677
O47   O     O_R   0.315093 0.358749 0.203661 -0.218648
O48   O     O_R   0.246985 0.450023 0.186918 -0.272757
N54   N     N_R   0.177673 0.648786 0.191584 0.101023
O49   O     O_R   0.213559 0.743599 0.191843 -0.294159
O50   O     O_R   0.198698 0.607791 0.219801 -0.196630
N55   N     N_R   0.969721 0.333641 0.835759 0.093959
O51   O     O_R   0.888709 0.256553 0.846311 -0.242908
O52   O     O_R   0.024367 0.324690 0.809687 -0.221074
N56   N     N_R   0.668326 0.623254 0.838534 0.128772
O53   O     O_R   0.743469 0.620830 0.853235 -0.213893
O54   O     O_R   0.682232 0.686126 0.811496 -0.231371
N57   N     N_R   0.361738 0.030104 0.836583 0.093968
O55   O     O_R   0.364742 0.111290 0.847308 -0.256807
O56   O     O_R   0.298275 0.974331 0.810591 -0.223324
N58   N     N_R   0.333626 0.966990 0.336538 0.088766
O57   O     O_R   0.255498 0.886439 0.346725 -0.235375
O58   O     O_R   0.326555 0.023363 0.310802 -0.233519
N59   N     N_R   0.600463 0.676464 0.345050 0.126288
O59   O     O_R   0.581217 0.737109 0.363784 -0.222920
O60   O     O_R   0.660882 0.708804 0.316135 -0.249448
N60   N     N_R   0.728503 0.359451 0.302118 0.125902
O61   O     O_R   0.659056 0.267984 0.303112 -0.229640
O62   O     O_R   0.728295 0.415446 0.274560 -0.288722
N61   N     N_3   0.090570 0.700691 0.911029 -0.552115
H37   H     H_    0.079336 0.749301 0.894253 0.289112
H38   H     H_    0.040875 0.681812 0.933775 0.250705
N62   N     N_3   0.293181 0.397824 0.908112 -0.550881
H39   H     H_    0.242038 0.342516 0.890146 0.284493
H40   H     H_    0.306779 0.361009 0.930263 0.244221
N63   N     N_3   0.608269 0.904708 0.907102 -0.528604
H41   H     H_    0.632592 0.940591 0.933703 0.258687
H42   H     H_    0.571900 0.828509 0.910553 0.261636
N64   N     N_3   0.696328 0.081253 0.413148 -0.550883
H43   H     H_    0.743265 0.066207 0.396927 0.295816
H44   H     H_    0.675625 0.033034 0.436465 0.250169
N65   N     N_3   0.439291 0.282258 0.397240 -0.558660
H45   H     H_    0.469814 0.245152 0.382803 0.279399
H46   H     H_    0.364109 0.247366 0.391092 0.271470
N66   N     N_3   0.020291 0.519130 0.420438 -0.513032
H47   H     H_    0.017690 0.461062 0.436103 0.277636
H48   H     H_    0.005931 0.563223 0.438995 0.268742
N67   N     N_R   0.037215 0.676213 0.830410 0.091645
O63   O     O_R   0.957910 0.662253 0.812825 -0.196961
O64   O     O_R   0.119083 0.757813 0.825034 -0.248202
N68   N     N_R   0.319402 0.369035 0.827858 0.089790
O65   O     O_R   0.328259 0.299722 0.810722 -0.198732
O66   O     O_R   0.242637 0.377878 0.820807 -0.250761
N69   N     N_R   0.645807 0.975699 0.831838 0.131318
O67   O     O_R   0.703662 0.054962 0.812807 -0.198666
O68   O     O_R   0.664339 0.903368 0.832318 -0.213666
N70   N     N_R   0.673331 0.027281 0.332583 0.092707
O69   O     O_R   0.658718 0.947245 0.315196 -0.198908
O70   O     O_R   0.755807 0.108489 0.327541 -0.251445
N71   N     N_R   0.419144 0.319221 0.318702 0.095912
O71   O     O_R   0.347319 0.315253 0.298449 -0.218960
O72   O     O_R   0.446727 0.254514 0.312460 -0.238179
N72   N     N_R   0.076451 0.560227 0.342631 0.127120
O73   O     O_R   0.116811 0.531133 0.316814 -0.225080
O74   O     O_R   0.130692 0.642483 0.361039 -0.209382

loop_
_geom_bond_atom_site_label_1
_geom_bond_atom_site_label_2
_geom_bond_distance
_ccdc_geom_bond_type
N21   C51   1.357669 A    
O7    C1    1.250154 A    
N24   C54   1.353597 A    
N31   H1    1.044048 S    
N59   O60   1.301292 A    
O20   C8    1.256644 A    
N29   O35   1.301291 A    
N39   H18   1.044964 S    
C9    C96   1.466365 S    
N16   N22   1.329167 A    
C63   C87   1.408192 A    
N41   H21   1.045684 S    
C24   C30   1.406286 A    
C61   C85   1.408227 A    
N71   O71   1.301292 A    
C77   C95   1.415251 A    
C52   C88   1.474091 S    
C21   N27   1.438775 S    
C76   N64   1.442454 S    
C83   N71   1.437774 S    
C41   C47   1.403859 A    
C44   N32   1.435895 S    
N11   C59   1.357651 A    
N45   H29   1.045630 S    
O21   C9    1.280614 A    
N4    N10   1.330179 A    
O16   C11   1.247463 A    
O15   C7    1.251246 A    
C22   N28   1.437594 S    
N57   O55   1.300711 A    
N52   O46   1.301272 A    
C79   N67   1.436333 S    
C43   N31   1.434731 S    
N58   O58   1.300995 A    
N26   O29   1.301305 A    
N71   O72   1.301114 A    
C17   C47   1.417475 A    
N46   H32   1.045089 S    
C65   C71   1.405195 A    
N49   O40   1.301398 A    
C35   C59   1.462165 S    
O8    Cr2   1.982932 S    
C78   C84   1.404998 A    
N72   O73   1.301366 A    
C48   N36   1.437085 S    
C12   C93   1.492387 S    
N7    C55   1.355750 A    
C75   N63   1.434577 S    
N8    C56   1.355869 A    
C76   C82   1.413226 A    
N55   O51   1.300654 A    
O23   C11   1.252913 A    
N2    N8    1.330243 A    
O9    Cr3   1.970595 S    
C76   C94   1.417572 A    
N43   H26   1.045235 S    
C29   N47   1.435156 S    
O10   Cr4   1.970404 S    
C72   N42   1.428462 S    
N14   C56   1.353272 A    
N37   H14   1.044894 S    
O2    Cr2   2.074561 S    
N32   H3    1.044582 S    
C80   C86   1.410258 A    
O13   Cr1   2.082696 S    
O19   Cr1   1.962925 S    
N19   C49   1.357516 A    
C73   C79   1.412986 A    
C10   C92   1.489312 S    
C72   C96   1.409131 A    
C15   C45   1.419929 A    
N25   O27   1.301304 A    
C19   C25   1.405481 A    
O21   Cr3   1.959444 S    
N62   H39   1.041831 S    
N33   H6    1.045699 S    
C18   C48   1.407881 A    
C3    C13   1.489972 S    
C42   N54   1.437828 S    
N67   O63   1.301214 A    
N27   O32   1.301452 A    
N22   C52   1.357576 A    
N40   H19   1.045425 S    
C23   C29   1.405724 A    
C20   C26   1.405213 A    
N25   O28   1.301456 A    
C80   N68   1.436184 S    
N13   N19   1.329015 A    
C41   N53   1.438662 S    
O3    C1    1.251734 A    
O1    Cr1   2.083173 S    
N3    N9    1.330568 A    
C71   C95   1.418933 A    
O12   C6    1.246795 A    
C23   N29   1.438618 S    
C68   N38   1.436149 S    
N30   O38   1.301471 A    
C81   C87   1.410414 A    
C16   C22   1.417637 A    
N29   O36   1.301464 A    
C30   C36   1.416874 A    
N53   O47   1.301233 A    
C82   N70   1.436093 S    
C66   C72   1.396508 A    
N41   H22   1.044163 S    
N16   C58   1.353977 A    
O1    C2    1.250263 A    
C34   C58   1.461524 S    
Cr6   O26   1.966841 S    
C78   N66   1.435455 S    
N6    C54   1.354857 A    
C33   C57   1.461263 S    
O13   C8    1.249072 A    
N15   C57   1.353765 A    
N13   C55   1.353917 A    
N50   O42   1.301212 A    
N50   O41   1.300691 A    
N1    C49   1.356672 A    
N9    C57   1.356018 A    
C65   N59   1.438544 S    
N28   O34   1.301394 A    
C63   N57   1.434320 S    
N45   H30   1.045250 S    
C14   C20   1.418587 A    
C39   C45   1.405228 A    
N56   O54   1.301248 A    
N17   N23   1.328702 A    
N57   O56   1.300981 A    
C77   N65   1.435959 S    
O22   C10   1.257928 A    
C79   C85   1.411374 A    
O12   Cr6   1.965658 S    
N43   H25   1.045644 S    
C36   C60   1.465748 S    
N3    C51   1.357154 A    
C22   C28   1.405356 A    
N46   H31   1.045640 S    
C19   N25   1.439023 S    
C16   C46   1.420925 A    
C66   N60   1.440799 S    
C32   C38   1.403597 A    
N47   H33   1.044982 S    
N61   H38   1.045781 S    
C46   N34   1.436281 S    
N68   O65   1.301198 A    
O16   Cr4   2.087724 S    
O20   Cr2   1.955784 S    
C66   C90   1.406413 A    
Cr3   O25   1.963326 S    
O5    C6    1.251024 A    
N12   C60   1.354839 A    
N55   O52   1.300992 A    
C27   N45   1.435296 S    
C74   C92   1.419612 A    
C74   C80   1.412067 A    
C33   C39   1.404217 A    
O18   C10   1.252222 A    
C13   C43   1.425973 A    
N38   H16   1.043970 S    
Cr1   O25   1.966507 S    
C40   N52   1.437271 S    
N35   H9    1.045542 S    
O22   Cr4   1.962074 S    
O4    Cr4   2.082591 S    
N69   O67   1.301473 A    
C75   C81   1.405016 A    
C34   C40   1.404028 A    
C5    C18   1.457897 S    
N47   H34   1.045617 S    
O14   Cr2   2.100618 S    
N52   O45   1.300683 A    
C17   C23   1.416355 A    
N18   C60   1.357618 A    
N27   O31   1.301308 A    
O15   Cr3   2.088311 S    
C69   N39   1.436115 S    
N14   N20   1.328726 A    
C32   C56   1.458677 S    
C78   C96   1.413191 A    
C18   C24   1.407793 A    
N54   O50   1.301231 A    
C7    C95   1.481479 S    
O7    Cr1   1.965409 S    
N66   H48   1.044739 S    
N51   O44   1.301250 A    
N32   H4    1.045763 S    
C62   C68   1.400926 A    
N66   H47   1.044888 S    
N48   H36   1.044378 S    
O2    C3    1.250011 A    
C71   N41   1.435863 S    
C37   C43   1.400583 A    
C64   C70   1.404723 A    
C69   C93   1.418036 A    
N36   H11   1.044149 S    
O4    C5    1.240464 A    
C24   N30   1.440599 S    
N44   H28   1.045392 S    
C6    C16   1.488653 S    
N30   O37   1.301326 A    
C28   N46   1.435341 S    
N42   H24   1.041605 S    
O17   C12   1.249662 A    
C45   N33   1.435652 S    
N53   O48   1.300819 A    
C26   C32   1.406703 A    
C26   N44   1.435339 S    
Cr5   O26   1.956293 S    
C65   C89   1.408859 A    
C75   C93   1.422512 A    
C67   N37   1.436010 S    
C4    C17   1.481270 S    
O14   C9    1.277863 A    
N36   H12   1.045841 S    
N59   O59   1.301221 A    
C42   C48   1.399658 A    
C61   N55   1.434854 S    
N60   O62   1.301313 A    
C27   C33   1.407780 A    
N63   H42   1.044167 S    
N34   H7    1.044595 S    
C63   C69   1.406164 A    
N5    C53   1.354692 A    
N28   O33   1.301283 A    
C64   C88   1.408945 A    
C40   C46   1.405443 A    
O5    Cr5   2.072767 S    
N56   O53   1.301046 A    
O11   C5    1.240334 A    
C50   C86   1.471721 S    
O8    C2    1.248991 A    
C68   C92   1.421008 A    
C74   N62   1.442879 S    
O23   Cr5   1.954993 S    
C47   N35   1.436019 S    
N68   O66   1.301246 A    
O19   C7    1.255012 A    
C53   C89   1.462673 S    
C64   N58   1.434408 S    
C13   C19   1.419428 A    
C67   C91   1.415059 A    
C62   C86   1.408354 A    
N5    N11   1.329910 A    
C14   C44   1.420186 A    
N63   H41   1.045398 S    
C62   N56   1.436007 S    
C77   C83   1.403752 A    
C1    C14   1.487503 S    
C31   C37   1.404463 A    
N20   C50   1.357528 A    
N31   H2    1.045302 S    
C29   C35   1.409089 A    
N17   C59   1.353683 A    
C30   N48   1.435541 S    
C31   C55   1.459895 S    
O17   Cr5   2.100539 S    
O24   C12   1.254200 A    
N23   C53   1.356794 A    
N70   O69   1.301215 A    
C73   N61   1.442714 S    
N33   H5    1.044559 S    
N35   H10   1.044279 S    
N60   O61   1.301213 A    
C61   C67   1.404410 A    
Cr2   O25   1.956112 S    
N69   O68   1.301436 A    
O10   C4    1.248763 A    
N38   H15   1.045665 S    
N34   H8    1.046012 S    
N72   O74   1.301220 A    
C70   C94   1.414291 A    
C70   N40   1.435914 S    
N4    C52   1.356960 A    
C25   N43   1.435419 S    
C38   N50   1.437409 S    
C82   C88   1.411808 A    
C38   C44   1.404880 A    
N10   C58   1.355680 A    
N26   O30   1.301461 A    
N54   O49   1.300853 A    
N65   H46   1.045870 S    
C35   C41   1.405678 A    
C37   N49   1.439465 S    
C20   N26   1.438478 S    
C25   C31   1.406919 A    
N70   O70   1.301432 A    
N64   H44   1.045780 S    
C21   C27   1.406201 A    
N67   O64   1.301314 A    
O9    C3    1.246663 A    
N37   H13   1.045679 S    
C49   C85   1.471933 S    
N6    N12   1.328196 A    
C73   C91   1.417859 A    
C84   N72   1.439806 S    
O18   Cr6   2.083364 S    
N2    C50   1.356768 A    
O6    C4    1.249676 A    
N39   H17   1.045805 S    
C84   C90   1.412308 A    
C36   C42   1.410290 A    
Cr4   O26   1.962808 S    
C8    C94   1.490258 S    
N42   H23   1.038409 S    
N62   H40   1.045752 S    
N44   H27   1.045621 S    
O6    Cr6   2.078981 S    
O11   Cr5   1.982877 S    
C28   C34   1.407691 A    
N51   O43   1.300699 A    
N61   H37   1.042009 S    
N1    N7    1.329949 A    
N64   H43   1.042162 S    
O24   Cr6   1.961088 S    
N40   H20   1.044938 S    
C39   N51   1.437619 S    
C2    C15   1.487643 S    
C81   N69   1.440069 S    
C54   C90   1.455076 S    
C11   C91   1.487881 S    
C51   C87   1.473871 S    
N48   H35   1.045655 S    
N18   N24   1.328701 A    
C15   C21   1.418106 A    
O3    Cr3   2.076608 S    
N15   N21   1.328945 A    
C83   C89   1.407140 A    
N58   O57   1.300644 A    
N49   O39   1.301174 A    
N65   H45   1.044495 S    
