data_mof_unit_10554.cif
_audit_creation_date              2012-12-11T16:44:13-0500
_audit_creation_method            fapswitch 2.2
_symmetry_space_group_name_H-M    P1
_symmetry_Int_Tables_number       1
_space_group_crystal_system       triclinic
_cell_length_a                    27.166413
_cell_length_b                    7.198396
_cell_length_c                    22.758883
_cell_angle_alpha                 89.999556
_cell_angle_beta                  101.521118
_cell_angle_gamma                 90.0
_cell_volume                      4360.92969771

loop_
_atom_site_label
_atom_site_type_symbol
_atom_type_description
_atom_site_fract_x
_atom_site_fract_y
_atom_site_fract_z
_atom_type_partial_charge
O1    O     O_R   0.707300 0.594030 0.176840 -0.533539
O2    O     O_R   0.292700 0.405970 0.823160 -0.533793
O3    O     O_R   0.792700 0.094030 0.323160 -0.533538
O4    O     O_R   0.207300 0.905970 0.676840 -0.533791
O5    O     O_R   0.697330 0.262360 0.295660 -0.539598
O6    O     O_R   0.302670 0.737640 0.704340 -0.539662
O7    O     O_R   0.802670 0.762360 0.204340 -0.539596
O8    O     O_R   0.197330 0.237640 0.795660 -0.539662
C1    C     C_R   0.684739 0.432364 0.311742 0.698081
C2    C     C_R   0.315208 0.567643 0.688181 0.698596
C3    C     C_R   0.815262 0.932365 0.188258 0.698083
C4    C     C_R   0.184792 0.067643 0.811819 0.698596
O9    O     O_R   0.701410 0.264250 0.175600 -0.535319
O10   O     O_R   0.298590 0.735750 0.824400 -0.535452
O11   O     O_R   0.798590 0.764250 0.324400 -0.535318
O12   O     O_R   0.201410 0.235750 0.675600 -0.535454
O13   O     O_R   0.796800 0.094950 0.202240 -0.538034
O14   O     O_R   0.203200 0.905050 0.797760 -0.537771
O15   O     O_R   0.703200 0.594950 0.297760 -0.538035
O16   O     O_R   0.296800 0.405050 0.702240 -0.537771
C5    C     C_R   0.690094 0.431578 0.152917 0.685919
C6    C     C_R   0.309939 0.568412 0.847051 0.685371
C7    C     C_R   0.809906 0.931577 0.347083 0.685926
C8    C     C_R   0.190061 0.068413 0.652949 0.685373
O17   O     O_3   0.781290 0.427390 0.258880 -0.372163
O18   O     O_3   0.218710 0.572610 0.741120 -0.372116
O19   O     O_3   0.718710 0.927390 0.241120 -0.372168
O20   O     O_3   0.281290 0.072610 0.758880 -0.372117
V1    V     V_3+5 0.744190 0.152150 0.248350 1.413575
V2    V     V_3+5 0.255810 0.847850 0.751650 1.413467
V3    V     V_3+5 0.755810 0.652150 0.251650 1.413580
V4    V     V_3+5 0.244190 0.347850 0.748350 1.413465
C9    C     C_R   0.154985 0.072765 0.594076 -0.047841
C10   C     C_R   0.844769 0.927154 0.406122 -0.050271
C11   C     C_R   0.345017 0.572763 0.905922 -0.047837
C12   C     C_R   0.655233 0.427157 0.093875 -0.050271
C13   C     C_R   0.130394 0.240961 0.500695 -0.173827
C14   C     C_R   0.869343 0.757627 0.499255 -0.166426
C15   C     C_R   0.369611 0.740971 0.999301 -0.173893
C16   C     C_R   0.630660 0.257627 0.000745 -0.166435
C17   C     C_R   0.166820 0.189625 0.549921 -0.154838
C18   C     C_R   0.833096 0.807843 0.449744 -0.156761
C19   C     C_R   0.333182 0.689613 0.950079 -0.154830
C20   C     C_R   0.666905 0.307832 0.050258 -0.156763
C21   C     C_R   0.106511 0.996044 0.585936 -0.212655
C22   C     C_R   0.893033 0.005890 0.414793 -0.205426
C23   C     C_R   0.393492 0.496060 0.914058 -0.212680
C24   C     C_R   0.606971 0.505915 0.085199 -0.205435
C25   C     C_R   0.068524 0.043213 0.534953 0.070086
C26   C     C_R   0.930883 0.959891 0.466077 0.085569
C27   C     C_R   0.431482 0.543250 0.965036 0.070066
C28   C     C_R   0.569123 0.459925 0.033912 0.085561
C29   C     C_R   0.080552 0.177552 0.494108 0.075269
C30   C     C_R   0.918745 0.826733 0.507219 0.091849
C31   C     C_R   0.419456 0.677604 0.005878 0.075242
C32   C     C_R   0.581260 0.326757 0.992775 0.091848
C33   C     C_R   0.018617 0.967693 0.524678 0.024688
C34   C     C_R   0.980889 0.034557 0.476152 0.038848
C35   C     C_R   0.481390 0.467737 0.975310 0.024747
C36   C     C_R   0.519118 0.534609 0.023833 0.038872
C37   C     C_R   0.993859 0.177359 0.439890 -0.234867
C38   C     C_R   0.005622 0.824867 0.560938 -0.247006
C39   C     C_R   0.506153 0.677445 0.060084 -0.234867
C40   C     C_R   0.494385 0.324912 0.939051 -0.246928
C41   C     C_R   0.042552 0.247768 0.447868 -0.032198
C42   C     C_R   0.956655 0.758026 0.553782 -0.024516
C43   C     C_R   0.457460 0.747868 0.052105 -0.032143
C44   C     C_R   0.543352 0.258070 0.946207 -0.024506
H1    H     H_    0.900935 0.089721 0.378553 0.105882
H2    H     H_    0.098641 0.912443 0.622243 0.107892
H3    H     H_    0.599067 0.589753 0.121436 0.105882
H4    H     H_    0.401361 0.412454 0.877752 0.107891
H5    H     H_    0.796291 0.743881 0.443549 0.112612
H6    H     H_    0.203980 0.250275 0.555356 0.111872
H7    H     H_    0.703709 0.243852 0.056457 0.112616
H8    H     H_    0.296020 0.750242 0.944649 0.111869
H9    H     H_    0.141429 0.335556 0.468709 0.133134
H10   H     H_    0.858625 0.657728 0.529915 0.131561
H11   H     H_    0.358576 0.835549 0.031290 0.133134
H12   H     H_    0.641377 0.157713 0.970090 0.131568
H13   H     H_    0.966091 0.242914 0.405750 0.137530
H14   H     H_    0.033190 0.760207 0.595519 0.137963
H15   H     H_    0.533925 0.743026 0.094212 0.137505
H16   H     H_    0.466819 0.260264 0.904466 0.137942
C45   C     C_R   0.861972 0.108583 0.120982 -0.151611
C46   C     C_R   0.138349 0.891317 0.879351 -0.149135
C47   C     C_R   0.638029 0.608581 0.379018 -0.151619
C48   C     C_R   0.361652 0.391319 0.620650 -0.149135
H17   H     H_    0.839605 0.230858 0.124823 0.140457
H18   H     H_    0.160624 0.768961 0.875295 0.140216
H19   H     H_    0.660396 0.730855 0.375177 0.140457
H20   H     H_    0.339376 0.268964 0.624706 0.140216
C49   C     C_R   0.898165 0.118800 0.085180 -0.173099
C50   C     C_R   0.102361 0.881079 0.915427 -0.169922
C51   C     C_R   0.601837 0.618798 0.414821 -0.173107
C52   C     C_R   0.397640 0.381080 0.584575 -0.169919
H21   H     H_    0.902516 0.247698 0.062214 0.181042
H22   H     H_    0.098067 0.752082 0.938365 0.180798
H23   H     H_    0.597486 0.747695 0.437787 0.181042
H24   H     H_    0.401934 0.252084 0.561637 0.180800
C53   C     C_R   0.927923 0.964147 0.078064 0.003847
C54   C     C_R   0.072716 0.035792 0.922825 0.002554
C55   C     C_R   0.572078 0.464145 0.421938 0.003858
C56   C     C_R   0.427285 0.535793 0.577177 0.002555
C57   C     C_R   0.921033 0.797828 0.108415 0.402112
C58   C     C_R   0.079555 0.202273 0.892529 0.404638
C59   C     C_R   0.578967 0.297827 0.391587 0.402102
C60   C     C_R   0.420446 0.702273 0.607473 0.404636
C61   C     C_R   0.884281 0.787680 0.143837 -0.201622
C62   C     C_R   0.116108 0.212445 0.856829 -0.199120
C63   C     C_R   0.615720 0.287679 0.356165 -0.201643
C64   C     C_R   0.383893 0.712446 0.643172 -0.199120
H25   H     H_    0.879838 0.658887 0.166834 0.159328
H26   H     H_    0.120514 0.341367 0.833884 0.160222
H27   H     H_    0.620162 0.158887 0.333167 0.159320
H28   H     H_    0.379486 0.841368 0.666117 0.160221
C65   C     C_R   0.854259 0.942595 0.150567 -0.115669
C66   C     C_R   0.145976 0.057400 0.849764 -0.116643
C67   C     C_R   0.645741 0.442594 0.349434 -0.115662
C68   C     C_R   0.354024 0.557401 0.650237 -0.116643
C69   C     C_R   0.964523 0.857922 0.990473 -0.072245
C70   C     C_R   0.036229 0.141717 0.010565 -0.071506
C71   C     C_R   0.535478 0.357920 0.509529 -0.072241
C72   C     C_R   0.463773 0.641719 0.489437 -0.071497
H29   H     H_    0.936545 0.748934 0.981519 0.150682
H30   H     H_    0.064205 0.250713 0.019519 0.150809
H31   H     H_    0.563456 0.248930 0.518483 0.150683
H32   H     H_    0.435798 0.750716 0.480483 0.150815
C73   C     C_R   0.999163 0.876734 0.952759 -0.126092
C74   C     C_R   0.001578 0.122942 0.048270 -0.127033
C75   C     C_R   0.500839 0.376733 0.547243 -0.126096
C76   C     C_R   0.498424 0.622943 0.451732 -0.127025
H33   H     H_    0.997494 0.781079 0.915704 0.177170
H34   H     H_    0.003221 0.218662 0.085305 0.175063
H35   H     H_    0.502507 0.281077 0.584299 0.177169
H36   H     H_    0.496781 0.718664 0.414697 0.175071
C77   C     C_R   0.035201 0.019430 0.962186 0.100585
C78   C     C_R   0.965532 0.980276 0.038827 0.101357
C79   C     C_R   0.464801 0.519431 0.537817 0.100581
C80   C     C_R   0.534470 0.480275 0.461175 0.101354
C81   C     C_R   0.051119 0.405147 0.409021 0.092211
C82   C     C_R   0.043082 0.382221 0.346525 -0.139610
C83   C     C_R   0.048705 0.532876 0.309628 -0.096745
C84   C     C_R   0.062166 0.707241 0.334812 -0.094566
C85   C     C_R   0.069969 0.731291 0.396911 -0.112879
C86   C     C_R   0.064206 0.581296 0.433981 -0.128296
H37   H     H_    0.032360 0.247959 0.326490 0.115713
H38   H     H_    0.042467 0.514589 0.261496 0.150360
H39   H     H_    0.066439 0.823824 0.306212 0.117391
H40   H     H_    0.080332 0.866320 0.416227 0.127766
H41   H     H_    0.069624 0.602374 0.481978 0.122570
C87   C     C_R   0.947268 0.607142 0.594334 0.090457
C88   C     C_R   0.965138 0.427082 0.587303 -0.121392
C89   C     C_R   0.956845 0.284720 0.625976 -0.119277
C90   C     C_R   0.931002 0.321556 0.671992 -0.077995
C91   C     C_R   0.913489 0.500970 0.679492 -0.092627
C92   C     C_R   0.921661 0.643776 0.640875 -0.145227
H42   H     H_    0.985378 0.397395 0.551929 0.126319
H43   H     H_    0.970529 0.146036 0.620433 0.127493
H44   H     H_    0.924664 0.211197 0.701921 0.116145
H45   H     H_    0.893647 0.529413 0.715280 0.120367
H46   H     H_    0.908119 0.782491 0.647128 0.110371
C93   C     C_R   0.448900 0.905314 0.090935 0.092227
C94   C     C_R   0.457013 0.882548 0.153440 -0.139603
C95   C     C_R   0.451403 0.033268 0.190317 -0.096818
C96   C     C_R   0.437876 0.207543 0.165104 -0.094598
C97   C     C_R   0.429996 0.231440 0.102997 -0.112822
C98   C     C_R   0.435750 0.081382 0.065946 -0.128316
H47   H     H_    0.467787 0.748359 0.173498 0.115724
H48   H     H_    0.457703 0.015102 0.238456 0.150425
H49   H     H_    0.433613 0.324175 0.193689 0.117389
H50   H     H_    0.419582 0.366400 0.083657 0.127776
H51   H     H_    0.430275 0.102353 0.017941 0.122559
C99   C     C_R   0.552746 0.107249 0.905636 0.090431
C100  C     C_R   0.534882 0.927163 0.912640 -0.121408
C101  C     C_R   0.543182 0.784871 0.873944 -0.119266
C102  C     C_R   0.569024 0.821808 0.827932 -0.077964
C103  C     C_R   0.586530 0.001248 0.820462 -0.092642
C104  C     C_R   0.578353 0.143979 0.859102 -0.145214
H52   H     H_    0.514642 0.897403 0.948008 0.126322
H53   H     H_    0.529506 0.646162 0.879468 0.127454
H54   H     H_    0.575366 0.711508 0.797984 0.116160
H55   H     H_    0.606371 0.029770 0.784677 0.120357
H56   H     H_    0.591890 0.282715 0.852872 0.110374
Cl1   Cl    Cl    0.959549 0.602392 0.106020 -0.736993
Cl2   Cl    Cl    0.041200 0.397905 0.895328 -0.724429
Cl3   Cl    Cl    0.540452 0.102391 0.393983 -0.737014
Cl4   Cl    Cl    0.458802 0.897904 0.604674 -0.724434

loop_
_geom_bond_atom_site_label_1
_geom_bond_atom_site_label_2
_ccdc_geom_bond_type
O17   V3    S    
C48   C52   A    
O1    C5    A    
C95   C96   A    
C47   H19   S    
O19   V1    S    
C9    C21   A    
C72   C79   A    
O3    C7    A    
C93   C94   A    
C10   C18   A    
C56   C60   A    
O15   V3    S    
C62   C66   A    
C103  C104  A    
C61   C65   A    
C33   C38   A    
C5    C12   S    
O7    C3    A    
C6    C11   S    
O5    C1    A    
C26   C30   A    
C36   C39   A    
C40   C44   A    
O9    V1    S    
C94   C95   A    
C14   C18   A    
C75   H35   S    
C58   C62   A    
O4    C8    A    
C51   H23   S    
C50   H22   S    
C83   C84   A    
C59   Cl3   S    
O1    V3    S    
O13   V1    S    
C101  H53   S    
C72   C76   A    
O2    V4    S    
C57   Cl1   S    
C88   H42   S    
O3    V1    S    
C99   C100  A    
C40   H16   S    
C22   H1    S    
C46   C50   A    
C17   H6    S    
C45   C49   A    
C1    O15   A    
C15   C31   A    
C76   C80   A    
C48   H20   S    
C2    O16   A    
C16   C32   A    
C47   C51   A    
O2    C6    A    
C16   H12   S    
C90   H44   S    
C10   C22   A    
C48   C68   A    
C11   C19   A    
C62   H26   S    
C16   C20   A    
C103  H55   S    
C76   H36   S    
C72   H32   S    
C13   C29   A    
C99   C104  A    
C34   C37   A    
O11   C7    A    
C38   H14   S    
C11   C23   A    
C35   C36   A    
O12   C8    A    
C94   H47   S    
C74   H34   S    
O10   V2    S    
C51   C55   A    
C85   C86   A    
O5    V1    S    
C53   C57   A    
C98   H51   S    
C39   C43   A    
O7    V3    S    
C38   C42   A    
O8    V4    S    
C75   C79   A    
C58   Cl2   S    
C46   H18   S    
C49   C53   A    
C97   C98   A    
C64   C68   A    
C44   C99   S    
O18   V4    S    
C15   C19   A    
C14   H10   S    
C32   C44   A    
C13   H9    S    
C71   C80   A    
C60   C64   A    
C39   H15   S    
C54   C77   S    
C26   C34   A    
C69   C78   A    
C70   H30   S    
C20   H7    S    
C47   C67   A    
C84   H39   S    
C37   C41   A    
C41   C81   S    
C71   H31   S    
C100  C101  A    
C14   C30   A    
C21   C25   A    
O8    C4    A    
C7    C10   S    
C35   C40   A    
O9    C5    A    
C46   C66   A    
C45   C65   A    
C102  H54   S    
C89   C90   A    
C97   H50   S    
C96   H49   S    
C81   C86   A    
C4    C66   S    
C89   H43   S    
C63   C67   A    
C101  C102  A    
O6    V2    S    
C91   H45   S    
C52   C56   A    
C96   C97   A    
C1    C67   S    
C73   H33   S    
C12   C20   A    
C27   C35   A    
C24   H3    S    
C3    C65   S    
C49   H21   S    
C64   H28   S    
C29   C41   A    
C104  H56   S    
O16   V4    S    
C95   H48   S    
C57   C61   A    
C87   C92   A    
C91   C92   A    
C18   H5    S    
C45   H17   S    
C71   C75   A    
C21   H2    S    
C59   C63   A    
C82   H37   S    
C60   Cl4   S    
C85   H40   S    
C70   C77   A    
C69   C73   A    
C84   C85   A    
C3    O13   A    
O6    C2    A    
C25   C33   A    
C23   C27   A    
C53   C78   S    
O11   V3    S    
C100  H52   S    
C30   C42   A    
C61   H25   S    
O12   V4    S    
C69   H29   S    
C22   C26   A    
C8    C9    S    
C56   C79   S    
C9    C17   A    
O10   C6    A    
O20   V2    S    
C93   C98   A    
C31   C43   A    
C37   H13   S    
C55   C80   S    
C63   H27   S    
C33   C34   A    
C83   H38   S    
C25   C29   A    
C52   H24   S    
C42   C87   S    
C12   C24   A    
C27   C31   A    
C13   C17   A    
C23   H4    S    
C2    C68   S    
O14   V2    S    
C86   H41   S    
C43   C93   S    
C24   C28   A    
C73   C77   A    
C87   C88   A    
C50   C54   A    
C28   C36   A    
C102  C103  A    
C54   C58   A    
C4    O14   A    
C90   C91   A    
C82   C83   A    
C19   H8    S    
C55   C59   A    
C88   C89   A    
C81   C82   A    
C92   H46   S    
C70   C74   A    
O4    V2    S    
C28   C32   A    
C15   H11   S    
C74   C78   A    
