data_mof_unit_65840.cif
_audit_creation_date              2012-12-10T20:20:43-0500
_audit_creation_method            fapswitch 2.2
_symmetry_space_group_name_H-M    P1
_symmetry_Int_Tables_number       1
_space_group_crystal_system       triclinic
_cell_length_a                    40.998236
_cell_length_b                    35.56382
_cell_length_c                    21.391673
_cell_angle_alpha                 89.991293
_cell_angle_beta                  59.853766
_cell_angle_gamma                 90.018005
_cell_volume                      26971.6220476

loop_
_atom_site_label
_atom_site_type_symbol
_atom_type_description
_atom_site_fract_x
_atom_site_fract_y
_atom_site_fract_z
_atom_type_partial_charge
C1    C     C_R   0.926754 0.500064 0.073429 0.887555
C2    C     C_R   0.073225 0.500077 0.926769 0.888557
C3    C     C_R   0.426795 0.000051 0.073283 0.885675
C4    C     C_R   0.573228 0.000065 0.926768 0.891987
C5    C     C_3   0.999735 0.499260 0.189039 -0.090149
C6    C     C_3   0.000339 0.499247 0.810873 -0.090276
C7    C     C_3   0.499634 0.999239 0.189161 -0.089839
C8    C     C_3   0.500258 0.999334 0.810949 -0.091765
C9    C     C_R   0.673817 0.513531 0.280914 -0.133205
C10   C     C_R   0.326140 0.515539 0.716762 -0.132171
C11   C     C_R   0.173661 0.017265 0.284214 -0.130647
C12   C     C_R   0.825957 0.013431 0.718106 -0.133018
C13   C     C_R   0.634603 0.514190 0.318169 -0.197435
C14   C     C_R   0.365360 0.515854 0.680093 -0.198236
C15   C     C_R   0.134438 0.017080 0.320706 -0.199117
C16   C     C_R   0.865186 0.013815 0.681637 -0.198172
C17   C     C_R   0.614428 0.499099 0.388047 -0.035885
C18   C     C_R   0.385618 0.499251 0.611638 -0.034388
C19   C     C_R   0.114349 0.999683 0.388423 -0.033732
C20   C     C_R   0.885578 0.999071 0.611557 -0.035999
C21   C     C_R   0.633836 0.483181 0.420098 -0.191045
C22   C     C_R   0.366319 0.482158 0.580414 -0.190618
C23   C     C_R   0.133763 0.982285 0.419095 -0.189888
C24   C     C_R   0.866386 0.983720 0.578566 -0.190691
C25   C     C_R   0.673066 0.482198 0.382434 -0.147387
C26   C     C_R   0.327078 0.481461 0.617577 -0.147092
C27   C     C_R   0.173003 0.982088 0.382094 -0.147680
C28   C     C_R   0.827148 0.983009 0.615440 -0.147780
C29   C     C_R   0.692910 0.497400 0.313026 0.133402
C30   C     C_R   0.307127 0.498168 0.685617 0.132614
C31   C     C_R   0.192821 0.999556 0.314770 0.133241
C32   C     C_R   0.807069 0.997888 0.685064 0.132763
C33   C     C_1   0.732901 0.496281 0.274084 0.007099
C34   C     C_1   0.267120 0.496914 0.724658 0.009335
C35   C     C_1   0.232807 0.998458 0.275617 0.007895
C36   C     C_1   0.767069 0.996691 0.723610 0.010317
C37   C     C_1   0.766570 0.495790 0.239594 0.082283
C38   C     C_1   0.233444 0.496181 0.759586 0.086923
C39   C     C_1   0.266499 0.997707 0.240582 0.081505
C40   C     C_1   0.733392 0.995990 0.758316 0.088143
C41   C     C_R   0.824526 0.511406 0.126326 -0.074328
C42   C     C_R   0.175625 0.511890 0.873143 -0.077175
C43   C     C_R   0.324524 0.012685 0.126550 -0.076833
C44   C     C_R   0.675793 0.010932 0.872581 -0.076424
C45   C     C_R   0.000083 0.499903 0.121543 0.889277
C46   C     C_R   0.999974 0.499900 0.878395 0.889559
C47   C     C_R   0.500035 0.999897 0.121597 0.889969
C48   C     C_R   0.499896 0.999911 0.878470 0.888866
C49   C     C_R   0.864239 0.513479 0.086114 -0.117483
C50   C     C_R   0.135862 0.513736 0.913727 -0.118095
C51   C     C_R   0.364344 0.014001 0.086031 -0.116984
C52   C     C_R   0.636061 0.013041 0.913476 -0.119000
C53   C     C_R   0.885650 0.500310 0.116708 -0.182642
C54   C     C_R   0.114350 0.500242 0.883514 -0.183703
C55   C     C_R   0.385659 0.000372 0.116443 -0.183088
C56   C     C_R   0.614386 0.000264 0.883139 -0.183511
C57   C     C_R   0.867804 0.485603 0.187649 0.126499
C58   C     C_R   0.132097 0.485079 0.812963 0.126774
C59   C     C_R   0.367704 0.985429 0.187192 0.123876
C60   C     C_R   0.631899 0.985732 0.812152 0.126903
C61   C     C_R   0.828329 0.483384 0.227661 -0.013687
C62   C     C_R   0.171589 0.482530 0.773107 -0.016147
C63   C     C_R   0.328256 0.983651 0.227252 -0.010407
C64   C     C_R   0.671391 0.983175 0.771690 -0.018791
C65   C     C_R   0.806931 0.495829 0.196624 -0.078694
C66   C     C_R   0.193084 0.495889 0.803211 -0.077620
C67   C     C_R   0.306883 0.997164 0.197003 -0.078017
C68   C     C_R   0.693058 0.995709 0.802020 -0.077777
C69   C     C_R   0.000010 0.573421 0.499996 0.816489
C70   C     C_R   0.500015 0.073433 0.500070 0.816720
C71   C     C_R   0.999575 0.498452 0.378749 0.956051
C72   C     C_R   0.000420 0.498422 0.621252 0.955237
C73   C     C_R   0.499560 0.998498 0.378753 0.960522
C74   C     C_R   0.500440 0.998640 0.621261 0.957142
C75   C     C_R   0.999973 0.426577 0.499918 1.035836
C76   C     C_R   0.499988 0.926587 0.499873 1.049760
C77   C     C_R   0.499990 0.573043 0.499990 0.897096
C78   C     C_R   0.000048 0.073037 0.499938 0.896303
C79   C     C_R   0.573288 0.499775 0.427409 0.863584
C80   C     C_R   0.426721 0.499788 0.572552 0.862722
C81   C     C_R   0.073275 0.999854 0.427461 0.862226
C82   C     C_R   0.926717 0.999743 0.572545 0.863677
C83   C     C_3   0.970440 0.519962 0.257622 -0.227646
C84   C     C_3   0.029692 0.519851 0.742166 -0.229422
C85   C     C_3   0.471124 0.020957 0.257049 -0.226132
C86   C     C_3   0.529548 0.020171 0.742502 -0.226266
C87   C     C_R   0.499980 0.426663 0.500027 0.862842
C88   C     C_R   0.000003 0.926669 0.500001 0.862902
C89   C     C_R   0.484117 0.326720 0.565960 -0.153882
C90   C     C_R   0.515474 0.326605 0.434853 -0.153814
C91   C     C_R   0.984419 0.826632 0.565508 -0.153384
C92   C     C_R   0.015631 0.826656 0.434499 -0.153410
C93   C     C_R   0.484358 0.365867 0.565834 -0.190203
C94   C     C_R   0.515354 0.365756 0.434650 -0.190426
C95   C     C_R   0.984591 0.865794 0.565549 -0.189944
C96   C     C_R   0.015444 0.865817 0.434453 -0.190075
C97   C     C_R   0.499896 0.385581 0.500161 -0.036550
C98   C     C_R   0.000012 0.885578 0.500001 -0.037007
C99   C     C_R   0.499773 0.307191 0.500488 0.152459
C100  C     C_R   0.000029 0.807177 0.500003 0.152050
C101  C     C_1   0.499776 0.267160 0.500643 -0.063441
C102  C     C_1   0.000037 0.767150 0.499999 -0.063459
C103  C     C_1   0.000043 0.733511 0.499990 -0.025125
C104  C     C_1   0.499818 0.233516 0.500705 -0.025234
C105  C     C_R   0.973710 0.674170 0.561309 -0.183562
C106  C     C_R   0.026378 0.674194 0.438678 -0.183650
C107  C     C_R   0.473410 0.174119 0.561657 -0.183664
C108  C     C_R   0.526565 0.174296 0.439577 -0.183843
C109  C     C_R   0.973407 0.634695 0.563001 0.188247
C110  C     C_R   0.026676 0.634721 0.437011 0.188142
C111  C     C_R   0.473188 0.134644 0.563210 0.188379
C112  C     C_R   0.526971 0.134833 0.437772 0.187631
C113  C     C_R   0.000029 0.614853 0.500003 -0.185033
C114  C     C_R   0.500049 0.114877 0.500340 -0.185443
C115  C     C_3   0.003337 0.532214 0.267997 0.239052
C116  C     C_3   0.996815 0.532210 0.731840 0.238578
C117  C     C_3   0.504480 0.031996 0.266917 0.240249
C118  C     C_3   0.496661 0.032402 0.732096 0.237061
C119  C     C_R   0.000044 0.693426 0.499989 0.051477
C120  C     C_R   0.499922 0.193441 0.500651 0.051594
C121  C     C_R   0.482992 0.672702 0.465623 0.237955
C122  C     C_R   0.517469 0.672866 0.532687 0.238292
C123  C     C_R   0.981313 0.172804 0.469665 0.238016
C124  C     C_R   0.018334 0.172682 0.531771 0.238662
C125  C     C_R   0.484059 0.633333 0.465047 -0.218519
C126  C     C_R   0.516123 0.633490 0.534165 -0.218742
C127  C     C_R   0.982754 0.133414 0.467926 -0.220339
C128  C     C_R   0.017382 0.133300 0.532189 -0.217789
C129  C     C_R   0.500009 0.613982 0.499847 -0.139824
C130  C     C_R   0.000112 0.113938 0.499917 -0.138205
C131  C     C_R   0.500221 0.692294 0.499077 -0.011938
C132  C     C_R   0.999559 0.192240 0.501286 -0.011861
C133  C     C_1   0.500129 0.732584 0.499102 -0.073739
C134  C     C_1   0.999055 0.232528 0.502300 -0.072939
C135  C     C_1   0.998784 0.266147 0.502928 -0.012090
C136  C     C_1   0.500040 0.766197 0.499243 -0.011507
C137  C     C_R   0.975425 0.325764 0.483083 0.137442
C138  C     C_R   0.022351 0.325806 0.522120 0.137383
C139  C     C_R   0.476887 0.825840 0.479079 0.138805
C140  C     C_R   0.523030 0.825782 0.520012 0.137912
C141  C     C_R   0.974721 0.365308 0.484749 -0.075543
C142  C     C_R   0.024398 0.365273 0.516991 -0.071061
C143  C     C_R   0.475775 0.865373 0.481699 -0.077350
C144  C     C_R   0.524207 0.865300 0.517326 -0.074064
C145  C     C_R   0.999838 0.385100 0.500175 -0.279834
C146  C     C_R   0.499978 0.885125 0.499621 -0.279939
C147  C     C_3   0.998667 0.496908 0.312262 -0.131442
C148  C     C_3   0.001305 0.496883 0.687755 -0.131186
C149  C     C_3   0.498572 0.996868 0.312338 -0.131625
C150  C     C_3   0.501410 0.997160 0.687693 -0.131932
C151  C     C_R   0.998705 0.306364 0.503089 -0.001071
C152  C     C_R   0.499964 0.806405 0.499494 -0.002228
C153  C     C_3   0.965488 0.483773 0.302346 -0.191802
C154  C     C_3   0.034458 0.483637 0.697632 -0.188746
C155  C     C_3   0.464886 0.984954 0.302953 -0.198542
C156  C     C_3   0.534597 0.984034 0.697631 -0.191639
C157  C     C_3   0.994885 0.463644 0.232859 0.212526
C158  C     C_3   0.005011 0.463608 0.767239 0.212582
C159  C     C_3   0.493501 0.963779 0.234132 0.214651
C160  C     C_3   0.505196 0.963761 0.766969 0.213228
C161  C     C_3   0.027580 0.476271 0.243160 -0.067298
C162  C     C_3   0.972334 0.476339 0.756970 -0.067724
C163  C     C_3   0.526673 0.975189 0.243964 -0.064818
C164  C     C_3   0.472513 0.976393 0.756620 -0.066051
C165  C     C_3   0.032785 0.512348 0.198571 -0.235364
C166  C     C_3   0.967312 0.512434 0.801377 -0.234077
C167  C     C_3   0.533176 0.011083 0.198182 -0.239069
C168  C     C_3   0.467213 0.012404 0.801394 -0.234426
H1    H     H_    0.687850 0.469391 0.407172 0.151914
H2    H     H_    0.312402 0.467615 0.593604 0.152158
H3    H     H_    0.187799 0.967920 0.405552 0.151663
H4    H     H_    0.812565 0.970600 0.589967 0.152254
H5    H     H_    0.471693 0.311734 0.616941 0.138820
H6    H     H_    0.527870 0.311527 0.383996 0.138711
H7    H     H_    0.972095 0.811552 0.616424 0.138641
H8    H     H_    0.027962 0.811595 0.383583 0.138649
H9    H     H_    0.471915 0.380681 0.616949 0.157494
H10   H     H_    0.527845 0.380483 0.383419 0.157342
H11   H     H_    0.972206 0.880606 0.616711 0.157367
H12   H     H_    0.027822 0.880648 0.383290 0.157440
H13   H     H_    0.953989 0.690421 0.607847 0.153213
H14   H     H_    0.046102 0.690460 0.392127 0.153212
H15   H     H_    0.453479 0.190319 0.608069 0.153204
H16   H     H_    0.546450 0.190621 0.393280 0.153290
H17   H     H_    0.947612 0.538411 0.261831 0.159134
H18   H     H_    0.052610 0.538221 0.737818 0.158836
H19   H     H_    0.448972 0.040223 0.260650 0.159464
H20   H     H_    0.552326 0.038655 0.738476 0.158539
H21   H     H_    0.471638 0.617244 0.439355 0.172033
H22   H     H_    0.528509 0.617518 0.560072 0.171802
H23   H     H_    0.969402 0.117435 0.443922 0.170848
H24   H     H_    0.030808 0.117238 0.555985 0.170708
H25   H     H_    0.937635 0.472782 0.343866 0.161635
H26   H     H_    0.062224 0.472521 0.656031 0.161909
H27   H     H_    0.436716 0.974917 0.345137 0.162607
H28   H     H_    0.562533 0.973229 0.656045 0.161281
H29   H     H_    0.059850 0.524539 0.156835 0.191361
H30   H     H_    0.940339 0.524749 0.843141 0.191535
H31   H     H_    0.560678 0.022197 0.155960 0.191753
H32   H     H_    0.440138 0.024541 0.843082 0.193804
H33   H     H_    0.689296 0.525566 0.227144 0.156546
H34   H     H_    0.310591 0.528723 0.769455 0.155989
H35   H     H_    0.189076 0.031032 0.232021 0.156248
H36   H     H_    0.810339 0.025162 0.772078 0.156603
H37   H     H_    0.620142 0.526910 0.292809 0.158131
H38   H     H_    0.379752 0.529519 0.704726 0.156836
H39   H     H_    0.119900 0.031029 0.296571 0.156430
H40   H     H_    0.879473 0.026082 0.707762 0.158270
H41   H     H_    0.618613 0.470908 0.473681 0.157581
H42   H     H_    0.381660 0.468723 0.527913 0.156531
H43   H     H_    0.118524 0.968230 0.471049 0.155980
H44   H     H_    0.881769 0.971720 0.524770 0.158056
O1    O     O_R   0.944560 0.468710 0.055440 -0.611293
O2    O     O_R   0.055440 0.468710 0.944560 -0.612000
O3    O     O_R   0.444560 0.968710 0.055440 -0.612405
O4    O     O_R   0.555440 0.968710 0.944560 -0.612454
O5    O     O_R   0.555450 0.499900 0.497080 -0.620930
O6    O     O_R   0.444550 0.499900 0.502920 -0.620689
O7    O     O_R   0.055450 0.999900 0.497080 -0.620542
O8    O     O_R   0.944550 0.999900 0.502920 -0.621592
O9    O     O_R   0.555440 0.499880 0.392050 -0.617352
O10   O     O_R   0.444560 0.499880 0.607950 -0.616640
O11   O     O_R   0.055440 0.999880 0.392050 -0.616406
O12   O     O_R   0.944560 0.999880 0.607950 -0.617285
O13   O     O_R   0.500000 0.444470 0.552540 -0.618687
O14   O     O_R   0.500000 0.444470 0.447460 -0.618821
O15   O     O_R   0.000000 0.944470 0.552540 -0.618998
O16   O     O_R   0.000000 0.944470 0.447460 -0.618722
O17   O     O_R   0.944560 0.531300 0.055450 -0.578157
O18   O     O_R   0.055440 0.531300 0.944550 -0.577717
O19   O     O_R   0.444560 0.031300 0.055450 -0.577938
O20   O     O_R   0.555440 0.031300 0.944550 -0.576478
O21   O     O_R   0.000010 0.468710 0.093020 -0.629194
O22   O     O_R   0.999990 0.468710 0.906980 -0.629248
O23   O     O_R   0.500010 0.968710 0.093020 -0.629880
O24   O     O_R   0.499990 0.968710 0.906980 -0.629549
O25   O     O_R   0.000010 0.531300 0.093030 -0.614370
O26   O     O_R   0.999990 0.531300 0.906970 -0.614717
O27   O     O_R   0.500010 0.031300 0.093030 -0.613254
O28   O     O_R   0.499990 0.031300 0.906970 -0.614833
O29   O     O_R   0.031280 0.555400 0.468730 -0.613055
O30   O     O_R   0.968720 0.555400 0.531270 -0.612892
O31   O     O_R   0.531280 0.055400 0.468730 -0.613006
O32   O     O_R   0.468720 0.055400 0.531270 -0.612807
O33   O     O_R   0.031290 0.499960 0.375690 -0.592608
O34   O     O_R   0.968710 0.499960 0.624310 -0.592639
O35   O     O_R   0.531290 0.999960 0.375690 -0.591793
O36   O     O_R   0.468710 0.999960 0.624310 -0.598305
O37   O     O_R   0.968700 0.499940 0.438280 -0.630961
O38   O     O_R   0.031300 0.499940 0.561720 -0.630805
O39   O     O_R   0.468700 0.999940 0.438280 -0.631667
O40   O     O_R   0.531300 0.999940 0.561720 -0.630727
O41   O     O_R   0.031310 0.444530 0.468680 -0.589725
O42   O     O_R   0.968690 0.444530 0.531320 -0.591353
O43   O     O_R   0.531310 0.944530 0.468680 -0.591248
O44   O     O_R   0.468690 0.944530 0.531320 -0.592164
O45   O     O_R   0.500010 0.555340 0.552490 -0.620911
O46   O     O_R   0.499990 0.555340 0.447510 -0.620931
O47   O     O_R   0.000010 0.055340 0.552490 -0.620051
O48   O     O_R   0.999990 0.055340 0.447510 -0.620542
Zn1   Zn    Zn3+2 0.000000 0.458210 0.000000 0.976029
Zn2   Zn    Zn3+2 0.500000 0.958210 0.000000 0.974865
Zn3   Zn    Zn3+2 0.000000 0.541790 0.000000 1.028758
Zn4   Zn    Zn3+2 0.500000 0.041790 0.000000 1.029033
Zn5   Zn    Zn3+2 0.041800 0.499960 0.458210 1.034403
Zn6   Zn    Zn3+2 0.958200 0.499960 0.541790 1.032974
Zn7   Zn    Zn3+2 0.541800 0.999960 0.458210 1.033180
Zn8   Zn    Zn3+2 0.458200 0.999960 0.541790 1.029187
Zn9   Zn    Zn3+2 0.500010 0.499910 0.570130 0.964285
Zn10  Zn    Zn3+2 0.499990 0.499910 0.429870 0.964014
Zn11  Zn    Zn3+2 0.000010 0.999910 0.570130 0.964562
Zn12  Zn    Zn3+2 0.999990 0.999910 0.429870 0.964190
N1    N     N_2   0.007173 0.569538 0.290324 -0.321254
H45   H     H_    0.986102 0.575908 0.342099 0.214717
C169  C     C_3   0.013348 0.598979 0.238975 -0.742314
H46   H     H_    0.016984 0.626238 0.259980 0.237107
H47   H     H_    0.988772 0.601184 0.230583 0.241903
H48   H     H_    0.039292 0.593242 0.186583 0.246623
N2    N     N_2   0.993083 0.569555 0.709448 -0.321189
H49   H     H_    0.014140 0.575896 0.657640 0.214828
C170  C     C_3   0.987029 0.598986 0.760724 -0.742552
H50   H     H_    0.983405 0.626260 0.739735 0.237084
H51   H     H_    0.011662 0.601153 0.768955 0.241804
H52   H     H_    0.961118 0.593267 0.813203 0.246543
N3    N     N_2   0.509600 0.069141 0.288113 -0.320398
H53   H     H_    0.488657 0.076229 0.339571 0.212844
C171  C     C_3   0.516942 0.098376 0.235767 -0.741343
H54   H     H_    0.521235 0.125522 0.256198 0.236980
H55   H     H_    0.492658 0.101309 0.226637 0.241639
H56   H     H_    0.542891 0.091874 0.183896 0.246447
N4    N     N_2   0.492776 0.069734 0.709855 -0.321351
H57   H     H_    0.513829 0.076179 0.658101 0.214625
C172  C     C_3   0.486535 0.099129 0.761297 -0.741891
H58   H     H_    0.482812 0.126388 0.740393 0.237061
H59   H     H_    0.511119 0.101402 0.769661 0.241639
H60   H     H_    0.460614 0.093289 0.813681 0.246520
C173  C     C_2   0.801303 0.526558 0.096004 0.958616
O49   O     O_2   0.809964 0.556315 0.062779 -0.603125
O50   O     O_R   0.769536 0.506901 0.105730 -0.796751
H61   H     H_    0.756084 0.520204 0.083162 0.344188
C174  C     C_2   0.198915 0.527831 0.902654 0.959493
O51   O     O_2   0.189673 0.557206 0.937022 -0.602701
O52   O     O_R   0.231696 0.509312 0.890668 -0.797096
H62   H     H_    0.245552 0.523292 0.911934 0.343174
C175  C     C_2   0.301413 0.028451 0.096137 0.959520
O53   O     O_2   0.311693 0.056940 0.059133 -0.601692
O54   O     O_R   0.268024 0.010675 0.109949 -0.799062
H63   H     H_    0.254723 0.024358 0.087362 0.343869
C176  C     C_2   0.699396 0.025592 0.902546 0.960821
O55   O     O_2   0.690742 0.054849 0.937292 -0.602188
O56   O     O_R   0.731554 0.005926 0.890694 -0.798330
H64   H     H_    0.745392 0.018869 0.912911 0.343410
C177  C     C_2   0.883417 0.528000 0.010916 0.945809
O57   O     O_2   0.878575 0.512348 0.965294 -0.601716
O58   O     O_R   0.905874 0.560204 0.993172 -0.766658
H65   H     H_    0.916277 0.568248 0.941187 0.326875
C178  C     C_2   0.116750 0.528227 0.988945 0.946645
O59   O     O_2   0.122148 0.512945 0.034182 -0.600487
O60   O     O_R   0.093697 0.559998 0.007200 -0.767339
H66   H     H_    0.083436 0.568032 0.059134 0.326882
C179  C     C_2   0.383751 0.028161 0.010587 0.947960
O61   O     O_2   0.378781 0.012422 0.965246 -0.598588
O62   O     O_R   0.406456 0.060223 0.992448 -0.766551
H67   H     H_    0.416949 0.068007 0.940341 0.326695
C180  C     C_2   0.617116 0.027202 0.988969 0.944309
O63   O     O_2   0.623420 0.012189 0.033234 -0.601251
O64   O     O_R   0.593295 0.058439 0.008457 -0.769351
H68   H     H_    0.583374 0.066373 0.060327 0.326522
N5    N     N_2   0.889502 0.474203 0.219795 -0.290553
H69   H     H_    0.914460 0.488321 0.203349 0.215609
C181  C     C_3   0.891235 0.434157 0.230576 -0.678087
H70   H     H_    0.921021 0.424516 0.201739 0.245346
H71   H     H_    0.875427 0.417605 0.210475 0.239152
H72   H     H_    0.879124 0.428494 0.289236 0.249361
N6    N     N_2   0.110307 0.473399 0.781212 -0.288733
H73   H     H_    0.085576 0.487748 0.796976 0.215384
C182  C     C_3   0.108218 0.433302 0.771330 -0.674873
H74   H     H_    0.078438 0.423830 0.801328 0.244714
H75   H     H_    0.124359 0.416895 0.790690 0.237304
H76   H     H_    0.119730 0.427397 0.712927 0.250267
N7    N     N_2   0.389351 0.973277 0.218983 -0.292404
H77   H     H_    0.414753 0.986831 0.201514 0.216893
C183  C     C_3   0.390510 0.933070 0.229217 -0.679003
H78   H     H_    0.420272 0.923247 0.201703 0.246028
H79   H     H_    0.375282 0.917097 0.207194 0.241403
H80   H     H_    0.377489 0.927181 0.287963 0.250308
N8    N     N_2   0.609877 0.974638 0.780498 -0.287255
H81   H     H_    0.585275 0.989324 0.796366 0.214454
C184  C     C_3   0.607278 0.934644 0.770633 -0.671566
H82   H     H_    0.577442 0.925406 0.801717 0.245945
H83   H     H_    0.623844 0.917824 0.788745 0.235207
H84   H     H_    0.618044 0.928843 0.712359 0.250202
C185  C     C_2   0.809154 0.468188 0.302338 0.925447
O65   O     O_2   0.814119 0.483004 0.348608 -0.607788
O66   O     O_R   0.785619 0.436922 0.319228 -0.806228
H85   H     H_    0.774545 0.428567 0.371347 0.343395
C186  C     C_2   0.190631 0.465913 0.699604 0.922689
O67   O     O_2   0.184739 0.478513 0.652960 -0.608247
O68   O     O_R   0.215159 0.435551 0.684268 -0.805963
H86   H     H_    0.225876 0.425999 0.633033 0.343803
C187  C     C_2   0.308985 0.967334 0.301036 0.924662
O69   O     O_2   0.312212 0.982125 0.349288 -0.609328
O70   O     O_R   0.287162 0.934870 0.314760 -0.804712
H87   H     H_    0.276063 0.925642 0.366367 0.343614
C188  C     C_2   0.690207 0.967329 0.697474 0.923754
O71   O     O_2   0.683012 0.979799 0.652415 -0.607429
O72   O     O_R   0.716039 0.937971 0.679574 -0.806919
H88   H     H_    0.726429 0.928811 0.628198 0.344088
N9    N     N_2   0.947482 0.614482 0.627190 -0.280840
H89   H     H_    0.958630 0.591436 0.638976 0.248327
C189  C     C_3   0.919496 0.634356 0.690736 -0.744556
H90   H     H_    0.901183 0.613743 0.732934 0.254281
H91   H     H_    0.901226 0.651661 0.677452 0.245589
H92   H     H_    0.933450 0.652300 0.713020 0.227192
N10   N     N_2   0.052630 0.614533 0.372858 -0.280969
H93   H     H_    0.041485 0.591518 0.360964 0.248316
C190  C     C_3   0.080756 0.634406 0.309438 -0.744436
H94   H     H_    0.099154 0.613780 0.267388 0.254317
H95   H     H_    0.098927 0.651724 0.322968 0.245464
H96   H     H_    0.066948 0.652325 0.286824 0.227228
N11   N     N_2   0.447127 0.114355 0.627169 -0.280714
H97   H     H_    0.458262 0.091367 0.639159 0.248343
C191  C     C_3   0.418945 0.134162 0.690594 -0.744502
H98   H     H_    0.400568 0.113507 0.732616 0.254503
H99   H     H_    0.400780 0.151444 0.677007 0.245511
H100  H     H_    0.432720 0.152114 0.713220 0.227374
N12   N     N_2   0.553316 0.114744 0.373850 -0.280956
H101  H     H_    0.542341 0.091944 0.360982 0.248333
C192  C     C_3   0.582087 0.134669 0.311302 -0.745771
H102  H     H_    0.600813 0.114084 0.269556 0.254513
H103  H     H_    0.599772 0.151826 0.326300 0.245851
H104  H     H_    0.568918 0.152762 0.287668 0.226676
N13   N     N_2   0.465428 0.693004 0.432314 -0.300795
H105  H     H_    0.454602 0.718805 0.454675 0.228336
C193  C     C_3   0.442550 0.673336 0.408757 -0.789206
H106  H     H_    0.430394 0.693855 0.386914 0.244359
H107  H     H_    0.419027 0.658384 0.454991 0.241817
H108  H     H_    0.460119 0.653383 0.364674 0.250408
N14   N     N_2   0.535447 0.693356 0.564971 -0.300960
H109  H     H_    0.546538 0.718924 0.541536 0.228567
C194  C     C_3   0.558502 0.673798 0.588238 -0.789501
H110  H     H_    0.571017 0.694437 0.609148 0.244341
H111  H     H_    0.581778 0.658581 0.542047 0.242043
H112  H     H_    0.541000 0.654089 0.632913 0.250356
N15   N     N_2   0.962123 0.193360 0.439889 -0.300990
H113  H     H_    0.949885 0.218060 0.466074 0.228032
C195  C     C_3   0.940072 0.173638 0.414471 -0.788018
H114  H     H_    0.927221 0.194278 0.394250 0.244808
H115  H     H_    0.917041 0.157443 0.459345 0.240624
H116  H     H_    0.958411 0.154777 0.368855 0.250805
N16   N     N_2   0.037105 0.193001 0.562662 -0.301145
H117  H     H_    0.046337 0.219439 0.541893 0.229553
C196  C     C_3   0.062668 0.173613 0.579929 -0.788765
H118  H     H_    0.075906 0.194200 0.599452 0.243329
H119  H     H_    0.085352 0.159453 0.531092 0.242679
H120  H     H_    0.047033 0.152978 0.624025 0.249953
N17   N     N_2   0.955620 0.305727 0.454379 -0.311686
H121  H     H_    0.970029 0.283691 0.420290 0.229379
C197  C     C_3   0.915860 0.298375 0.502859 -0.669396
H122  H     H_    0.910913 0.267868 0.514387 0.200940
H123  H     H_    0.899971 0.307413 0.476226 0.263641
H124  H     H_    0.904903 0.313485 0.555112 0.265729
N18   N     N_2   0.040617 0.306182 0.554437 -0.316448
H125  H     H_    0.025563 0.284356 0.588580 0.229004
C198  C     C_3   0.080693 0.299000 0.509998 -0.677559
H126  H     H_    0.086402 0.268361 0.504987 0.203430
H127  H     H_    0.095426 0.311497 0.536525 0.265092
H128  H     H_    0.092433 0.310891 0.454702 0.267014
N19   N     N_2   0.457785 0.805905 0.448842 -0.309966
H129  H     H_    0.472689 0.784295 0.414075 0.226774
C199  C     C_3   0.418081 0.797815 0.496262 -0.665369
H130  H     H_    0.413558 0.767127 0.505964 0.200331
H131  H     H_    0.402283 0.807204 0.469747 0.265431
H132  H     H_    0.406664 0.812150 0.549421 0.263127
N20   N     N_2   0.541896 0.805838 0.550728 -0.312531
H133  H     H_    0.527100 0.783898 0.584676 0.228121
C200  C     C_3   0.581844 0.798503 0.504395 -0.668715
H134  H     H_    0.587132 0.767846 0.495778 0.201126
H135  H     H_    0.597093 0.809029 0.531321 0.266028
H136  H     H_    0.593284 0.812276 0.450672 0.264229
C201  C     C_2   0.949279 0.386060 0.466273 0.965439
O73   O     O_2   0.915664 0.378815 0.497040 -0.626611
O74   O     O_R   0.963488 0.415418 0.416403 -0.826032
H137  H     H_    0.942614 0.429487 0.414523 0.331678
C202  C     C_2   0.050838 0.386053 0.532654 0.966161
O75   O     O_2   0.084591 0.379378 0.498368 -0.628013
O76   O     O_R   0.037393 0.415039 0.583324 -0.827172
H138  H     H_    0.058724 0.428989 0.583772 0.331817
C203  C     C_2   0.450939 0.886212 0.461706 0.959497
O77   O     O_2   0.417723 0.877819 0.488511 -0.626511
O78   O     O_R   0.465168 0.916776 0.414754 -0.824057
H139  H     H_    0.444482 0.930851 0.412284 0.332291
C204  C     C_2   0.549187 0.886100 0.536913 0.962121
O79   O     O_2   0.582714 0.878629 0.507721 -0.628016
O80   O     O_R   0.534708 0.915819 0.585837 -0.820339
H140  H     H_    0.555379 0.929952 0.588241 0.331640
N21   N     N_2   0.991415 0.426534 0.208552 -0.304467
H141  H     H_    0.014856 0.418915 0.160464 0.257847
C205  C     C_3   0.978646 0.396909 0.261775 -0.738574
H142  H     H_    0.977281 0.370061 0.236638 0.234347
H143  H     H_    0.949894 0.403201 0.306896 0.254812
H144  H     H_    0.998665 0.393271 0.281928 0.276641
N22   N     N_2   0.008347 0.426482 0.791669 -0.304390
H145  H     H_    0.984907 0.418946 0.839828 0.257874
C206  C     C_3   0.020901 0.396824 0.738567 -0.737005
H146  H     H_    0.021925 0.369907 0.763910 0.233590
H147  H     H_    0.049766 0.402889 0.693572 0.254915
H148  H     H_    0.000955 0.393462 0.718164 0.277047
N23   N     N_2   0.488679 0.926924 0.210684 -0.304918
H149  H     H_    0.511855 0.918487 0.162947 0.259460
C207  C     C_3   0.474561 0.897604 0.264550 -0.742819
H150  H     H_    0.471394 0.871223 0.240259 0.235105
H151  H     H_    0.446355 0.905256 0.310085 0.254429
H152  H     H_    0.494757 0.892308 0.283792 0.275042
N24   N     N_2   0.508601 0.926700 0.791578 -0.305021
H153  H     H_    0.485040 0.919021 0.839413 0.253944
C208  C     C_3   0.521842 0.897021 0.738490 -0.739652
H154  H     H_    0.523667 0.870401 0.763777 0.233855
H155  H     H_    0.550496 0.903641 0.693289 0.253981
H156  H     H_    0.501823 0.892731 0.718507 0.280442
C209  C     C_2   0.058883 0.450389 0.232356 0.936691
O81   O     O_2   0.083029 0.441630 0.171053 -0.592864
O82   O     O_R   0.059750 0.435512 0.291916 -0.777144
H157  H     H_    0.081930 0.418025 0.277463 0.346758
C210  C     C_2   0.940911 0.450559 0.767989 0.936504
O83   O     O_2   0.916838 0.441768 0.829346 -0.591972
O84   O     O_R   0.939846 0.435815 0.708550 -0.778806
H158  H     H_    0.917595 0.418390 0.723121 0.345930
C211  C     C_2   0.556978 0.948176 0.234155 0.938789
O85   O     O_2   0.580126 0.937652 0.173350 -0.598055
O86   O     O_R   0.558072 0.934363 0.294175 -0.774914
H159  H     H_    0.579479 0.915947 0.280469 0.345452
C212  C     C_2   0.441396 0.950602 0.766218 0.936587
O87   O     O_2   0.414867 0.944665 0.826855 -0.588757
O88   O     O_R   0.443382 0.932644 0.706351 -0.778809
H160  H     H_    0.420944 0.915648 0.719883 0.344986

loop_
_geom_bond_atom_site_label_1
_geom_bond_atom_site_label_2
_ccdc_geom_bond_type
O19   Zn4   S    
C85   H19   S    
C186  O67   D    
C163  C211  S    
C55   C59   A    
N16   C196  S    
N5    C181  S    
C198  H126  S    
C108  C120  A    
O88   H160  S    
C205  H142  S    
C75   O42   A    
C182  H76   S    
C182  H74   S    
C174  O51   D    
C170  H52   S    
O24   Zn2   S    
C89   C99   A    
C4    O20   A    
O31   Zn7   S    
C154  C158  S    
C50   C178  S    
C69   O30   A    
C88   O15   A    
C7    C159  S    
C3    O3    A    
C29   C33   S    
C139  C152  A    
C206  H148  S    
C87   O13   A    
N21   H141  S    
C195  H116  S    
C72   O34   A    
C76   O43   A    
C9    C13   A    
C190  H96   S    
C8    C168  S    
C6    C158  S    
C11   C15   A    
O22   Zn1   S    
C61   C185  S    
C12   C16   A    
C203  O78   S    
C78   O47   A    
C171  H55   S    
C91   C100  A    
C115  C165  S    
C140  C152  A    
C141  C145  A    
N19   C199  S    
O44   Zn8   S    
C76   C146  S    
C196  H119  S    
C4    C56   S    
C116  C166  S    
C64   C188  S    
C41   C49   A    
C185  O66   S    
C47   O23   A    
C25   C29   A    
C108  H16   S    
C27   C31   A    
O62   H67   S    
C164  C168  S    
C197  H124  S    
C124  N16   S    
N6    C182  S    
C62   C66   A    
C94   C97   A    
N23   H149  S    
C17   C21   A    
C19   C23   A    
O76   H138  S    
C166  H30   S    
C159  N23   S    
N24   C208  S    
C10   C30   A    
O40   Zn7   S    
O52   H62   S    
C16   C20   A    
C77   C129  S    
C96   H12   S    
C85   C117  S    
C10   H34   S    
C99   C101  S    
C2    O2    A    
O23   Zn2   S    
C14   H38   S    
C10   C14   A    
N11   H97   S    
C198  H128  S    
O29   Zn5   S    
C118  N4    S    
C71   O33   A    
C191  H98   S    
C64   C68   A    
C107  C120  A    
N18   H125  S    
C140  N20   S    
O21   Zn1   S    
C200  H136  S    
N14   C194  S    
O42   Zn6   S    
C156  H28   S    
O33   Zn5   S    
C144  C204  S    
O38   Zn5   S    
N10   H93   S    
C57   C61   A    
C73   O35   A    
C138  C151  A    
N13   H105  S    
C90   H6    S    
C59   C63   A    
C109  N9    S    
C60   C64   A    
C148  C162  S    
C149  C155  S    
N3    C171  S    
N15   H113  S    
O14   Zn10  S    
C49   C53   A    
C22   H42   S    
O7    Zn11  S    
N2    C170  S    
C202  O75   D    
O8    Zn12  S    
C45   O25   A    
N6    H73   S    
C61   C65   A    
O11   Zn12  S    
C82   O12   A    
C26   H2    S    
C132  C134  S    
C179  O61   D    
C107  H15   S    
O68   H86   S    
C16   H40   S    
C43   C175  S    
C117  C149  S    
C188  O71   D    
C71   O37   A    
C161  C165  S    
C138  N18   S    
N20   C200  S    
C71   C147  S    
C184  H82   S    
C4    O4    A    
C20   C82   S    
C123  C132  A    
O2    Zn1   S    
C197  H122  S    
C112  C114  A    
C194  H110  S    
C199  H131  S    
N19   H129  S    
C205  H143  S    
C69   C113  S    
C172  H58   S    
C46   O22   A    
O30   Zn6   S    
N4    C172  S    
C207  H151  S    
C94   H10   S    
C177  O58   S    
C141  C201  S    
N14   H109  S    
C92   C96   A    
C124  C132  A    
C118  C150  S    
C60   N8    S    
C126  H22   S    
C1    C53   S    
C86   C156  S    
C3    C55   S    
C28   H4    S    
C199  H130  S    
C175  O54   S    
C96   C98   A    
C192  H104  S    
C8    C86   S    
O35   Zn7   S    
C87   O14   A    
C84   C116  S    
C77   O45   A    
C173  O50   S    
O3    Zn2   S    
C84   C154  S    
O28   Zn4   S    
C147  C153  S    
N17   C197  S    
C206  H146  S    
N7    C183  S    
C30   C34   S    
C155  C159  S    
C83   C115  S    
C156  C160  S    
C169  H48   S    
O16   Zn12  S    
C3    O19   A    
C93   H9    S    
C127  H23   S    
O1    Zn1   S    
C128  H24   S    
O17   Zn3   S    
C123  N15   S    
C63   C67   A    
C121  C125  A    
C210  O83   D    
C125  C129  A    
C70   O31   A    
C74   O36   A    
C123  C127  A    
O82   H157  S    
N2    H49   S    
C189  H92   S    
C209  O81   D    
C211  O86   S    
C42   C50   A    
C47   O27   A    
C158  N22   S    
C26   C30   A    
C184  H84   S    
C183  H79   S    
C40   C68   S    
O45   Zn9   S    
C117  N3    S    
C143  C203  S    
C93   C97   A    
C122  C131  A    
C194  H112  S    
O47   Zn11  S    
C192  H103  S    
C95   H11   S    
C21   C25   A    
O20   Zn4   S    
C18   C22   A    
C107  C111  A    
C44   C176  S    
C24   C28   A    
C75   O41   A    
C111  N11   S    
C32   C36   S    
C134  C135  T    
C83   C153  S    
C170  H51   S    
C150  C164  S    
C13   C17   A    
C78   C130  S    
C191  H100  S    
O4    Zn2   S    
C56   C60   A    
C69   O29   A    
C88   O16   A    
O43   Zn7   S    
N1    C169  S    
C161  C209  S    
C195  H115  S    
C89   C93   A    
C102  C103  T    
C76   O44   A    
C181  H72   S    
C190  H95   S    
C2    O18   A    
C91   C95   A    
O78   H139  S    
O80   H140  S    
C153  H25   S    
C43   C67   A    
C203  O77   D    
O84   H158  S    
C78   O48   A    
C105  H13   S    
C19   C81   S    
C15   H39   S    
O9    Zn10  S    
C73   O39   A    
C42   C174  S    
C58   C62   A    
C143  C146  A    
C6    C166  S    
C86   H20   S    
C196  H118  S    
C106  C119  A    
O25   Zn3   S    
C198  H127  S    
C90   C99   A    
C84   H18   S    
C169  H46   S    
C89   H5    S    
O56   H64   S    
C210  O84   S    
C185  O65   D    
O26   Zn3   S    
N18   C198  S    
C92   H8    S    
C15   C19   A    
C187  O70   S    
C50   C54   A    
C58   N6    S    
C160  C164  S    
C197  H123  S    
C45   O21   A    
C172  H60   S    
C75   C145  S    
C54   C58   A    
C193  H108  S    
C201  O74   S    
C25   H1    S    
C189  H90   S    
C81   O7    A    
C115  C147  S    
C173  O49   D    
C204  O80   S    
C105  C109  A    
C48   O28   A    
C162  C166  S    
O10   Zn9   S    
C41   C173  S    
O70   H87   S    
C79   O9    A    
C124  C128  A    
C200  H135  S    
O58   H65   S    
C186  O68   S    
C212  O87   D    
N21   C205  S    
C142  C145  A    
C148  C154  S    
C182  H75   S    
C178  O60   S    
C90   C94   A    
N23   C207  S    
C103  C119  S    
C6    C84   S    
O54   H63   S    
C144  C146  A    
C147  C161  S    
N8    H81   S    
C116  C148  S    
C53   C57   A    
C51   C55   A    
N12   C192  S    
N7    H77   S    
C5    C45   S    
C33   C37   T    
N22   H145  S    
C7    C47   S    
O48   Zn12  S    
C35   C39   T    
C207  H150  S    
C8    C48   S    
N3    H53   S    
C165  H29   S    
C171  H54   S    
C189  H91   S    
C28   C32   A    
C171  H56   S    
C86   C118  S    
C11   H35   S    
O13   Zn9   S    
C174  O52   S    
C9    H33   S    
C196  H120  S    
C5    C157  S    
C2    C54   S    
C13   H37   S    
C160  N24   S    
C8    C160  S    
C157  C161  S    
C164  C212  S    
C79   O5    A    
C137  C141  A    
N12   H101  S    
C208  H155  S    
C168  H32   S    
C73   C149  S    
C140  C144  A    
C128  C130  A    
C74   O40   A    
C193  H106  S    
C63   C187  S    
C126  C129  A    
C62   C186  S    
C139  N19   S    
C188  O72   S    
O64   H68   S    
O12   Zn11  S    
C43   C51   A    
C177  O57   D    
C7    C85   S    
C23   H43   S    
C117  C167  S    
C135  C151  S    
C118  C168  S    
C21   H41   S    
C111  C114  A    
C153  C157  S    
C180  O63   D    
O46   Zn10  S    
C155  H27   S    
O60   H66   S    
C108  C112  A    
C82   O8    A    
C51   C179  S    
C175  O53   D    
C22   C26   A    
N16   H117  S    
N11   C191  S    
C105  C119  A    
C72   O38   A    
C136  C152  S    
C142  C202  S    
O39   Zn8   S    
C104  C120  S    
C183  H78   S    
C59   N7    S    
C200  H134  S    
N5    H69   S    
C14   C18   A    
O72   H88   S    
C181  H70   S    
N17   H121  S    
C24   H44   S    
C95   C98   A    
C176  O55   D    
C70   C114  S    
N13   C193  S    
C208  H154  S    
C169  H47   S    
C208  H156  S    
N15   C195  S    
C80   O6    A    
C5    C83   S    
C157  N21   S    
C17   C79   S    
C180  O64   S    
C202  O76   S    
C115  N1    S    
C106  H14   S    
C206  H147  S    
O66   H85   S    
C179  O62   S    
C110  N10   S    
C133  C136  T    
C195  H114  S    
C149  C163  S    
C23   C27   A    
C211  O85   D    
C109  C113  A    
C70   O32   A    
N4    H57   S    
C12   H36   S    
C11   C31   A    
C184  H83   S    
C150  C156  S    
C12   C32   A    
C137  N17   S    
C178  O59   D    
C139  C143  A    
C121  C131  A    
C194  H111  S    
C199  H132  S    
N10   C190  S    
C112  N12   S    
C81   O11   A    
C205  H144  S    
C138  C142  A    
C162  C210  S    
C74   C150  S    
C38   C66   S    
C36   C40   T    
C207  H152  S    
N24   H153  S    
O6    Zn10  S    
O50   H61   S    
C41   C65   A    
O41   Zn5   S    
C170  H50   S    
C72   C148  S    
C80   O10   A    
C37   C65   S    
O32   Zn8   S    
O37   Zn6   S    
C122  C126  A    
C163  C167  S    
C191  H99   S    
N8    C184  S    
O86   H159  S    
C100  C102  S    
N1    H45   S    
C91   H7    S    
C85   C155  S    
C181  H71   S    
C110  C113  A    
C190  H94   S    
C48   O24   A    
O15   Zn11  S    
C5    C165  S    
C77   O46   A    
C159  C163  S    
O27   Zn4   S    
C44   C68   A    
C27   H3    S    
C49   C177  S    
C92   C100  A    
C42   C66   A    
N9    H89   S    
C106  C110  A    
C57   N5    S    
O18   Zn3   S    
C167  H31   S    
C52   C180  S    
C6    C46   S    
C34   C38   T    
C39   C67   S    
C116  N2    S    
C137  C151  A    
C131  C133  S    
O36   Zn8   S    
C9    C29   A    
C101  C104  T    
C187  O69   D    
C212  O88   S    
C127  C130  A    
O74   H137  S    
C172  H59   S    
O34   Zn6   S    
C1    O1    A    
C193  H107  S    
C44   C52   A    
C201  O73   D    
C192  H102  S    
C176  O56   S    
C122  N14   S    
O5    Zn9   S    
C209  O82   S    
C31   C35   S    
C46   O26   A    
C204  O79   D    
C20   C24   A    
C88   C98   S    
C158  C162  S    
N20   H133  S    
C154  H26   S    
C1    O17   A    
C121  N13   S    
C7    C167  S    
C18   C80   S    
C183  H80   S    
N22   C206  S    
C83   H17   S    
C125  H21   S    
N9    C189  S    
C52   C56   A    
C87   C97   S    
