data_mof_unit_34004.cif
_audit_creation_date              2013-03-05T15:42:29-0500
_audit_creation_method            fapswitch 2.2
_symmetry_space_group_name_H-M    P1
_symmetry_Int_Tables_number       1
_space_group_crystal_system       triclinic
_cell_length_a                    7.754023
_cell_length_b                    8.670785
_cell_length_c                    23.252097
_cell_angle_alpha                 91.27946
_cell_angle_beta                  86.073362
_cell_angle_gamma                 94.0402
_cell_volume                      1555.53264556

loop_
_atom_site_label
_atom_site_type_symbol
_atom_site_description
_atom_site_fract_x
_atom_site_fract_y
_atom_site_fract_z
_atom_type_partial_charge
O1    O     O_R   0.389250 0.738570 0.503790 -0.591108
O2    O     O_R   0.610750 0.261430 0.496210 -0.597842
O3    O     O_R   0.678390 0.711620 0.493890 -0.579435
O4    O     O_R   0.321610 0.288380 0.506110 -0.589146
C1    C     C_R   0.545403 0.794370 0.498705 0.895364
C2    C     C_R   0.454483 0.206059 0.502966 0.924491
O5    O     O_R   0.355400 0.513520 0.588790 -0.640484
O6    O     O_R   0.644600 0.486480 0.411210 -0.590663
O7    O     O_R   0.644550 0.486570 0.578900 -0.593929
O8    O     O_R   0.355450 0.513430 0.421100 -0.588974
C3    C     C_R   0.502723 0.500173 0.610385 1.011423
C4    C     C_R   0.495981 0.492475 0.389570 0.945102
Zn1   Zn    Zn3+2 0.306930 0.518000 0.506610 1.063107
Zn2   Zn    Zn3+2 0.693070 0.482000 0.493390 1.084667
C5    C     C_R   0.366573 0.372933 0.119263 0.520140
C6    C     C_R   0.685011 0.423411 0.873710 0.539474
N1    N     N_R   0.515628 0.415375 0.145983 -0.338673
N2    N     N_R   0.533327 0.388537 0.847880 -0.337586
C7    C     C_R   0.671801 0.439305 0.114886 0.520029
C8    C     C_R   0.383716 0.339770 0.878866 0.524337
C9    C     C_R   0.679915 0.431118 0.054657 -0.023576
C10   C     C_R   0.380694 0.332232 0.938852 -0.021139
C11   C     C_R   0.528596 0.384777 0.026960 -0.013078
C12   C     C_R   0.532712 0.377673 0.966443 -0.016439
C13   C     C_R   0.371836 0.349905 0.059576 -0.022476
C14   C     C_R   0.687364 0.420710 0.933698 -0.026317
C15   C     C_R   0.834429 0.470668 0.021639 -0.181715
C16   C     C_R   0.228026 0.287070 0.971880 -0.177246
C17   C     C_R   0.838021 0.466021 0.961657 -0.164786
C18   C     C_R   0.223316 0.296861 0.031777 -0.168463
O9    O     O_2   0.212729 0.356643 0.150164 -0.510799
O10   O     O_2   0.832002 0.463150 0.841360 -0.516363
O11   O     O_2   0.818862 0.470351 0.142120 -0.512346
O12   O     O_2   0.237061 0.304245 0.851842 -0.537639
H1    H     H_    0.951645 0.509451 0.042003 0.200625
H2    H     H_    0.110797 0.247861 0.951588 0.198877
H3    H     H_    0.958089 0.500863 0.937355 0.204387
H4    H     H_    0.102627 0.264576 0.056159 0.203198
C19   C     C_R   0.483579 0.297032 0.749863 -0.126241
C20   C     C_R   0.581425 0.570718 0.232618 -0.156955
H5    H     H_    0.459968 0.180024 0.765336 0.197251
H6    H     H_    0.647162 0.660266 0.205835 0.183184
C21   C     C_R   0.469196 0.327070 0.691934 0.421139
C22   C     C_R   0.576489 0.589120 0.292310 0.409785
C23   C     C_R   0.506879 0.478328 0.671665 -0.268905
C24   C     C_R   0.487508 0.475353 0.327488 -0.254194
C25   C     C_R   0.553548 0.601673 0.709761 0.195959
C26   C     C_R   0.406203 0.340576 0.302441 0.193036
C27   C     C_R   0.559628 0.568827 0.768165 -0.163569
C28   C     C_R   0.424174 0.320656 0.242657 -0.145152
H7    H     H_    0.591904 0.660417 0.798828 0.197365
H8    H     H_    0.370691 0.215330 0.222850 0.206754
C29   C     C_R   0.527060 0.417636 0.787922 0.164507
C30   C     C_R   0.507248 0.435895 0.207543 0.167687
C31   C     C_2   0.568226 0.956647 0.504625 -0.016784
C32   C     C_2   0.429538 0.043913 0.501353 -0.019310
N3    N     N_2   0.950330 0.457950 0.484560 -0.141043
N4    N     N_2   0.049670 0.542050 0.515440 -0.148291
H9    H     H_    0.012951 0.381096 0.457692 0.258864
H10   H     H_    0.986644 0.618359 0.542581 0.230999
O13   O     O_3   0.431341 0.206087 0.653989 -0.592249
C33   C     C_3   0.252388 0.159151 0.660092 0.083168
H11   H     H_    0.192639 0.188074 0.619984 0.208044
H12   H     H_    0.178247 0.215655 0.696729 0.151620
C34   C     C_3   0.230039 0.984906 0.667832 -0.606769
H13   H     H_    0.277743 0.954406 0.709757 0.249897
H14   H     H_    0.090800 0.945255 0.667269 0.240671
H15   H     H_    0.303958 0.924906 0.632481 0.279393
O14   O     O_3   0.674953 0.710139 0.316111 -0.590386
C35   C     C_3   0.576021 0.840469 0.322026 0.077904
H16   H     H_    0.463279 0.818143 0.353770 0.186922
H17   H     H_    0.529407 0.872520 0.279891 0.172673
C36   C     C_3   0.689457 0.976234 0.344111 -0.631768
H18   H     H_    0.794724 0.009740 0.311014 0.269151
H19   H     H_    0.611360 0.076872 0.354300 0.210933
H20   H     H_    0.747989 0.942860 0.383746 0.281680
N5    N     N_R   0.595097 0.758468 0.690752 0.210600
O15   O     O_R   0.631075 0.789466 0.636626 -0.388714
O16   O     O_R   0.608541 0.871506 0.728328 -0.388033
N6    N     N_R   0.311093 0.220581 0.336037 0.205752
O17   O     O_R   0.221015 0.253814 0.383240 -0.359250
O18   O     O_R   0.287879 0.081728 0.314230 -0.401211
N7    N     N_R   0.736581 0.018858 0.519430 0.245277
O19   O     O_R   0.861837 0.035777 0.479510 -0.313305
O20   O     O_R   0.760371 0.069804 0.571554 -0.285875
N8    N     N_R   0.257966 0.981757 0.490347 0.245218
O21   O     O_R   0.219510 0.943641 0.438092 -0.300833
O22   O     O_R   0.143288 0.956822 0.533177 -0.341600

loop_
_geom_bond_atom_site_label_1
_geom_bond_atom_site_label_2
_geom_bond_distance
_ccdc_geom_bond_type
C31   C32   1.364998 D    
C15   C17   1.392814 A    
C36   H18   1.110617 S    
C19   H5    1.083225 S    
N5    O15   1.300180 A    
O5    C3    1.292383 A    
C28   C30   1.397747 A    
O1    C1    1.270647 A    
C7    C9    1.397987 A    
C12   C14   1.407684 A    
O14   C35   1.408972 S    
N8    O22   1.300174 A    
N3    H9    1.027423 S    
C34   H14   1.110624 S    
N4    H10   1.029353 S    
C18   H4    1.083082 S    
C23   C25   1.416499 A    
O4    Zn1   2.001958 S    
C33   H12   1.118136 S    
N2    C29   1.427004 S    
C27   H7    1.082948 S    
C28   H8    1.082656 S    
C11   C12   1.405399 A    
C35   H16   1.113855 S    
C8    O12   1.350085 S    
C20   H6    1.082997 S    
C9    C15   1.403695 A    
C10   C16   1.402874 A    
C36   H19   1.108989 S    
O2    C2    1.272290 A    
C25   C27   1.398389 A    
C22   C24   1.407488 A    
N5    O16   1.301828 A    
C6    C14   1.396948 A    
C24   C26   1.420698 A    
C4    C24   1.453334 S    
C7    O11   1.349749 S    
N8    O21   1.300868 A    
C19   C21   1.391031 A    
Zn1   N4    2.016304 S    
C15   H1    1.082651 S    
O7    Zn2   1.998134 S    
C33   H11   1.110518 S    
O7    C3    1.289742 A    
C32   N8    1.437106 S    
N7    O19   1.299592 A    
C20   C22   1.391791 A    
O6    C4    1.293423 A    
C34   H15   1.110515 S    
C35   C36   1.520566 S    
C22   O14   1.381781 S    
C21   C23   1.407959 A    
O3    Zn2   2.001957 S    
O8    C4    1.292457 A    
N6    O18   1.301443 A    
N7    O20   1.301276 A    
C8    C10   1.396318 A    
C20   C30   1.399322 A    
C9    C11   1.406559 A    
C36   H20   1.107585 S    
C10   C12   1.408219 A    
C3    C23   1.444460 S    
O4    C2    1.291251 A    
O1    Zn1   1.974158 S    
C25   N5    1.446755 S    
C31   N7    1.437935 S    
C21   O13   1.384122 S    
C13   C18   1.403443 A    
C5    N1    1.373115 A    
Zn2   N3    2.016302 S    
O6    Zn2   1.974300 S    
C33   C34   1.521847 S    
C1    C31   1.410573 S    
C2    C32   1.405628 S    
N6    O17   1.297991 A    
O3    C1    1.294431 A    
O8    Zn1   1.998134 S    
C5    O9    1.350049 S    
C6    O10   1.349979 S    
C26   N6    1.444273 S    
C16   C18   1.391550 A    
N3    N4    1.270379 D    
C19   C29   1.392920 A    
C27   C29   1.399198 A    
C26   C28   1.395635 A    
N1    C7    1.372476 A    
N2    C8    1.368837 A    
C11   C13   1.405807 A    
O13   C33   1.416777 S    
O2    Zn2   1.974158 S    
C5    C13   1.395941 A    
O5    Zn1   1.974300 S    
C16   H2    1.082831 S    
C14   C17   1.403435 A    
C6    N2    1.368958 A    
C34   H13   1.109846 S    
C17   H3    1.083186 S    
C35   H17   1.114712 S    
N1    C30   1.436078 S    
