data_mof_unit_7402.cif
_audit_creation_date              2013-03-05T16:38:17-0500
_audit_creation_method            fapswitch 2.2
_symmetry_space_group_name_H-M    P1
_symmetry_Int_Tables_number       1
_space_group_crystal_system       triclinic
_cell_length_a                    21.42553
_cell_length_b                    21.804992
_cell_length_c                    21.562777
_cell_angle_alpha                 91.8783
_cell_angle_beta                  119.346429
_cell_angle_gamma                 119.768783
_cell_volume                      7096.64370907

loop_
_atom_site_label
_atom_site_type_symbol
_atom_site_description
_atom_site_fract_x
_atom_site_fract_y
_atom_site_fract_z
_atom_type_partial_charge
O1    O     O_R   0.551770 0.485660 0.433950 -0.615081
O2    O     O_R   0.448310 0.382210 0.433960 -0.613702
C1    C     C_R   0.497793 0.412856 0.411126 0.829777
O3    O     O_R   0.643350 0.551720 0.591610 -0.604550
O4    O     O_R   0.539890 0.448280 0.591620 -0.590668
C2    C     C_R   0.621161 0.503751 0.622502 0.898448
Zn1   Zn    Zn3+2 0.569080 0.569070 0.500000 1.135083
Zn2   Zn    Zn3+2 0.430920 0.430930 0.500000 1.080066
O5    O     O_R   0.551690 0.617790 0.566040 -0.610725
O6    O     O_R   0.448230 0.514340 0.566050 -0.570986
O7    O     O_R   0.460110 0.551720 0.408380 -0.573868
O8    O     O_R   0.356650 0.448280 0.408390 -0.646411
C3    C     C_R   0.500564 0.586145 0.587514 0.900731
C4    C     C_R   0.379571 0.498362 0.379370 0.840002
C5    C     C_R   0.803672 0.755926 0.721537 0.228221
C6    C     C_R   0.801157 0.690197 0.724071 0.221403
C7    C     C_R   0.764165 0.644425 0.758461 -0.081386
C8    C     C_R   0.737728 0.669056 0.796715 0.086935
C9    C     C_R   0.741684 0.735679 0.794564 0.046756
C10   C     C_R   0.772312 0.777445 0.755310 -0.013939
C11   C     C_R   0.820390 0.570945 0.818793 0.272140
C12   C     C_R   0.823928 0.508472 0.811300 -0.209641
C13   C     C_R   0.772386 0.453379 0.737974 0.092938
C14   C     C_R   0.701211 0.449005 0.677747 0.058113
C15   C     C_R   0.691205 0.506716 0.687629 -0.133982
C16   C     C_R   0.756366 0.572061 0.755374 -0.064308
C17   C     C_R   0.857872 0.449600 0.694325 -0.111081
H1    H     H_    0.876178 0.504999 0.691420 0.235802
C18   C     C_R   0.888740 0.415760 0.673367 0.013411
C19   C     C_R   0.863833 0.342897 0.674938 0.176475
C20   C     C_R   0.807979 0.304921 0.698182 0.115397
C21   C     C_R   0.777604 0.340135 0.720038 0.207234
C22   C     C_R   0.803042 0.413021 0.717991 -0.031566
C23   C     C_R   0.427720 0.099884 0.139348 0.036444
C24   C     C_R   0.500112 0.132258 0.135765 -0.049871
C25   C     C_R   0.573505 0.207160 0.180096 -0.209470
C26   C     C_R   0.575754 0.253209 0.228725 -0.040396
C27   C     C_R   0.501904 0.222171 0.231761 0.010964
C28   C     C_R   0.428766 0.144779 0.188512 0.092860
C29   C     C_R   0.649107 0.329861 0.272545 0.330755
C30   C     C_R   0.647658 0.376321 0.317404 -0.008738
C31   C     C_R   0.572974 0.346091 0.318981 0.008453
C32   C     C_R   0.500276 0.268661 0.276713 -0.018398
C33   C     C_R   0.425077 0.237912 0.278066 0.111313
C34   C     C_R   0.357495 0.158761 0.241519 0.084793
C35   C     C_R   0.359012 0.113746 0.195948 -0.236721
C36   C     C_R   0.570140 0.391537 0.362961 -0.262145
C37   C     C_R   0.494688 0.363239 0.361094 -0.106195
C38   C     C_R   0.418901 0.287510 0.314378 0.104477
H2    H     H_    0.627472 0.229233 0.174411 0.192651
H3    H     H_    0.626518 0.449893 0.398874 0.178986
H4    H     H_    0.304795 0.053948 0.166974 0.184753
H5    H     H_    0.497646 0.420693 0.203706 0.176161
C39   C     C_R   0.498324 0.508655 0.251543 -0.188498
H6    H     H_    0.565221 0.551731 0.270203 0.209259
C40   C     C_R   0.450975 0.528655 0.263512 0.362423
C41   C     C_R   0.363364 0.470230 0.238621 -0.077721
C42   C     C_R   0.325556 0.393664 0.201761 0.066612
C43   C     C_R   0.373098 0.375936 0.187432 0.179078
C44   C     C_R   0.459718 0.433678 0.213307 -0.222260
C45   C     C_R   0.245541 0.490399 0.183100 0.296182
C46   C     C_R   0.185776 0.498693 0.187123 -0.223384
C47   C     C_R   0.189399 0.504613 0.254734 0.058849
C48   C     C_R   0.255951 0.507221 0.318897 0.094282
C49   C     C_R   0.312844 0.496973 0.313498 -0.122619
C50   C     C_R   0.307704 0.487623 0.246123 -0.065634
C51   C     C_R   0.127319 0.567549 0.276580 -0.180093
H7    H     H_    0.176234 0.618979 0.277254 0.202007
C52   C     C_R   0.072708 0.568410 0.294300 0.325255
C53   C     C_R   0.013004 0.502359 0.297207 -0.118890
H8    H     H_    0.970844 0.502083 0.311321 0.229354
C54   C     C_R   0.006603 0.435858 0.281546 0.044723
C55   C     C_R   0.060533 0.435004 0.262807 0.118045
C56   C     C_R   0.120983 0.501115 0.259880 0.069554
C57   C     C_R   0.518280 0.814382 0.889158 0.235421
C58   C     C_R   0.503194 0.868007 0.865012 -0.231403
C59   C     C_R   0.488482 0.875347 0.794936 0.076285
C60   C     C_R   0.479960 0.823082 0.745929 0.121323
C61   C     C_R   0.492210 0.767823 0.769305 0.061360
C62   C     C_R   0.509706 0.762787 0.840226 0.009058
C63   C     C_R   0.462049 0.826622 0.674687 -0.134950
C64   C     C_R   0.466963 0.783181 0.631153 0.290702
C65   C     C_R   0.484033 0.731041 0.656355 0.002909
C66   C     C_R   0.491291 0.719880 0.723265 0.016435
C67   C     C_R   0.499061 0.661713 0.744712 0.039984
C68   C     C_R   0.514049 0.656176 0.815229 0.047305
C69   C     C_R   0.520345 0.707110 0.862196 -0.160090
C70   C     C_R   0.492642 0.688922 0.615600 -0.238860
C71   C     C_R   0.499289 0.631655 0.635830 -0.206508
C72   C     C_R   0.495232 0.613193 0.696281 0.268015
H9    H     H_    0.446884 0.864985 0.652947 0.209237
H10   H     H_    0.489393 0.697124 0.565132 0.220364
H11   H     H_    0.534581 0.702572 0.916721 0.215786
O9    O     O_R   0.908320 0.445630 0.037270 -0.616121
O10   O     O_R   0.908390 0.371060 0.962700 -0.543142
C73   C     C_R   0.877968 0.380059 0.998482 0.922031
O11   O     O_R   0.908320 0.537260 0.945670 -0.576725
O12   O     O_R   0.908390 0.462700 0.871100 -0.627937
C74   C     C_R   0.883207 0.502852 0.879257 0.920412
Zn3   Zn    Zn3+2 0.999930 0.549770 0.049790 1.150738
Zn4   Zn    Zn3+2 0.000030 0.450190 0.950210 1.207530
O13   O     O_R   0.091570 0.628900 0.037300 -0.608695
O14   O     O_R   0.091640 0.554330 0.962730 -0.567921
O15   O     O_R   0.091560 0.537260 0.128900 -0.648859
O16   O     O_R   0.091630 0.462690 0.054330 -0.538073
C75   C     C_R   0.120437 0.620305 0.000725 0.955591
C76   C     C_R   0.119764 0.499584 0.120535 0.925654
O17   O     O_R   0.460070 0.908340 0.051740 -0.559121
O18   O     O_R   0.356610 0.908380 0.948360 -0.656493
C77   C     C_R   0.378697 0.878802 0.997859 0.940982
O19   O     O_R   0.551760 0.066040 0.117810 -0.595914
O20   O     O_R   0.448290 0.066080 0.014430 -0.609913
C78   C     C_R   0.500961 0.086950 0.087003 0.905593
Zn5   Zn    Zn3+2 0.569030 0.999920 0.069030 1.172795
Zn6   Zn    Zn3+2 0.430870 0.999980 0.930970 1.050706
O21   O     O_R   0.643290 0.091520 0.051640 -0.598216
O22   O     O_R   0.539830 0.091560 0.948260 -0.588498
O23   O     O_R   0.551610 0.933820 0.985570 -0.571421
O24   O     O_R   0.448150 0.933870 0.882190 -0.617757
C79   C     C_R   0.621097 0.118545 0.999693 0.897748
C80   C     C_R   0.501330 0.914635 0.912987 0.854609
C81   C     C_R   0.732698 0.479705 0.010466 0.114521
C82   C     C_R   0.761900 0.433364 0.030427 0.201299
C83   C     C_R   0.720865 0.364804 0.974490 -0.207776
C84   C     C_R   0.649059 0.342200 0.898603 0.170122
C85   C     C_R   0.620892 0.389427 0.878968 -0.079965
C86   C     C_R   0.660246 0.456686 0.935384 0.201104
C87   C     C_R   0.684619 0.247513 0.002816 0.095551
C88   C     C_R   0.690292 0.186377 0.004390 -0.036644
C89   C     C_R   0.760451 0.190101 0.009495 0.021402
C90   C     C_R   0.825227 0.256502 0.012240 0.283708
C91   C     C_R   0.814469 0.314999 0.002507 -0.172068
C92   C     C_R   0.743317 0.310543 0.996741 0.101434
C93   C     C_R   0.803981 0.109773 0.074306 0.195928
C94   C     C_R   0.807254 0.046707 0.069947 0.250347
C95   C     C_R   0.781906 0.004080 0.001162 -0.080966
C96   C     C_R   0.750798 0.022628 0.935752 0.177840
C97   C     C_R   0.737136 0.079625 0.936801 0.158998
C98   C     C_R   0.763690 0.123368 0.006489 -0.197954
C99   C     C_R   0.248388 0.813548 0.228673 0.133059
C100  C     C_R   0.224970 0.790209 0.154391 0.171248
C101  C     C_R   0.262819 0.758912 0.140054 -0.196635
C102  C     C_R   0.319169 0.746336 0.198866 0.094906
C103  C     C_R   0.340475 0.767988 0.272670 0.120713
C104  C     C_R   0.307912 0.804272 0.288470 0.084876
C105  C     C_R   0.320786 0.814082 0.066304 0.094663
C106  C     C_R   0.309824 0.813808 0.996691 -0.098193
C107  C     C_R   0.232782 0.753006 0.927229 -0.056689
C108  C     C_R   0.171288 0.688570 0.929351 0.298300
C109  C     C_R   0.184024 0.687648 0.999529 -0.151564
C110  C     C_R   0.255641 0.752074 0.067498 0.105689
C111  C     C_R   0.167449 0.789075 0.816552 0.041927
C112  C     C_R   0.144960 0.791848 0.744203 0.019531
C113  C     C_R   0.164987 0.760681 0.704902 0.213459
C114  C     C_R   0.206448 0.725139 0.737676 0.126832
C115  C     C_R   0.231297 0.723213 0.811472 0.174651
C116  C     C_R   0.212845 0.756879 0.851468 -0.051057
N1    N     N_3   0.774954 0.844240 0.751976 -0.321395
H12   H     H_    0.710926 0.829076 0.726839 0.255891
H13   H     H_    0.815857 0.883044 0.807707 0.235003
N2    N     N_R   0.890882 0.305768 0.648891 0.240030
O25   O     O_R   0.832152 0.238117 0.596257 -0.265530
O26   O     O_R   0.974240 0.338948 0.678141 -0.304408
N3    N     N_R   0.781541 0.230313 0.698957 0.276790
O27   O     O_R   0.840385 0.216654 0.732270 -0.234079
O28   O     O_R   0.698392 0.175551 0.665741 -0.226935
N4    N     N_R   0.726250 0.304004 0.748805 0.242448
O29   O     O_R   0.657690 0.303469 0.727697 -0.350197
O30   O     O_R   0.749330 0.272745 0.797722 -0.256765
N5    N     N_3   0.354319 0.021689 0.092624 -0.445817
H14   H     H_    0.346294 0.991707 0.128059 0.218272
H15   H     H_    0.297017 0.018598 0.056861 0.220154
N6    N     N_R   0.726006 0.360996 0.272519 0.212826
O31   O     O_R   0.771731 0.333522 0.296635 -0.380728
O32   O     O_R   0.755452 0.421445 0.255822 -0.299306
N7    N     N_3   0.723567 0.454014 0.361667 -0.352382
H16   H     H_    0.703752 0.489270 0.344979 0.217872
H17   H     H_    0.749861 0.463734 0.419503 0.211436
N8    N     N_3   0.334316 0.262542 0.298288 -0.375341
H18   H     H_    0.286785 0.234619 0.239205 0.218011
H19   H     H_    0.332371 0.308557 0.307314 0.191276
N9    N     N_3   0.289089 0.122541 0.253136 -0.399188
H20   H     H_    0.293204 0.082637 0.277134 0.260966
H21   H     H_    0.227821 0.093347 0.199780 0.215615
N10   N     N_R   0.841822 0.803047 0.687520 0.257585
O33   O     O_R   0.919868 0.825684 0.707063 -0.319889
O34   O     O_R   0.800922 0.826862 0.640039 -0.268282
N11   N     N_R   0.492949 0.607864 0.300312 0.249449
O35   O     O_R   0.578586 0.656493 0.339568 -0.308708
O36   O     O_R   0.446827 0.633001 0.292898 -0.267942
N12   N     N_3   0.238831 0.332882 0.178802 -0.427734
H22   H     H_    0.236589 0.336561 0.226027 0.185248
H23   H     H_    0.192139 0.339191 0.137381 0.265066
N13   N     N_3   0.332457 0.298804 0.146360 -0.444896
H24   H     H_    0.377263 0.294512 0.142951 0.184728
H25   H     H_    0.280784 0.283581 0.090350 0.239904
N14   N     N_R   0.244131 0.484627 0.115555 0.224357
O37   O     O_R   0.313711 0.535764 0.119537 -0.261086
O38   O     O_R   0.186273 0.419803 0.058746 -0.337498
N15   N     N_3   0.265274 0.521007 0.389722 -0.423191
H26   H     H_    0.253450 0.473578 0.405227 0.213366
H27   H     H_    0.329871 0.568091 0.432229 0.208319
N16   N     N_R   0.077854 0.636090 0.309297 0.262124
O39   O     O_R   0.121976 0.693068 0.294626 -0.288297
O40   O     O_R   0.035061 0.640030 0.334203 -0.245240
N17   N     N_R   0.834333 0.668977 0.689989 0.232007
O41   O     O_R   0.889979 0.652921 0.728085 -0.350106
O42   O     O_R   0.811415 0.668160 0.621638 -0.324739
N18   N     N_3   0.946919 0.369381 0.286494 -0.374473
H28   H     H_    0.882823 0.353850 0.248088 0.286714
H29   H     H_    0.963060 0.383440 0.341589 0.238768
N19   N     N_3   0.057479 0.368308 0.250410 -0.389975
H30   H     H_    0.074981 0.356185 0.300391 0.229529
H31   H     H_    0.992100 0.323219 0.207192 0.280561
N20   N     N_R   0.547406 0.814964 0.965202 0.212973
O43   O     O_R   0.631629 0.857680 0.020249 -0.337131
O44   O     O_R   0.492370 0.764430 0.976881 -0.273340
N21   N     N_3   0.487636 0.937726 0.774803 -0.358739
H32   H     H_    0.532217 0.963384 0.760441 0.234063
H33   H     H_    0.516279 0.981754 0.822295 0.227281
N22   N     N_R   0.452345 0.791676 0.560630 0.218305
O45   O     O_R   0.516196 0.818302 0.552486 -0.268074
O46   O     O_R   0.381179 0.785744 0.510383 -0.261813
N23   N     N_R   0.480794 0.543045 0.704608 0.246654
O47   O     O_R   0.407910 0.491276 0.695790 -0.301496
O48   O     O_R   0.533972 0.526756 0.711242 -0.359712
N24   N     N_3   0.530453 0.603357 0.843181 -0.325267
H34   H     H_    0.484336 0.570037 0.854337 0.265508
H35   H     H_    0.593586 0.633929 0.894836 0.228200
N25   N     N_3   0.707476 0.628215 0.838423 -0.359223
H36   H     H_    0.702850 0.578202 0.833070 0.249934
H37   H     H_    0.753908 0.662523 0.896376 0.247764
N26   N     N_R   0.621326 0.497607 0.918597 0.239335
O49   O     O_R   0.617778 0.526909 0.969314 -0.319488
O50   O     O_R   0.578482 0.496943 0.849934 -0.316580
N27   N     N_R   0.775718 0.549885 0.067255 0.282577
O51   O     O_R   0.805597 0.612818 0.054505 -0.269184
O52   O     O_R   0.782742 0.550789 0.130797 -0.235634
N28   N     N_R   0.832373 0.455715 0.108153 0.254065
O53   O     O_R   0.822724 0.408813 0.144134 -0.405216
O54   O     O_R   0.905175 0.524275 0.144196 -0.323969
N29   N     N_R   0.600050 0.268637 0.842924 0.238227
O55   O     O_R   0.640781 0.241937 0.838817 -0.243644
O56   O     O_R   0.514092 0.223795 0.803093 -0.356197
N30   N     N_3   0.550738 0.368702 0.801742 -0.319623
H38   H     H_    0.490979 0.321754 0.788505 0.265912
H39   H     H_    0.564101 0.355222 0.764822 0.244703
N31   N     N_3   0.618159 0.244423 0.007129 -0.438332
H40   H     H_    0.573908 0.245107 0.956585 0.232191
H41   H     H_    0.648999 0.291955 0.052661 0.227127
N32   N     N_R   0.902152 0.264762 0.025291 0.212137
O57   O     O_R   0.894652 0.223435 0.973704 -0.281818
O58   O     O_R   0.980820 0.320783 0.083510 -0.425407
N33   N     N_R   0.849597 0.163325 0.148493 0.236700
O59   O     O_R   0.925139 0.180202 0.205465 -0.329100
O60   O     O_R   0.819451 0.198562 0.159314 -0.378505
N34   N     N_R   0.836228 0.025792 0.135794 0.282912
O61   O     O_R   0.890500 0.007330 0.154404 -0.275817
O62   O     O_R   0.807110 0.023960 0.176856 -0.271867
N35   N     N_3   0.716121 0.763167 0.832758 -0.436164
H42   H     H_    0.774036 0.810270 0.881943 0.210011
H43   H     H_    0.683437 0.723368 0.850912 0.212666
N36   N     N_3   0.789457 0.942378 0.998675 -0.327865
H44   H     H_    0.726688 0.892306 0.958112 0.238060
H45   H     H_    0.830580 0.952214 0.981609 0.231382
N37   N     N_R   0.737387 0.985794 0.869627 0.234402
O63   O     O_R   0.675687 0.913556 0.831426 -0.455273
O64   O     O_R   0.799103 0.019962 0.858839 -0.270271
N38   N     N_R   0.700517 0.095753 0.868366 0.226980
O65   O     O_R   0.645071 0.112365 0.851912 -0.355424
O66   O     O_R   0.723853 0.095954 0.822874 -0.196601
N39   N     N_R   0.341408 0.837219 0.366257 0.277982
O67   O     O_R   0.290240 0.836180 0.382861 -0.208726
O68   O     O_R   0.425552 0.874401 0.420311 -0.221828
N40   N     N_R   0.220303 0.855415 0.244944 0.280836
O69   O     O_R   0.254257 0.924363 0.245606 -0.362929
O70   O     O_R   0.151237 0.820917 0.246182 -0.195026
N41   N     N_R   0.164608 0.800667 0.094298 0.258256
O71   O     O_R   0.185646 0.836534 0.053090 -0.411049
O72   O     O_R   0.089983 0.777830 0.083377 -0.235492
N42   N     N_R   0.356726 0.713715 0.183941 0.244628
O73   O     O_R   0.307754 0.656219 0.121367 -0.337294
O74   O     O_R   0.441895 0.747908 0.226666 -0.233558
N43   N     N_R   0.393675 0.751596 0.331537 0.285594
O75   O     O_R   0.359560 0.704604 0.359851 -0.346180
O76   O     O_R   0.478953 0.793333 0.366107 -0.196124
N44   N     N_3   0.396536 0.879701 0.135027 -0.414168
H46   H     H_    0.375210 0.900892 0.158209 0.195067
H47   H     H_    0.432540 0.863549 0.174582 0.248385
N45   N     N_R   0.092249 0.626461 0.859426 0.202662
O77   O     O_R   0.096390 0.583990 0.820055 -0.340382
O78   O     O_R   0.015701 0.610780 0.836537 -0.393456
N46   N     N_R   0.888929 0.637513 0.887311 0.226156
O79   O     O_R   0.965252 0.685229 0.899745 -0.292266
O80   O     O_R   0.878004 0.647059 0.940152 -0.342920
N47   N     N_3   0.141488 0.817752 0.853117 -0.402981
H48   H     H_    0.099859 0.773654 0.862273 0.273890
H49   H     H_    0.197781 0.860523 0.906043 0.225255
N48   N     N_3   0.098075 0.823770 0.708585 -0.325615
H50   H     H_    0.136135 0.880021 0.744405 0.230201
H51   H     H_    0.038513 0.793568 0.703315 0.275776
N49   N     N_R   0.141277 0.763688 0.630606 0.265775
O81   O     O_R   0.155703 0.825756 0.617946 -0.276904
O82   O     O_R   0.102829 0.703859 0.574613 -0.249407
N50   N     N_R   0.226030 0.693492 0.696565 0.264221
O83   O     O_R   0.284667 0.738312 0.685269 -0.351029
O84   O     O_R   0.171553 0.621319 0.655654 -0.261556
N51   N     N_R   0.273434 0.686378 0.844793 0.244143
O85   O     O_R   0.324028 0.705844 0.918444 -0.312315
O86   O     O_R   0.257016 0.629449 0.801947 -0.262779
N52   N     N_3   0.644544 0.389293 0.604710 -0.412711
H52   H     H_    0.579845 0.356784 0.589269 0.241996
H53   H     H_    0.646023 0.413353 0.563849 0.180624
N53   N     N_3   0.942043 0.455182 0.647161 -0.360971
H54   H     H_    0.004346 0.466767 0.684295 0.292702
H55   H     H_    0.912129 0.419928 0.592739 0.231246

loop_
_geom_bond_atom_site_label_1
_geom_bond_atom_site_label_2
_geom_bond_distance
_ccdc_geom_bond_type
N13   H25   1.045325 S    
C11   C16   1.396061 A    
C85   C86   1.411162 A    
C55   N19   1.433050 S    
C81   N27   1.435624 S    
C9    C10   1.406393 A    
C33   C34   1.416749 A    
N16   O40   1.301633 A    
C83   C92   1.495880 S    
N43   O75   1.300632 A    
C111  N47   1.436998 S    
O4    C2    1.287531 A    
C2    C15   1.435424 S    
C102  C103  1.410161 A    
C1    C37   1.456180 S    
Zn3   O15   2.029347 S    
C40   C41   1.423952 A    
C23   C24   1.394200 A    
C30   C31   1.415473 A    
N14   O38   1.301272 A    
O5    C3    1.287630 A    
N9    H20   1.045746 S    
N33   O60   1.300282 A    
N40   O69   1.300781 A    
C90   N32   1.440611 S    
N39   O67   1.300432 A    
N29   O56   1.300738 A    
N44   H47   1.044572 S    
O24   C80   1.290866 A    
C65   C70   1.387067 A    
C43   C44   1.399827 A    
Zn4   O14   2.023959 S    
C10   N1    1.434813 S    
N30   H38   1.043986 S    
N2    O26   1.301486 A    
N31   H41   1.045040 S    
C34   N9    1.434564 S    
C58   C59   1.416781 A    
C5    C10   1.404357 A    
C102  N42   1.436723 S    
N12   H22   1.045036 S    
C94   C95   1.406266 A    
C99   C100  1.407669 A    
C8    N25   1.439663 S    
C45   N14   1.441915 S    
N17   O41   1.300846 A    
C54   C55   1.406148 A    
N53   H54   1.044557 S    
C34   C35   1.389180 A    
C79   C88   1.435767 S    
C24   C25   1.388518 A    
C101  C110  1.489863 S    
C32   C33   1.421596 A    
C26   C27   1.416686 A    
C5    N10   1.436993 S    
N24   H34   1.045749 S    
O19   C78   1.279733 A    
C51   C56   1.403262 A    
C14   C15   1.403563 A    
C14   N52   1.439188 S    
N25   H37   1.045033 S    
C113  C114  1.411863 A    
N47   H48   1.045226 S    
C30   N7    1.436157 S    
N38   O66   1.300410 A    
N1    H12   1.045974 S    
C25   H2    1.083425 S    
C105  C106  1.400283 A    
N36   H45   1.045507 S    
C111  C116  1.414434 A    
C103  C104  1.411468 A    
C99   C104  1.411150 A    
O4    Zn2   2.012444 S    
C67   C72   1.405002 A    
C47   C56   1.488560 S    
C89   C90   1.394429 A    
C27   C32   1.404349 A    
C48   C49   1.399009 A    
C54   N18   1.432113 S    
C57   N20   1.437386 S    
C24   C78   1.431919 S    
C107  C108  1.391814 A    
C52   C53   1.403432 A    
C70   C71   1.386085 A    
N15   H27   1.045745 S    
O12   C74   1.280860 A    
C114  C115  1.418973 A    
C12   C13   1.417476 A    
N34   O62   1.301432 A    
O18   C77   1.277590 A    
O15   C76   1.289453 A    
C38   N8    1.446605 S    
C75   C109  1.436432 S    
C17   C18   1.393486 A    
C106  C107  1.413918 A    
C41   C50   1.492094 S    
C87   C88   1.397454 A    
C82   C83   1.414171 A    
N4    O30   1.300873 A    
C67   C68   1.414804 A    
C17   C22   1.400169 A    
O16   C76   1.283815 A    
C18   C19   1.410499 A    
C25   C26   1.394084 A    
C8    C9    1.416242 A    
C26   C29   1.410256 A    
C27   C28   1.418303 A    
N10   O34   1.301198 A    
N5    H14   1.044356 S    
N27   O51   1.301305 A    
N11   O36   1.300478 A    
N34   O61   1.301255 A    
C81   C86   1.411521 A    
C105  N44   1.440469 S    
C114  N50   1.431771 S    
N50   O84   1.301129 A    
C13   C14   1.388326 A    
N26   O49   1.301513 A    
C112  N48   1.434087 S    
N7    H17   1.045479 S    
C48   N15   1.440088 S    
C95   N36   1.434937 S    
C68   N24   1.432858 S    
O3    Zn1   2.035457 S    
H5    C44   1.083009 S    
N51   O86   1.300354 A    
C7    C8    1.421513 A    
C82   N28   1.435828 S    
N6    O32   1.301166 A    
N49   O82   1.301136 A    
C86   N26   1.444537 S    
C23   C28   1.403412 A    
C11   N46   1.436107 S    
C93   C98   1.420108 A    
C15   C16   1.415079 A    
O21   C79   1.275713 A    
O1    C1    1.291376 A    
N46   O79   1.300368 A    
N48   H51   1.045744 S    
C96   N37   1.433479 S    
N21   H33   1.039937 S    
C65   C66   1.416211 A    
O9    Zn3   2.023958 S    
Zn2   O8    2.035458 S    
N18   H28   1.044744 S    
C84   N29   1.443078 S    
N28   O54   1.300763 A    
N19   H30   1.045461 S    
N37   O64   1.300863 A    
Zn2   O6    2.028905 S    
N24   H35   1.045872 S    
N50   O83   1.299661 A    
Zn6   O24   2.033149 S    
N52   H53   1.045780 S    
O11   Zn3   2.018997 S    
C88   C89   1.412187 A    
C39   H6    1.082405 S    
N7    H16   1.045573 S    
C108  N45   1.435726 S    
N35   H42   1.045249 S    
Zn5   O21   2.034622 S    
C93   C94   1.413695 A    
N42   O74   1.300251 A    
N43   O76   1.300626 A    
C41   C42   1.419221 A    
C69   H11   1.082225 S    
C4    C49   1.423414 S    
O17   C77   1.286373 A    
C107  C116  1.489698 S    
N14   O37   1.300293 A    
N9    H21   1.045913 S    
C105  C110  1.393016 A    
C111  C112  1.402827 A    
N39   O68   1.301170 A    
N41   O71   1.300919 A    
C11   C12   1.409840 A    
O10   Zn4   2.022231 S    
C55   C56   1.411253 A    
N28   O53   1.299951 A    
N16   O39   1.299974 A    
N23   O47   1.301317 A    
N2    O25   1.301802 A    
N36   H44   1.045041 S    
C59   C60   1.405042 A    
C104  N39   1.440021 S    
C99   N40   1.431800 S    
N3    O27   1.301340 A    
C100  N41   1.439859 S    
C19   C20   1.414238 A    
N17   O42   1.301492 A    
N53   H55   1.045567 S    
N45   O77   1.300027 A    
O17   Zn5   2.011344 S    
C20   N3    1.436550 S    
C6    C7    1.418897 A    
Zn6   O22   2.011346 S    
C53   H8    1.082962 S    
N47   H49   1.044502 S    
N13   H24   1.045789 S    
N38   O65   1.300368 A    
C85   N30   1.435003 S    
N1    H13   1.045379 S    
C89   C98   1.491600 S    
C94   N34   1.438391 S    
C51   H7    1.083116 S    
C66   C67   1.422288 A    
N32   O57   1.300196 A    
O22   C79   1.286484 A    
N4    O29   1.300908 A    
C68   C69   1.385973 A    
C95   C96   1.407380 A    
C36   H3    1.081755 S    
C46   C76   1.449462 S    
C42   C43   1.405028 A    
N48   H50   1.045625 S    
N12   H23   1.042275 S    
C72   N23   1.438792 S    
C46   C47   1.419463 A    
N44   H46   1.044275 S    
N29   O55   1.298192 A    
O3    C2    1.275168 A    
C37   C38   1.415358 A    
N19   H31   1.044075 S    
N30   H39   1.045841 S    
C84   C85   1.413924 A    
C31   C32   1.415478 A    
C7    C16   1.497502 S    
C90   C91   1.409345 A    
C9    N35   1.439890 S    
N31   H40   1.043647 S    
C12   C74   1.455144 S    
O1    Zn1   2.028911 S    
O2    Zn2   2.027095 S    
O12   Zn4   2.029481 S    
C21   C22   1.411681 A    
C108  C109  1.402674 A    
C60   C63   1.404424 A    
N10   O33   1.301325 A    
C61   C66   1.403986 A    
N5    H15   1.045437 S    
N27   O52   1.301348 A    
O19   Zn5   2.033153 S    
N20   O43   1.300691 A    
N25   H36   1.041924 S    
C97   C98   1.421496 A    
N8    H18   1.045284 S    
C63   H9    1.082299 S    
N46   O80   1.300232 A    
C64   C65   1.407205 A    
C21   N4    1.433986 S    
C42   N12   1.436727 S    
C101  C102  1.411354 A    
C19   N2    1.435944 S    
C71   C72   1.406919 A    
C87   C92   1.394494 A    
C97   N38   1.445669 S    
C33   C38   1.410092 A    
N52   H52   1.044654 S    
O10   C73   1.291757 A    
C57   C58   1.411764 A    
C63   C64   1.388216 A    
C64   N22   1.433207 S    
C39   C44   1.391800 A    
N6    O31   1.301120 A    
Zn1   O7    2.012442 S    
C115  N51   1.448612 S    
N33   O59   1.301613 A    
C58   C80   1.455101 S    
C115  C116  1.421195 A    
N40   O70   1.300374 A    
C62   C69   1.398909 A    
C6    N17   1.440739 S    
N20   O44   1.298870 A    
C29   N6    1.437263 S    
O7    C4    1.274067 A    
C59   N21   1.447173 S    
N32   O58   1.300005 A    
C113  N49   1.439131 S    
C5    C6    1.411144 A    
C35   H4    1.082143 S    
C45   C50   1.391300 A    
C40   N11   1.445619 S    
C91   C92   1.419568 A    
C13   C22   1.489293 S    
C103  N43   1.433307 S    
C57   C62   1.392716 A    
C23   N5    1.437760 S    
C73   C91   1.441636 S    
C45   C46   1.420458 A    
O20   C78   1.281343 A    
O11   C74   1.294845 A    
C43   N13   1.436478 S    
Zn4   O16   2.019004 S    
C39   C40   1.405175 A    
C87   N31   1.440731 S    
C70   H10   1.082585 S    
C18   N53   1.432481 S    
C93   N33   1.445522 S    
N35   H43   1.041252 S    
C60   C61   1.413832 A    
N15   H26   1.044529 S    
N42   O73   1.299387 A    
C47   C48   1.389692 A    
N11   O35   1.301659 A    
C51   C52   1.405310 A    
O23   C80   1.281395 A    
O9    C73   1.277460 A    
N22   O45   1.301109 A    
C36   C37   1.392756 A    
Zn3   O13   2.022232 S    
N26   O50   1.299293 A    
Zn5   O23   2.023060 S    
C28   C35   1.398192 A    
C29   C30   1.399761 A    
O8    C4    1.280140 A    
C52   N16   1.437654 S    
N41   O72   1.300968 A    
C77   C106  1.439157 S    
N51   O85   1.299550 A    
Zn1   O5    2.027093 S    
N49   O81   1.301258 A    
C3    C71   1.434542 S    
C109  C110  1.412866 A    
C20   C21   1.417164 A    
O6    C3    1.274146 A    
N23   O48   1.300074 A    
C96   C97   1.413048 A    
N3    O28   1.301329 A    
O2    C1    1.281674 A    
C81   C82   1.410717 A    
N22   O46   1.300471 A    
C100  C101  1.414320 A    
N21   H32   1.044963 S    
N18   H29   1.045508 S    
O13   C75   1.274044 A    
O14   C75   1.291244 A    
N45   O78   1.299635 A    
C31   C36   1.392697 A    
N37   O63   1.298867 A    
O18   Zn6   2.034618 S    
C61   C62   1.407544 A    
C49   C50   1.402052 A    
C17   H1    1.084214 S    
C53   C54   1.400194 A    
C112  C113  1.404397 A    
O20   Zn6   2.023059 S    
C83   C84   1.419168 A    
N8    H19   1.040687 S    
