data_mof_unit_50934.cif
_audit_creation_date              2012-12-10T20:58:00-0500
_audit_creation_method            fapswitch 2.2
_symmetry_space_group_name_H-M    P1
_symmetry_Int_Tables_number       1
_space_group_crystal_system       triclinic
_cell_length_a                    18.214321
_cell_length_b                    18.246472
_cell_length_c                    18.383774
_cell_angle_alpha                 119.94283
_cell_angle_beta                  90.03135
_cell_angle_gamma                 119.995986
_cell_volume                      4323.08797344

loop_
_atom_site_label
_atom_site_type_symbol
_atom_type_description
_atom_site_fract_x
_atom_site_fract_y
_atom_site_fract_z
_atom_type_partial_charge
C1    C     C_R   0.357814 0.220115 0.361117 0.784207
C2    C     C_3   0.298896 0.598979 0.359150 0.421454
C3    C     C_3   0.302150 0.502992 0.302522 0.128861
C4    C     C_3   0.199315 0.501847 0.200800 0.141514
C5    C     C_3   0.145428 0.400817 0.196023 -0.410185
C6    C     C_3   0.235337 0.595182 0.299525 -0.427086
C7    C     C_3   0.638902 0.939052 0.721483 -0.391013
C8    C     C_3   0.697281 0.058290 0.780075 -0.381158
C9    C     C_3   0.758037 0.937747 0.788685 -0.401913
C10   C     C_3   0.760061 0.942664 0.654156 -0.409105
C11   C     C_3   0.698325 0.897532 0.699597 0.171823
C12   C     C_R   0.640896 0.781019 0.640000 0.749637
C13   C     C_3   0.798804 0.102487 0.804455 0.198280
C14   C     C_3   0.818180 0.058448 0.850750 0.058638
C15   C     C_3   0.819214 0.062648 0.715640 -0.468418
C16   C     C_3   0.668193 0.387840 0.231184 -0.486370
C17   C     C_3   0.725372 0.386411 0.169014 -0.416067
C18   C     C_3   0.692680 0.548126 0.254058 0.041575
C19   C     C_3   0.798430 0.562614 0.360680 -0.477629
C20   C     C_3   0.699196 0.500675 0.303079 0.145653
C21   C     C_3   0.800531 0.498570 0.201089 0.073897
C22   C     C_3   0.753894 0.548048 0.195166 -0.516854
C23   C     C_R   0.359643 0.500922 0.641098 0.786156
C24   C     C_3   0.858740 0.564552 0.301293 0.443576
C25   C     C_R   0.295062 0.137345 0.580348 -0.138978
C26   C     C_R   0.296945 0.094947 0.493262 -0.136928
C27   C     C_R   0.252600 0.098520 0.433859 0.156362
C28   C     C_R   0.205689 0.144070 0.462255 -0.120600
C29   C     C_R   0.203389 0.185674 0.549247 -0.129212
C30   C     C_R   0.248136 0.182393 0.608241 -0.119962
C31   C     C_R   0.201971 0.943608 0.285515 -0.265607
C32   C     C_R   0.197042 0.892339 0.196411 -0.049910
C33   C     C_R   0.244529 0.949475 0.161872 0.022234
C34   C     C_R   0.640792 0.499406 0.359642 0.785376
C35   C     C_R   0.294406 0.056444 0.217029 -0.263957
C36   C     C_R   0.299689 0.107779 0.306189 -0.054160
C37   C     C_R   0.252549 0.050721 0.341019 -0.012377
C38   C     C_R   0.296874 0.858229 0.047032 -0.234052
C39   C     C_R   0.304970 0.818220 0.961799 0.602212
C40   C     C_R   0.260541 0.818073 0.899384 -0.209619
C41   C     C_R   0.211921 0.861267 0.922676 -0.226577
C42   C     C_R   0.206523 0.904114 0.008334 -0.142474
C43   C     C_R   0.248357 0.901973 0.070622 0.087179
C44   C     C_R   0.914715 0.684603 0.605967 -0.135255
C45   C     C_R   0.641862 0.500358 0.640325 0.792794
C46   C     C_R   0.868153 0.614345 0.627955 -0.121663
C47   C     C_R   0.843753 0.644675 0.704941 0.159988
C48   C     C_R   0.867224 0.746102 0.760081 -0.132005
C49   C     C_R   0.913845 0.816097 0.737846 -0.140580
C50   C     C_R   0.937326 0.785279 0.660726 -0.101729
C51   C     C_R   0.842377 0.567886 0.782345 -0.256334
C52   C     C_R   0.799424 0.499732 0.807040 -0.050100
C53   C     C_R   0.704527 0.432405 0.777141 -0.019891
C54   C     C_R   0.655248 0.434059 0.721881 -0.261162
C55   C     C_R   0.698232 0.501965 0.696923 -0.050313
C56   C     C_R   0.359078 0.501284 0.359507 0.776165
C57   C     C_R   0.793079 0.570038 0.727598 -0.021492
C58   C     C_R   0.622038 0.254844 0.742996 -0.141845
C59   C     C_R   0.576643 0.186474 0.767084 -0.147646
C60   C     C_R   0.562667 0.221897 0.849258 -0.105317
C61   C     C_R   0.593493 0.325593 0.907248 -0.124207
C62   C     C_R   0.638717 0.394177 0.883335 -0.111120
C63   C     C_R   0.653883 0.359254 0.801324 0.156951
C64   C     C_R   0.387104 0.803388 0.723809 -0.164441
C65   C     C_R   0.370181 0.731255 0.741377 -0.146578
C66   C     C_R   0.288319 0.632500 0.692929 0.027974
C67   C     C_3   0.339470 0.507024 0.227561 -0.361033
C68   C     C_R   0.224765 0.604800 0.623725 0.564526
C69   C     C_R   0.242025 0.678667 0.607550 -0.241164
C70   C     C_R   0.322649 0.777567 0.657806 -0.232230
C71   C     C_R   0.211186 0.555088 0.769699 -0.117905
C72   C     C_R   0.192447 0.495508 0.802639 -0.065176
C73   C     C_R   0.227760 0.436223 0.780642 0.004050
C74   C     C_R   0.283464 0.441566 0.729354 -0.275368
C75   C     C_R   0.303428 0.502533 0.697610 -0.066229
C76   C     C_R   0.267445 0.561117 0.718915 0.068066
C77   C     C_R   0.264823 0.397115 0.883788 0.250620
C78   C     C_3   0.281213 0.511118 0.170407 -0.403888
C79   C     C_R   0.242089 0.326567 0.905719 -0.140360
C80   C     C_R   0.162720 0.226645 0.853290 -0.162369
C81   C     C_R   0.105402 0.195786 0.778220 -0.138263
C82   C     C_R   0.127278 0.264706 0.755212 -0.184884
C83   C     C_R   0.206753 0.365500 0.807462 0.135707
C84   C     C_R   0.857241 0.498624 0.142876 0.791602
C85   C     C_R   0.137698 0.498672 0.860685 0.800887
C86   C     C_R   0.856726 0.219073 0.862150 0.748877
C87   C     C_R   0.139672 0.779933 0.141209 0.783947
C88   C     C_R   0.855873 0.500086 0.862337 0.793763
C89   C     C_3   0.205041 0.402970 0.258019 -0.523238
C90   C     C_R   0.140391 0.500622 0.142919 0.767748
H1    H     H_    0.339203 0.437221 0.184029 0.171654
H2    H     H_    0.178134 0.588676 0.324429 0.150080
H3    H     H_    0.175566 0.398954 0.309981 0.150121
H4    H     H_    0.085360 0.391644 0.216032 0.160274
H5    H     H_    0.596210 0.910621 0.757069 0.168525
H6    H     H_    0.593173 0.909668 0.658951 0.173163
H7    H     H_    0.682736 0.085350 0.743167 0.169867
H8    H     H_    0.678540 0.086982 0.840889 0.178511
H9    H     H_    0.714260 0.904365 0.821133 0.163560
H10   H     H_    0.804077 0.915053 0.638375 0.178243
H11   H     H_    0.410413 0.575679 0.256465 0.192217
H12   H     H_    0.718421 0.915054 0.590157 0.168098
H13   H     H_    0.806623 0.092628 0.680743 0.167682
H14   H     H_    0.891339 0.091999 0.729274 0.175404
H15   H     H_    0.801776 0.909774 0.775419 0.152737
H16   H     H_    0.889663 0.085106 0.861135 0.155151
H17   H     H_    0.596271 0.339246 0.190346 0.190341
H18   H     H_    0.673369 0.352029 0.263469 0.164215
H19   H     H_    0.753671 0.343318 0.164456 0.168932
H20   H     H_    0.680746 0.343006 0.100295 0.189682
H21   H     H_    0.621923 0.497264 0.209137 0.165897
H22   H     H_    0.322569 0.585115 0.176324 0.170474
H23   H     H_    0.712331 0.503993 0.124962 0.176166
H24   H     H_    0.823529 0.643579 0.414688 0.166130
H25   H     H_    0.800910 0.528781 0.395829 0.171425
H26   H     H_    0.900292 0.646328 0.322437 0.095003
H27   H     H_    0.805899 0.627989 0.215315 0.170338
H28   H     H_    0.246576 0.214695 0.675585 0.137150
H29   H     H_    0.329638 0.134868 0.626092 0.129719
H30   H     H_    0.332972 0.059516 0.472077 0.121585
H31   H     H_    0.258010 0.446965 0.099276 0.185643
H32   H     H_    0.170610 0.146646 0.416937 0.101058
H33   H     H_    0.166832 0.220312 0.570850 0.127518
H34   H     H_    0.164822 0.900125 0.312109 0.172897
H35   H     H_    0.331878 0.099823 0.190450 0.170397
H36   H     H_    0.328294 0.855519 0.094828 0.120256
H37   H     H_    0.264039 0.785131 0.832845 0.156558
H38   H     H_    0.178582 0.861754 0.874322 0.158916
H39   H     H_    0.169286 0.938219 0.026002 0.134611
H40   H     H_    0.973238 0.839483 0.643527 0.115803
H41   H     H_    0.205841 0.333333 0.218679 0.199823
H42   H     H_    0.933312 0.661116 0.546532 0.127521
H43   H     H_    0.850541 0.536362 0.584890 0.111891
H44   H     H_    0.848888 0.770502 0.819703 0.110786
H45   H     H_    0.931812 0.894227 0.780369 0.110038
H46   H     H_    0.915134 0.620067 0.805395 0.179193
H47   H     H_    0.582492 0.381901 0.698845 0.177471
H48   H     H_    0.633235 0.226896 0.679535 0.115507
H49   H     H_    0.552551 0.106117 0.722199 0.112243
H50   H     H_    0.527878 0.168974 0.867943 0.112462
H51   H     H_    0.582543 0.352845 0.970802 0.109400
H52   H     H_    0.120916 0.332670 0.126404 0.188175
H53   H     H_    0.662945 0.474537 0.928958 0.106149
H54   H     H_    0.335297 0.834241 0.645416 0.145111
H55   H     H_    0.449485 0.880045 0.762514 0.129524
H56   H     H_    0.420031 0.752856 0.793813 0.158200
H57   H     H_    0.192519 0.659836 0.556771 0.144235
H58   H     H_    0.183067 0.599126 0.784811 0.163716
H59   H     H_    0.311397 0.397373 0.714274 0.177274
H60   H     H_    0.285762 0.348747 0.963481 0.118595
H61   H     H_    0.270284 0.593805 0.411653 0.060894
H62   H     H_    0.145680 0.172981 0.870865 0.126827
H63   H     H_    0.044108 0.118217 0.737625 0.121455
H64   H     H_    0.082295 0.239679 0.696638 0.123261
H65   H     H_    0.271149 0.668693 0.304284 0.198136
O1    O     O_3   0.500000 0.500000 0.500000 -0.474286
O2    O     O_R   0.383400 0.560740 0.616060 -0.652649
O3    O     O_R   0.555060 0.439270 0.322940 -0.656733
O4    O     O_R   0.383950 0.268380 0.445700 -0.632760
O5    O     O_R   0.677590 0.731610 0.615290 -0.638872
O6    O     O_3   0.997750 0.500010 0.002220 -0.482081
O7    O     O_R   0.942690 0.560750 0.179280 -0.606730
O8    O     O_R   0.114340 0.439270 0.886160 -0.636529
O9    O     O_R   0.820160 0.268410 0.886930 -0.639861
O10   O     O_R   0.113800 0.731630 0.056520 -0.633083
O11   O     O_R   0.819390 0.439310 0.886160 -0.636387
O12   O     O_R   0.383400 0.268380 0.323710 -0.652017
O13   O     O_R   0.115110 0.560720 0.179280 -0.637107
O14   O     O_R   0.941380 0.560750 0.885620 -0.650155
O15   O     O_R   0.115110 0.439270 0.057830 -0.642831
O16   O     O_R   0.942690 0.268390 0.886930 -0.647152
O17   O     O_R   0.114340 0.731630 0.178520 -0.652205
O18   O     O_R   0.820160 0.439310 0.057830 -0.653129
O19   O     O_R   0.113800 0.560730 0.885620 -0.640325
O20   O     O_R   0.555060 0.731630 0.615290 -0.645074
O21   O     O_R   0.383950 0.439280 0.616600 -0.638288
O22   O     O_R   0.677590 0.560710 0.444390 -0.641641
O23   O     O_R   0.556370 0.439260 0.616600 -0.649867
O24   O     O_R   0.382640 0.439290 0.322940 -0.652362
O25   O     O_R   0.678360 0.560700 0.616060 -0.636745
O26   O     O_R   0.382640 0.560750 0.444390 -0.641740
Zn1   Zn    Zn3+2 0.456040 0.586770 0.543190 0.955106
Zn2   Zn    Zn3+2 0.456820 0.413240 0.543960 0.966009
Zn3   Zn    Zn3+2 0.631110 0.586750 0.543190 0.964629
Zn4   Zn    Zn3+2 0.456040 0.413240 0.369660 0.943192
Zn5   Zn    Zn3+2 0.041710 0.413240 0.959030 0.965759
Zn6   Zn    Zn3+2 0.866640 0.413270 0.959030 0.960381
Zn7   Zn    Zn3+2 0.040930 0.586780 0.958260 0.971699
Zn8   Zn    Zn3+2 0.041710 0.586770 0.132560 0.976890
C91   C     C_3   0.807543 0.098121 0.943443 -0.977822
H66   H     H_    0.736835 0.070765 0.939031 0.250171
H67   H     H_    0.827666 0.068988 0.974291 0.242953
H68   H     H_    0.851557 0.184027 0.988191 0.236692
O27   O     O_3   0.923912 0.546250 0.313974 -0.584137
C92   C     C_3   0.896740 0.470716 0.331070 -0.331352
H69   H     H_    0.824233 0.407656 0.299563 0.152508
H70   H     H_    0.916480 0.508551 0.404033 0.166436
H71   H     H_    0.933310 0.434670 0.304858 0.180778
C93   C     C_3   0.713993 0.657166 0.316925 -0.952945
H72   H     H_    0.668847 0.656831 0.357468 0.238877
H73   H     H_    0.784880 0.714449 0.361975 0.246679
H74   H     H_    0.703120 0.682904 0.277038 0.245979
O28   O     O_3   0.350354 0.772184 0.936321 -0.624160
C94   C     C_3   0.443075 0.848469 0.984058 -0.399043
H75   H     H_    0.458142 0.878713 0.055648 0.170367
H76   H     H_    0.469253 0.913016 0.976283 0.158947
H77   H     H_    0.479477 0.812460 0.956664 0.195352
O29   O     O_3   0.143761 0.507975 0.576517 -0.620335
C95   C     C_3   0.141574 0.449976 0.488458 -0.360868
H78   H     H_    0.135385 0.480379 0.451066 0.152068
H79   H     H_    0.081412 0.369022 0.453851 0.191692
H80   H     H_    0.201636 0.447759 0.486625 0.163726
C96   C     C_3   0.349593 0.505177 0.942199 -0.953246
H81   H     H_    0.386245 0.517577 0.999997 0.230391
H82   H     H_    0.394864 0.519168 0.903190 0.246258
H83   H     H_    0.332717 0.562314 0.968027 0.254706
O30   O     O_3   0.386889 0.691023 0.395657 -0.603251
C97   C     C_3   0.401152 0.769803 0.481532 -0.342364
H84   H     H_    0.407556 0.751868 0.529731 0.208622
H85   H     H_    0.346701 0.781563 0.482402 0.149249
H86   H     H_    0.465393 0.843526 0.502991 0.181821

loop_
_geom_bond_atom_site_label_1
_geom_bond_atom_site_label_2
_ccdc_geom_bond_type
O21   Zn2   S    
C66   C68   A    
O28   C94   S    
C91   H66   S    
C51   C52   A    
C39   O28   S    
C64   H55   S    
C22   H27   S    
C41   C42   A    
C35   C36   A    
C62   H53   S    
C8    H7    S    
O9    Zn6   S    
C17   H20   S    
C72   C85   S    
O1    Zn3   S    
C77   C96   S    
C7    C8    S    
O26   Zn1   S    
C7    C11   S    
C7    H6    S    
C26   C27   A    
O6    Zn5   S    
O8    Zn5   S    
C48   H44   S    
C28   C29   A    
C51   H46   S    
C26   H30   S    
C31   H34   S    
O6    Zn7   S    
C10   C15   S    
C71   C76   A    
C80   C81   A    
C28   H32   S    
C54   H47   S    
C47   C57   S    
C56   O26   A    
C1    O12   A    
C9    H15   S    
O12   Zn4   S    
C29   H33   S    
C2    H61   S    
C95   H80   S    
C81   H63   S    
C73   C74   A    
C35   H35   S    
C78   H31   S    
C8    H8    S    
C50   H40   S    
C91   H68   S    
O19   Zn7   S    
C54   C55   A    
C22   H23   S    
O18   Zn6   S    
C47   C48   A    
C16   C17   S    
C13   C86   S    
C68   O29   S    
C93   H74   S    
C68   C69   A    
C21   C84   S    
C74   H59   S    
C51   C57   A    
C64   C70   A    
C15   H14   S    
C42   C43   A    
C6    H65   S    
C16   H17   S    
C92   H71   S    
C20   C34   S    
C58   H48   S    
C77   C79   A    
O27   C92   S    
C49   H45   S    
C59   C60   A    
C9    H9    S    
C21   C22   S    
C41   H38   S    
C90   O15   A    
C2    C6    S    
C67   C78   S    
C48   C49   A    
C25   H29   S    
C38   H36   S    
O1    Zn2   S    
C44   C46   A    
C81   C82   A    
C4    C90   S    
C96   H82   S    
C69   C70   A    
C38   C39   A    
C95   H78   S    
O10   Zn7   S    
C74   C75   A    
O11   Zn6   S    
C33   C43   S    
C1    O4    A    
C18   H21   S    
C4    C6    S    
C59   H49   S    
C39   C40   A    
C9    C14   S    
O1    Zn1   S    
O29   C95   S    
C23   O21   A    
C30   H28   S    
C19   H24   S    
O30   C97   S    
C96   H81   S    
C40   H37   S    
C77   C83   A    
C17   C21   S    
O13   Zn8   S    
C86   O16   A    
C60   C61   A    
C24   H26   S    
C82   H64   S    
O23   Zn2   S    
C79   H60   S    
C75   C76   A    
C4    C78   S    
C29   C30   A    
C2    O30   S    
C3    C56   S    
C97   H85   S    
C31   C32   A    
C94   H77   S    
C19   H25   S    
C16   C20   S    
C66   C76   S    
O15   Zn5   S    
C62   C63   A    
C67   H1    S    
C85   O19   A    
C5    H4    S    
C12   O5    A    
C10   H10   S    
C9    C11   S    
C45   O23   A    
C60   H50   S    
C12   O20   A    
C34   O3    A    
C61   H51   S    
C40   C41   A    
C94   H76   S    
C82   C83   A    
C88   O11   A    
C55   C57   A    
C69   H57   S    
C97   H84   S    
C45   O25   A    
C86   O9    A    
C24   O27   S    
C32   C87   S    
C84   O18   A    
O3    Zn4   S    
C18   C93   S    
C84   O7    A    
C52   C53   A    
C67   H11   S    
C97   H86   S    
C87   O17   A    
C96   H83   S    
C44   C50   A    
C25   C30   A    
C80   H62   S    
C46   C47   A    
C36   C37   A    
C91   H67   S    
C88   O14   A    
O16   Zn5   S    
C90   O13   A    
C18   C22   S    
O20   Zn1   S    
C3    C67   S    
C58   C63   A    
O14   Zn7   S    
C23   C75   S    
C72   C73   A    
C17   H19   S    
C11   C12   S    
C53   C54   A    
O24   Zn4   S    
O1    Zn4   S    
O17   Zn8   S    
C44   H42   S    
O22   Zn3   S    
C7    H5    S    
C19   C20   S    
C70   H54   S    
C89   H41   S    
C14   H16   S    
C3    C89   S    
C15   H13   S    
C32   C33   A    
O6    Zn8   S    
C13   C15   S    
C2    C3    S    
C25   C26   A    
C38   C43   A    
O6    Zn6   S    
C92   H69   S    
C64   C65   A    
C46   H43   S    
C53   C63   S    
C5    H52   S    
C87   O10   A    
C27   C37   S    
C85   O8    A    
C4    C5    S    
C23   O2    A    
C10   H12   S    
C71   H58   S    
C33   C35   A    
O5    Zn3   S    
C19   C24   S    
C42   H39   S    
C18   C20   S    
C6    H2    S    
C65   C66   A    
C89   H3    S    
C61   C62   A    
C52   C88   S    
C58   C59   A    
C10   C11   S    
C16   H18   S    
C79   C80   A    
C14   C91   S    
C8    C13   S    
C31   C37   A    
C93   H72   S    
C71   C72   A    
C94   H75   S    
C45   C55   S    
C49   C50   A    
O2    Zn1   S    
C21   C24   S    
C27   C28   A    
C93   H73   S    
C95   H79   S    
C34   O22   A    
C78   H22   S    
O4    Zn2   S    
C65   H56   S    
C13   C14   S    
C73   C83   S    
O7    Zn8   S    
C5    C89   S    
O25   Zn3   S    
C1    C36   S    
C92   H70   S    
C56   O24   A    
