data_mof_unit_16946.cif
_audit_creation_date              2012-12-10T17:35:37-0500
_audit_creation_method            fapswitch 2.2
_symmetry_space_group_name_H-M    P1
_symmetry_Int_Tables_number       1
_space_group_crystal_system       triclinic
_cell_length_a                    10.713284
_cell_length_b                    12.345398
_cell_length_c                    13.181889
_cell_angle_alpha                 116.708969
_cell_angle_beta                  77.437756
_cell_angle_gamma                 101.250072
_cell_volume                      1510.62544738

loop_
_atom_site_label
_atom_site_type_symbol
_atom_type_description
_atom_site_fract_x
_atom_site_fract_y
_atom_site_fract_z
_atom_type_partial_charge
C1    C     C_R   0.511372 0.854921 0.286566 0.771990
C2    C     C_3   0.122256 0.995807 0.495751 0.071281
C3    C     C_3   0.068345 0.106328 0.601656 -0.387683
C4    C     C_3   0.043952 0.877226 0.499705 -0.379816
C5    C     C_R   0.324226 0.277342 0.021220 -0.176611
C6    C     C_R   0.453231 0.228268 0.834701 -0.050349
C7    C     C_R   0.597106 0.814529 0.084880 -0.178809
C8    C     C_R   0.622639 0.735363 0.969824 -0.138940
C9    C     C_R   0.576344 0.612452 0.932184 -0.159133
C10   C     C_R   0.498499 0.566578 0.009173 0.096725
C11   C     C_R   0.460027 0.650585 0.123627 0.090008
C12   C     C_R   0.740113 0.997615 0.496997 0.774496
C13   C     C_R   0.456368 0.440331 0.976038 0.090414
C14   C     C_R   0.366783 0.401666 0.053180 0.162265
C15   C     C_R   0.318356 0.487611 0.160259 -0.216638
C16   C     C_R   0.362801 0.610313 0.194469 -0.193418
C17   C     C_R   0.501611 0.350911 0.868692 -0.228952
C18   C     C_R   0.366532 0.190965 0.912003 -0.198691
C19   C     C_R   0.518851 0.773006 0.163369 -0.096760
C20   C     C_R   0.691067 0.338523 0.316994 -0.230881
C21   C     C_R   0.327783 0.763662 0.647712 0.054181
C22   C     C_R   0.281200 0.665695 0.674832 -0.295979
C23   C     C_R   0.480693 0.145093 0.713438 0.791898
C24   C     C_R   0.335131 0.555282 0.613202 0.041015
C25   C     C_R   0.448165 0.547248 0.530101 -0.087967
C26   C     C_R   0.488832 0.650432 0.503305 0.195805
C27   C     C_R   0.522319 0.443578 0.471488 -0.106040
C28   C     C_R   0.622017 0.440316 0.379486 0.040778
C29   C     C_R   0.654988 0.540018 0.352526 0.526324
C30   C     C_R   0.592770 0.643704 0.415758 -0.259186
C31   C     C_R   0.507301 0.344774 0.502232 0.102039
C32   C     C_R   0.664231 0.241195 0.346796 0.081111
C33   C     C_R   0.260399 0.998419 0.497769 0.771113
C34   C     C_3   0.960027 0.000610 0.383671 0.477821
C35   C     C_3   0.104006 0.001084 0.384629 -0.378571
C36   C     C_3   0.924957 0.107152 0.601115 -0.343612
C37   C     C_3   0.900863 0.877451 0.499776 -0.479378
C38   C     C_3   0.878386 0.995793 0.495169 0.048100
Cu1   Cu    Cu3+1 0.529690 0.098270 0.475420 0.971542
Cu2   Cu    Cu3+1 0.470310 0.901730 0.524580 0.919659
H1    H     H_    0.054821 0.869912 0.578467 0.189979
H2    H     H_    0.867500 0.104608 0.681425 0.149581
H3    H     H_    0.080451 0.103233 0.682058 0.153092
H4    H     H_    0.327612 0.096184 0.886533 0.148595
H5    H     H_    0.245787 0.459904 0.218081 0.161678
H6    H     H_    0.255476 0.247390 0.079604 0.149272
H7    H     H_    0.573984 0.374067 0.808645 0.144216
H8    H     H_    0.641412 0.908040 0.112885 0.154078
H9    H     H_    0.600799 0.556594 0.841777 0.127643
H10   H     H_    0.682164 0.768722 0.909834 0.141354
H11   H     H_    0.928413 0.919466 0.307419 0.065949
H12   H     H_    0.317040 0.673050 0.276043 0.170824
H13   H     H_    0.715490 0.161597 0.297625 0.156341
H14   H     H_    0.765690 0.333967 0.245437 0.198159
H15   H     H_    0.445525 0.345108 0.578278 0.138294
H16   H     H_    0.281331 0.846480 0.692869 0.130581
H17   H     H_    0.196757 0.673816 0.739323 0.172249
H18   H     H_    0.629635 0.717451 0.392785 0.222286
H19   H     H_    0.142119 0.921381 0.307968 0.108174
H20   H     H_    0.159414 0.084801 0.378740 0.240713
H21   H     H_    0.910895 0.193635 0.600113 0.220262
H22   H     H_    0.122824 0.191631 0.600590 0.218001
H23   H     H_    0.844407 0.870612 0.578688 0.206729
H24   H     H_    0.868123 0.795736 0.424479 0.199503
H25   H     H_    0.080417 0.795664 0.424216 0.183055
N1    N     N_R   0.574690 0.246280 0.438200 -0.192504
N2    N     N_R   0.426100 0.754320 0.561190 -0.186998
O1    O     O_R   0.537340 0.972510 0.318130 -0.584269
O2    O     O_R   0.487200 0.806530 0.359650 -0.598899
O3    O     O_R   0.707380 0.082980 0.479220 -0.522475
O4    O     O_R   0.657240 0.917000 0.520740 -0.611395
O5    O     O_R   0.512800 0.193470 0.640350 -0.591621
O6    O     O_R   0.462660 0.027490 0.681870 -0.587223
O7    O     O_R   0.342760 0.083000 0.479260 -0.567031
O8    O     O_R   0.292620 0.917020 0.520780 -0.601931
F1    F     F_    0.943703 0.103974 0.373624 -0.658250
F2    F     F_    0.752267 0.539618 0.266787 -0.681872
C39   C     C_2   0.256596 0.450206 0.628541 0.789740
O9    O     O_2   0.227085 0.358244 0.544704 -0.601319
O10   O     O_R   0.210274 0.459534 0.739584 -0.767646
H26   H     H_    0.153761 0.384039 0.740708 0.321932

loop_
_geom_bond_atom_site_label_1
_geom_bond_atom_site_label_2
_ccdc_geom_bond_type
C2    C35   S    
C31   N1    A    
Cu2   O4    S    
Cu1   O1    S    
C36   H2    S    
C22   H17   S    
C7    C8    A    
C11   C19   A    
C34   H11   S    
C37   C38   S    
C26   N2    A    
C28   C29   A    
C4    H25   S    
C39   O10   S    
C4    H1    S    
C15   C16   A    
C1    O1    A    
Cu2   O6    S    
C35   H19   S    
C34   C35   S    
Cu1   O7    S    
C33   O8    A    
C8    C9    A    
Cu2   N2    S    
Cu1   O5    S    
C9    C10   A    
C21   C22   A    
C21   N2    A    
C23   O6    A    
C37   H23   S    
C6    C18   A    
C1    C19   S    
Cu2   O2    S    
C27   C31   A    
C17   H7    S    
C9    H9    S    
C24   C25   A    
C20   H14   S    
Cu1   Cu2   S    
C39   O9    D    
C5    C18   A    
C20   C28   A    
C25   C26   A    
C1    O2    A    
C35   H20   S    
C2    C4    S    
C29   C30   A    
C18   H4    S    
C11   C16   A    
C3    H3    S    
C5    C14   A    
C2    C33   S    
C24   C39   S    
C12   O4    A    
C26   C30   A    
C7    C19   A    
Cu1   N1    S    
C22   C24   A    
C15   H5    S    
C36   H21   S    
C8    H10   S    
C32   H13   S    
C37   H24   S    
C32   N1    A    
C20   C32   A    
C3    H22   S    
C6    C17   A    
C12   O3    A    
C34   C38   S    
C23   O5    A    
C16   H12   S    
O10   H26   S    
C10   C13   A    
C21   H16   S    
C25   C27   A    
C5    H6    S    
Cu2   O8    S    
C13   C17   A    
C7    H8    S    
C36   C38   S    
C2    C3    S    
C3    C36   S    
C6    C23   S    
C30   H18   S    
Cu1   O3    S    
C12   C38   S    
C10   C11   A    
C33   O7    A    
C29   F2    S    
C4    C37   S    
C27   C28   A    
C14   C15   A    
C31   H15   S    
C13   C14   A    
C34   F1    S    
