data_mof_unit_64569.cif
_audit_creation_date              2012-12-10T20:22:49-0500
_audit_creation_method            fapswitch 2.2
_symmetry_space_group_name_H-M    P1
_symmetry_Int_Tables_number       1
_space_group_crystal_system       triclinic
_cell_length_a                    25.65329
_cell_length_b                    36.31697
_cell_length_c                    22.250719
_cell_angle_alpha                 89.999859
_cell_angle_beta                  125.302945
_cell_angle_gamma                 90.000226
_cell_volume                      16917.8161929

loop_
_atom_site_label
_atom_site_type_symbol
_atom_type_description
_atom_site_fract_x
_atom_site_fract_y
_atom_site_fract_z
_atom_type_partial_charge
Br1   Br    Br    0.873512 0.546066 0.967588 -0.358656
Br2   Br    Br    0.101280 0.046065 0.979313 -0.362108
Br3   Br    Br    0.101280 0.953935 0.979313 -0.362042
Br4   Br    Br    0.898720 0.046065 0.020688 -0.362119
Br5   Br    Br    0.397552 0.453934 0.018704 -0.362672
Br6   Br    Br    0.602448 0.546066 0.981296 -0.362625
Br7   Br    Br    0.602448 0.453934 0.981296 -0.362682
Br8   Br    Br    0.397552 0.546066 0.018704 -0.362603
Br9   Br    Br    0.126488 0.453934 0.032412 -0.358561
Br10  Br    Br    0.126488 0.546066 0.032412 -0.358684
Br11  Br    Br    0.873512 0.453934 0.967587 -0.358551
Br12  Br    Br    0.376179 0.046066 0.974784 -0.359245
Br13  Br    Br    0.623820 0.953935 0.025215 -0.359334
Br14  Br    Br    0.623821 0.046066 0.025217 -0.359236
Br15  Br    Br    0.376180 0.953935 0.974787 -0.359358
Br16  Br    Br    0.898720 0.953935 0.020688 -0.362064
C1    C     C_R   0.858100 0.749968 0.999955 0.796726
C2    C     C_3   0.241670 0.783682 0.018139 -0.161319
C3    C     C_1   0.500000 0.611586 1.000000 -0.073273
C4    C     C_R   0.000000 0.848962 0.000000 0.818835
C5    C     C_R   0.000000 0.151038 0.000000 0.818686
C6    C     C_R   0.500000 0.348962 1.000000 0.818735
C7    C     C_R   0.500000 0.651038 1.000000 0.818885
C8    C     C_R   1.000000 0.651029 1.000000 0.816448
C9    C     C_R   0.000000 0.348971 0.000000 0.816495
C10   C     C_R   0.500000 0.151029 0.000000 0.816925
C11   C     C_R   0.500000 0.848971 0.000000 0.816879
C12   C     C_R   0.946559 0.480634 0.986304 0.223857
C13   C     C_3   0.241670 0.216318 0.018139 -0.161405
C14   C     C_R   0.053441 0.519366 0.013696 0.223830
C15   C     C_R   0.053441 0.480634 0.013696 0.223860
C16   C     C_R   0.946559 0.519366 0.986304 0.223835
C17   C     C_R   0.447687 0.980634 0.989347 0.223958
C18   C     C_R   0.552313 0.019366 0.010654 0.223986
C19   C     C_R   0.552313 0.980634 0.010654 0.223962
C20   C     C_R   0.447687 0.019366 0.989347 0.223988
C21   C     C_R   1.000000 0.461337 1.000000 -0.133194
C22   C     C_R   1.000000 0.538663 1.000000 -0.133177
C23   C     C_R   0.500000 0.961337 0.000000 -0.133021
C24   C     C_3   0.758330 0.783682 0.981861 -0.161337
C25   C     C_R   0.500000 0.038663 0.000000 -0.133037
C26   C     C_1   1.000000 0.421597 1.000000 0.133972
C27   C     C_1   1.000000 0.578403 1.000000 0.133919
C28   C     C_1   0.500000 0.921598 0.000000 0.134072
C29   C     C_1   0.500000 0.078402 0.000000 0.134128
C30   C     C_1   1.000000 0.611580 1.000000 -0.071323
C31   C     C_1   0.000000 0.388420 1.000000 -0.071207
C32   C     C_1   0.500000 0.111580 0.000000 -0.071202
C33   C     C_1   0.500000 0.888420 0.000000 -0.071320
C34   C     C_3   0.257854 0.725267 0.049500 -0.111357
C35   C     C_3   0.258330 0.716318 0.981861 -0.161494
C36   C     C_3   0.742146 0.274733 0.950500 -0.111377
C37   C     C_3   0.742146 0.725267 0.950500 -0.111366
C38   C     C_3   0.257854 0.274734 0.049500 -0.111375
C39   C     C_3   0.757854 0.225266 0.049500 -0.111338
C40   C     C_3   0.242146 0.774734 0.950500 -0.111318
C41   C     C_3   0.242146 0.225266 0.950501 -0.111335
C42   C     C_3   0.757854 0.774734 0.049500 -0.111327
C43   C     C_2   0.685741 0.736361 0.571352 0.929213
C44   C     C_2   0.313616 0.265751 0.428629 0.929084
C45   C     C_2   0.314444 0.737062 0.428652 0.929214
C46   C     C_3   0.741669 0.283682 0.018139 -0.161588
C47   C     C_2   0.686476 0.266013 0.571373 0.929084
C48   C     C_2   0.186383 0.234251 0.571371 0.928945
C49   C     C_2   0.814261 0.763635 0.428648 0.929077
C50   C     C_2   0.813525 0.233988 0.428627 0.928944
C51   C     C_2   0.185554 0.762934 0.571347 0.929078
C52   C     C_3   0.741669 0.716318 0.018139 -0.161513
C53   C     C_3   0.258330 0.283682 0.981861 -0.161581
C54   C     C_3   0.800789 0.250127 0.999756 0.026108
C55   C     C_3   0.199210 0.749872 0.000244 0.025947
C56   C     C_3   0.199210 0.250127 0.000244 0.026092
C57   C     C_R   0.141900 0.250032 0.000045 0.796594
C58   C     C_3   0.800790 0.749873 0.999756 0.025989
C59   C     C_3   0.300790 0.750128 0.999756 0.025977
C60   C     C_3   0.699210 0.249872 0.000244 0.026139
C61   C     C_3   0.699210 0.750127 0.000244 0.026020
C62   C     C_3   0.300790 0.249872 0.999756 0.026122
C63   C     C_3   0.801173 0.259097 0.067352 -0.172875
C64   C     C_3   0.198827 0.740903 0.932648 -0.172726
C65   C     C_3   0.198827 0.259097 0.932648 -0.172860
C66   C     C_3   0.801173 0.740903 0.067352 -0.172761
C67   C     C_3   0.301173 0.759098 0.067352 -0.172577
C68   C     C_R   0.141900 0.749968 0.000045 0.796791
C69   C     C_3   0.698827 0.240902 0.932648 -0.172726
C70   C     C_3   0.698827 0.759097 0.932648 -0.172612
C71   C     C_3   0.301173 0.240903 0.067352 -0.172711
C72   C     C_R   0.684263 0.744170 0.459169 -0.219847
C73   C     C_R   0.315468 0.256784 0.540823 -0.219818
C74   C     C_R   0.315814 0.744486 0.540833 -0.219874
C75   C     C_R   0.684569 0.256903 0.459178 -0.219810
C76   C     C_R   0.184531 0.243217 0.459177 -0.219883
C77   C     C_R   0.815738 0.755827 0.540831 -0.219913
C78   C     C_R   0.815431 0.243098 0.540822 -0.219875
C79   C     C_R   0.858100 0.250032 0.999955 0.796570
C80   C     C_R   0.184185 0.755511 0.459167 -0.219940
C81   C     C_R   0.713209 0.750527 0.422656 0.040812
C82   C     C_R   0.286823 0.249429 0.577344 0.040703
C83   C     C_R   0.286782 0.750511 0.577344 0.040809
C84   C     C_R   0.713172 0.249424 0.422656 0.040662
C85   C     C_R   0.213176 0.250572 0.422656 0.040716
C86   C     C_R   0.786793 0.749471 0.577344 0.040826
C87   C     C_R   0.786828 0.250576 0.577344 0.040675
C88   C     C_R   0.213216 0.749486 0.422656 0.040823
C89   C     C_R   0.779982 0.756540 0.463588 -0.023774
C90   C     C_R   0.358100 0.249968 0.999955 0.796705
C91   C     C_R   0.220328 0.242440 0.536420 -0.023946
C92   C     C_R   0.219929 0.756202 0.536410 -0.023676
C93   C     C_R   0.779628 0.242313 0.463579 -0.023945
C94   C     C_R   0.279672 0.257561 0.463580 -0.023993
C95   C     C_R   0.720020 0.743457 0.536412 -0.023819
C96   C     C_R   0.720372 0.257688 0.536421 -0.023993
C97   C     C_R   0.280069 0.743795 0.463590 -0.023721
C98   C     C_1   0.672697 0.750230 0.343204 0.027242
C99   C     C_1   0.327326 0.249743 0.656796 0.027066
C100  C     C_1   0.327297 0.750220 0.656795 0.027310
C101  C     C_R   0.641900 0.750032 0.000045 0.796836
C102  C     C_1   0.672670 0.249740 0.343204 0.027057
C103  C     C_1   0.172673 0.250257 0.343204 0.027052
C104  C     C_1   0.827304 0.749769 0.656796 0.027229
C105  C     C_1   0.827330 0.250260 0.656796 0.027044
C106  C     C_1   0.172702 0.749778 0.343204 0.027296
C107  C     C_1   0.861200 0.749957 0.723150 -0.071073
C108  C     C_1   0.138788 0.250053 0.276850 -0.071115
C109  C     C_1   0.138803 0.749961 0.276850 -0.071058
C110  C     C_1   0.861213 0.250054 0.723150 -0.071109
C111  C     C_1   0.361212 0.249947 0.723150 -0.071150
C112  C     C_R   0.641900 0.249968 0.000045 0.796680
C113  C     C_1   0.638800 0.750042 0.276850 -0.071106
C114  C     C_1   0.638787 0.249946 0.276850 -0.071141
C115  C     C_1   0.361196 0.750038 0.723150 -0.071094
C116  C     C_R   0.957211 0.019366 0.008742 0.224009
C117  C     C_R   0.042789 0.980634 0.991259 0.224027
C118  C     C_R   0.042789 0.019366 0.991259 0.224007
C119  C     C_R   0.957211 0.980634 0.008742 0.224023
C120  C     C_R   0.456717 0.519366 0.007902 0.224081
C121  C     C_R   0.543283 0.480633 0.992097 0.224063
C122  C     C_R   0.543283 0.519366 0.992097 0.224078
C123  C     C_R   0.358100 0.750032 0.999955 0.796903
C124  C     C_R   0.456717 0.480633 0.007902 0.224061
C125  C     C_R   0.000000 0.038666 0.000000 -0.132785
C126  C     C_R   0.000000 0.961334 0.000000 -0.132790
C127  C     C_R   0.500000 0.538665 1.000000 -0.132701
C128  C     C_R   0.500000 0.461335 1.000000 -0.132696
C129  C     C_R   0.098998 0.749967 0.197948 0.819044
C130  C     C_R   0.901002 0.250033 0.802052 0.818697
C131  C     C_R   0.901002 0.749967 0.802052 0.818966
C132  C     C_R   0.098998 0.250033 0.197948 0.818731
C133  C     C_R   0.598998 0.249967 0.197948 0.818758
C134  C     C_3   0.758330 0.216318 0.981861 -0.161412
C135  C     C_R   0.401002 0.750033 0.802052 0.819105
C136  C     C_R   0.401002 0.249967 0.802052 0.818792
C137  C     C_R   0.598998 0.750033 0.197948 0.819028
C138  C     C_1   0.000000 0.078406 0.000000 0.133772
C139  C     C_1   0.000000 0.921594 0.000000 0.133813
C140  C     C_1   0.500000 0.578407 1.000000 0.133877
C141  C     C_1   0.500000 0.421593 0.000000 0.133837
C142  C     C_1   0.000000 0.888414 0.000000 -0.073277
C143  C     C_1   1.000000 0.111586 0.000000 -0.073323
C144  C     C_1   0.500000 0.388414 1.000000 -0.073319
H1    H     H_    0.766212 0.188717 0.966994 0.164152
H2    H     H_    0.736551 0.295042 0.909857 0.175244
H3    H     H_    0.736551 0.704958 0.909857 0.175244
H4    H     H_    0.263448 0.295042 0.090143 0.175246
H5    H     H_    0.763448 0.204957 0.090143 0.175138
H6    H     H_    0.236551 0.795043 0.909857 0.175137
H7    H     H_    0.236552 0.204957 0.909857 0.175139
H8    H     H_    0.763448 0.795042 0.090143 0.175137
H9    H     H_    0.844163 0.266555 0.122542 0.155370
H10   H     H_    0.155837 0.733445 0.877458 0.155465
H11   H     H_    0.155837 0.266555 0.877458 0.155377
H12   H     H_    0.233787 0.811283 0.033006 0.164241
H13   H     H_    0.844163 0.733445 0.122542 0.155445
H14   H     H_    0.344163 0.766555 0.122543 0.155554
H15   H     H_    0.655837 0.233445 0.877457 0.155459
H16   H     H_    0.655837 0.766555 0.877457 0.155533
H17   H     H_    0.344163 0.233445 0.122543 0.155466
H18   H     H_    0.633132 0.739495 0.426568 0.199677
H19   H     H_    0.366384 0.262195 0.573417 0.199805
H20   H     H_    0.367007 0.740054 0.573435 0.199650
H21   H     H_    0.633684 0.262405 0.426586 0.199829
H22   H     H_    0.133615 0.237806 0.426583 0.199780
H23   H     H_    0.233788 0.188717 0.033006 0.164160
H24   H     H_    0.866869 0.760502 0.573432 0.199652
H25   H     H_    0.866317 0.237596 0.573414 0.199804
H26   H     H_    0.132991 0.759943 0.426565 0.199625
H27   H     H_    0.601077 0.730115 0.557333 0.362460
H28   H     H_    0.397974 0.273614 0.442627 0.362588
H29   H     H_    0.399189 0.731340 0.442680 0.362426
H30   H     H_    0.602165 0.274085 0.557377 0.362598
H31   H     H_    0.102026 0.226385 0.557372 0.362524
H32   H     H_    0.898925 0.769885 0.442669 0.362399
H33   H     H_    0.897835 0.225915 0.442624 0.362534
H34   H     H_    0.766212 0.811283 0.966994 0.164221
H35   H     H_    0.100809 0.768657 0.557318 0.362366
H36   H     H_    0.266213 0.688717 0.966994 0.164177
H37   H     H_    0.733787 0.311282 0.033005 0.164089
H38   H     H_    0.733787 0.688717 0.033005 0.164158
H39   H     H_    0.266212 0.311283 0.966994 0.164097
H40   H     H_    0.263449 0.704958 0.090143 0.175244
O1    O     O_3   1.000000 0.750010 0.000000 -0.501348
O2    O     O_R   0.638650 0.771350 0.042690 -0.636814
O3    O     O_R   0.638650 0.228650 0.042690 -0.636863
O4    O     O_R   0.361350 0.771350 0.957310 -0.636799
O5    O     O_R   0.050700 0.771350 0.162940 -0.637878
O6    O     O_R   0.949300 0.228650 0.837060 -0.638001
O7    O     O_R   0.949300 0.771350 0.837060 -0.637910
O8    O     O_R   0.050700 0.228650 0.162940 -0.637990
O9    O     O_R   0.550700 0.271350 0.162940 -0.637972
O10   O     O_R   0.449300 0.728650 0.837060 -0.637849
O11   O     O_R   0.449300 0.271350 0.837060 -0.637961
O12   O     O_3   1.000000 0.249990 0.000000 -0.501392
O13   O     O_R   0.550700 0.728650 0.162940 -0.637880
O14   O     O_R   0.990570 0.831470 0.042720 -0.623336
O15   O     O_R   0.009430 0.168530 0.957280 -0.623376
O16   O     O_R   0.009430 0.831470 0.957280 -0.623344
O17   O     O_R   0.990570 0.168530 0.042720 -0.623374
O18   O     O_R   0.490570 0.331470 0.042720 -0.623434
O19   O     O_R   0.509430 0.668530 0.957280 -0.623394
O20   O     O_R   0.509430 0.331470 0.957280 -0.623432
O21   O     O_R   0.490570 0.668530 0.042720 -0.623401
O22   O     O_R   0.947900 0.668550 0.957290 -0.623644
O23   O     O_3   0.500000 0.250010 0.000000 -0.501333
O24   O     O_R   0.052100 0.331450 0.042710 -0.623549
O25   O     O_R   0.052100 0.668550 0.042710 -0.623695
O26   O     O_R   0.947900 0.331450 0.957290 -0.623529
O27   O     O_R   0.447900 0.168550 0.957290 -0.623751
O28   O     O_R   0.552100 0.831450 0.042710 -0.623847
O29   O     O_R   0.552100 0.168550 0.042710 -0.623730
O30   O     O_R   0.447900 0.831450 0.957290 -0.623898
O31   O     O_R   0.112210 0.728640 0.162920 -0.613730
O32   O     O_R   0.887790 0.271360 0.837080 -0.613251
O33   O     O_R   0.887790 0.728640 0.837080 -0.613618
O34   O     O_3   0.500000 0.749990 0.000000 -0.501289
O35   O     O_R   0.112210 0.271360 0.162920 -0.613291
O36   O     O_R   0.612210 0.228640 0.162920 -0.613365
O37   O     O_R   0.387790 0.771360 0.837080 -0.613846
O38   O     O_R   0.387790 0.228640 0.837080 -0.613406
O39   O     O_R   0.612210 0.771360 0.162920 -0.613734
O40   O     O_R   0.904050 0.771360 0.042740 -0.634803
O41   O     O_R   0.095950 0.228640 0.957260 -0.634758
O42   O     O_R   0.095950 0.771360 0.957260 -0.634794
O43   O     O_R   0.904050 0.228640 0.042740 -0.634762
O44   O     O_R   0.404050 0.271360 0.042740 -0.634749
O45   O     O_R   0.861350 0.728650 0.957310 -0.636777
O46   O     O_R   0.595950 0.728640 0.957260 -0.634793
O47   O     O_R   0.595950 0.271360 0.957260 -0.634753
O48   O     O_R   0.404050 0.728640 0.042740 -0.634784
O49   O     O_2   0.715162 0.731283 0.637682 -0.610762
O50   O     O_R   0.618929 0.735199 0.527684 -0.796329
O51   O     O_2   0.283968 0.270932 0.362306 -0.610301
O52   O     O_R   0.380360 0.267835 0.472282 -0.796137
O53   O     O_2   0.285096 0.732028 0.362318 -0.610936
O54   O     O_R   0.381268 0.736196 0.472329 -0.796366
O55   O     O_2   0.716151 0.271203 0.637697 -0.610250
O56   O     O_R   0.138650 0.271350 0.042690 -0.636820
O57   O     O_R   0.619745 0.268217 0.527720 -0.796131
O58   O     O_2   0.216030 0.229072 0.637695 -0.610454
O59   O     O_R   0.119639 0.232163 0.527717 -0.796223
O60   O     O_2   0.784840 0.768708 0.362316 -0.610912
O61   O     O_R   0.881073 0.764802 0.472318 -0.796415
O62   O     O_2   0.783849 0.228800 0.362303 -0.610402
O63   O     O_R   0.880255 0.231782 0.472280 -0.796217
O64   O     O_2   0.214901 0.767964 0.637683 -0.611084
O65   O     O_R   0.118730 0.763803 0.527669 -0.796452
O66   O     O_R   0.138650 0.728650 0.042690 -0.636762
O67   O     O_R   0.861350 0.271350 0.957310 -0.636826
O68   O     O_R   0.361350 0.228650 0.957310 -0.636857
Zn1   Zn    Zn3+2 0.074440 0.719490 0.061020 1.015327
Zn2   Zn    Zn3+2 0.013440 0.219480 0.938960 1.003794
Zn3   Zn    Zn3+2 0.013440 0.780520 0.938960 1.004010
Zn4   Zn    Zn3+2 0.986560 0.219480 0.061040 1.003794
Zn5   Zn    Zn3+2 0.486560 0.280520 0.061040 1.003839
Zn6   Zn    Zn3+2 0.513440 0.719480 0.938960 1.004060
Zn7   Zn    Zn3+2 0.513440 0.280520 0.938960 1.003839
Zn8   Zn    Zn3+2 0.486560 0.719480 0.061040 1.004056
Zn9   Zn    Zn3+2 0.925560 0.280510 0.938980 1.015556
Zn10  Zn    Zn3+2 0.925560 0.719490 0.938980 1.015373
Zn11  Zn    Zn3+2 0.074440 0.280510 0.061020 1.015540
Zn12  Zn    Zn3+2 0.574440 0.219490 0.061020 1.015458
Zn13  Zn    Zn3+2 0.425560 0.780510 0.938980 1.015227
Zn14  Zn    Zn3+2 0.425560 0.219490 0.938980 1.015442
Zn15  Zn    Zn3+2 0.574440 0.780510 0.061020 1.015274
Zn16  Zn    Zn3+2 0.986560 0.780520 0.061040 1.004013

loop_
_geom_bond_atom_site_label_1
_geom_bond_atom_site_label_2
_ccdc_geom_bond_type
C115  C135  S    
C54   C134  S    
C78   H25   S    
C64   H10   S    
C120  C124  A    
C137  O13   A    
Br2   C118  S    
C101  O2    A    
C122  C127  A    
C42   C66   S    
C51   O65   S    
C125  C138  S    
C52   C61   S    
C17   C20   A    
O41   Zn2   S    
C14   C22   A    
C18   C19   A    
C24   C70   S    
C21   C26   S    
H28   O52   S    
C37   C52   S    
C35   C64   S    
C6    O20   A    
C119  C126  A    
C43   C95   S    
O45   Zn10  S    
C75   C84   A    
C72   C81   A    
C81   C89   A    
C80   C92   A    
C84   C93   A    
C4    C142  S    
C139  C142  T    
C5    C143  S    
C86   C95   A    
C34   C67   S    
C7    O19   A    
C133  O36   A    
C24   C42   S    
C137  O39   A    
C12   C16   A    
C83   C100  S    
Br7   C121  S    
C37   H3    S    
C85   C94   A    
C36   C46   S    
C15   C21   A    
C87   C96   A    
C112  O3    A    
C3    C7    S    
O38   Zn14  S    
O1    Zn10  S    
C71   H17   S    
Br10  C14   S    
O23   Zn5   S    
O3    Zn12  S    
O34   Zn13  S    
C43   O50   S    
H33   O63   S    
C136  O11   A    
C141  C144  T    
C80   C88   A    
O47   Zn7   S    
C50   O63   S    
C87   C105  S    
O27   Zn14  S    
C57   O41   A    
C2    C55   S    
C134  H1    S    
C45   O53   D    
C54   C63   S    
C41   C62   S    
C56   C57   S    
C78   C93   A    
C62   C90   S    
C8    C30   S    
O42   Zn3   S    
O35   Zn11  S    
C22   C27   S    
C76   H22   S    
C118  C125  A    
Br1   C16   S    
C25   C29   S    
C60   C69   S    
C62   C71   S    
C129  O5    A    
Br4   C116  S    
C101  O46   A    
C83   C92   A    
C117  C126  A    
Br13  C19   S    
C120  C127  A    
C123  O4    A    
C88   C106  S    
O4    Zn13  S    
O43   Zn4   S    
C42   C61   S    
C69   C134  S    
C72   C95   A    
O7    Zn3   S    
O8    Zn4   S    
O12   Zn2   S    
C42   H8    S    
O23   Zn14  S    
C65   H11   S    
C50   C93   S    
C40   C59   S    
C5    O17   A    
O20   Zn7   S    
C49   C89   S    
C74   H20   S    
C44   C94   S    
C73   C94   A    
C4    O14   A    
C75   C96   A    
O12   Zn11  S    
C57   O56   A    
C79   O67   A    
C1    O45   A    
C68   O66   A    
O1    Zn1   S    
O28   Zn15  S    
C121  C128  A    
O18   Zn5   S    
C8    O25   A    
C74   C83   A    
C116  C125  A    
O36   Zn12  S    
C112  O47   A    
C49   O61   S    
C46   H37   S    
C90   O44   A    
O66   Zn1   S    
Br14  C18   S    
C104  C107  T    
C72   H18   S    
C23   C28   S    
C90   O68   A    
C40   C64   S    
C73   C82   A    
C132  O35   A    
C52   C66   S    
C106  C109  T    
C138  C143  T    
C59   C123  S    
C113  C137  S    
C82   C99   S    
O44   Zn5   S    
C6    C144  S    
C12   C21   A    
O10   Zn6   S    
C13   C71   S    
C88   C97   A    
O40   Zn16  S    
C67   H14   S    
C128  C141  S    
C11   C33   S    
C36   H2    S    
C135  O10   A    
Br8   C120  S    
O56   Zn11  S    
C37   C58   S    
O33   Zn10  S    
C108  C132  S    
C39   C134  S    
C4    O16   A    
C133  O9    A    
C47   O57   S    
C14   C15   A    
C51   C92   S    
O12   Zn4   S    
C9    O24   A    
O1    Zn3   S    
H32   O61   S    
C7    O21   A    
C43   O49   D    
C44   O51   D    
C5    O15   A    
H31   O59   S    
C9    C31   S    
O16   Zn3   S    
C56   C65   S    
C48   O59   S    
C10   C32   S    
O12   Zn9   S    
C129  O31   A    
C3    C140  T    
C46   C60   S    
C20   C25   A    
C18   C25   A    
C58   C66   S    
C123  O48   A    
O1    Zn16  S    
O2    Zn15  S    
C10   O29   A    
C80   H26   S    
C130  O32   A    
C82   C91   A    
O68   Zn14  S    
O26   Zn9   S    
O32   Zn9   S    
C19   C23   A    
C34   C55   S    
C102  C114  T    
C39   C63   S    
C11   O30   A    
C66   H13   S    
O46   Zn6   S    
C34   C35   S    
O25   Zn1   S    
C76   C85   A    
C13   C41   S    
C78   C87   A    
Br5   C124  S    
C75   H21   S    
O5    Zn16  S    
C117  C118  A    
C60   C112  S    
C98   C113  T    
C84   C102  S    
C39   H5    S    
C86   C104  S    
C29   C32   T    
O14   Zn16  S    
C124  C128  A    
C77   C86   A    
C41   H7    S    
C8    O22   A    
O17   Zn4   S    
C63   H9    S    
C59   C67   S    
C38   C53   S    
Br11  C12   S    
O15   Zn2   S    
H35   O65   S    
C53   C65   S    
C132  O8    A    
C1    O40   A    
C136  O38   A    
C40   H6    S    
C109  C129  S    
C38   H4    S    
C50   O62   D    
C28   C33   T    
C45   O54   S    
C130  O6    A    
C51   O64   D    
C110  C130  S    
C99   C111  T    
C24   H34   S    
C103  C108  T    
O30   Zn13  S    
C17   C23   A    
O11   Zn7   S    
C36   C69   S    
C35   C59   S    
O48   Zn8   S    
C61   C101  S    
C35   H36   S    
C38   C71   S    
C77   H24   S    
C11   O28   A    
C9    O26   A    
O34   Zn8   S    
O21   Zn8   S    
C52   H38   S    
C74   C97   A    
C47   C96   S    
C77   C89   A    
C47   O55   D    
O13   Zn8   S    
H29   O54   S    
C16   C22   A    
C126  C139  S    
O22   Zn10  S    
O37   Zn13  S    
C10   O27   A    
C2    C40   S    
C13   C56   S    
C6    O18   A    
H30   O57   S    
C53   C62   S    
C55   C64   S    
C48   O58   D    
C2    C67   S    
C135  O37   A    
C85   C103  S    
C46   C63   S    
C49   O60   D    
C34   H40   S    
O23   Zn12  S    
O24   Zn11  S    
O39   Zn15  S    
O67   Zn9   S    
O19   Zn6   S    
Br3   C117  S    
Br6   C122  S    
C111  C136  S    
C76   C91   A    
C114  C133  S    
O23   Zn7   S    
C131  O7    A    
C37   C70   S    
C39   C60   S    
C131  O33   A    
C107  C131  S    
C61   C70   S    
O9    Zn5   S    
C45   C97   S    
C1    C58   S    
C41   C65   S    
Br12  C20   S    
C48   C91   S    
C53   H39   S    
C55   C68   S    
C13   H23   S    
C2    H12   S    
C121  C122  A    
O29   Zn12  S    
O34   Zn6   S    
H27   O50   S    
O6    Zn2   S    
C54   C79   S    
C81   C98   S    
C105  C110  T    
C127  C140  S    
C100  C115  T    
C116  C119  A    
O31   Zn1   S    
C69   H15   S    
C24   C58   S    
C70   H16   S    
C26   C31   T    
C73   H19   S    
C27   C30   T    
C36   C54   S    
Br9   C15   S    
C38   C56   S    
O34   Zn15  S    
C44   O52   S    
C68   O42   A    
Br16  C119  S    
Br15  C17   S    
C79   O43   A    
