data_mof_unit_40519.cif
_audit_creation_date              2012-12-10T20:40:04-0500
_audit_creation_method            fapswitch 2.2
_symmetry_space_group_name_H-M    P1
_symmetry_Int_Tables_number       1
_space_group_crystal_system       triclinic
_cell_length_a                    23.41917
_cell_length_b                    10.670432
_cell_length_c                    9.861826
_cell_angle_alpha                 89.290645
_cell_angle_beta                  89.984125
_cell_angle_gamma                 90.579901
_cell_volume                      2464.08266058

loop_
_atom_site_label
_atom_site_type_symbol
_atom_type_description
_atom_site_fract_x
_atom_site_fract_y
_atom_site_fract_z
_atom_type_partial_charge
C1    C     C_R   0.500465 0.260224 0.500475 0.909462
C2    C     C_R   0.971711 0.305030 0.419959 -0.158110
C3    C     C_R   0.031125 0.308153 0.418969 -0.157716
C4    C     C_R   0.060742 0.417295 0.456653 -0.014339
C5    C     C_R   0.030284 0.524244 0.495477 -0.021512
C6    C     C_R   0.059674 0.634169 0.533717 -0.016994
C7    C     C_R   0.028895 0.740252 0.572007 -0.158046
C8    C     C_R   0.969437 0.737198 0.572728 -0.156915
C9    C     C_R   0.120310 0.422368 0.457322 0.504706
C10   C     C_R   0.119339 0.634641 0.532725 0.507233
C11   C     C_R   0.238845 0.535595 0.374621 -0.110998
C12   C     C_R   0.389316 0.503312 0.499947 0.880490
C13   C     C_R   0.297954 0.528483 0.375811 -0.187936
C14   C     C_R   0.327222 0.514784 0.499259 -0.063986
C15   C     C_R   0.296727 0.515455 0.621766 -0.201784
C16   C     C_R   0.237590 0.522833 0.620421 -0.113413
C17   C     C_R   0.208725 0.531141 0.496797 0.317748
C18   C     C_R   0.762348 0.509470 0.622301 -0.100256
C19   C     C_R   0.703083 0.505343 0.622857 -0.221483
C20   C     C_R   0.672994 0.503074 0.499743 -0.034880
C21   C     C_R   0.702905 0.504807 0.376300 -0.215424
C22   C     C_R   0.762144 0.508947 0.376146 -0.100040
C23   C     C_R   0.499752 0.739653 0.498844 0.935114
C24   C     C_R   0.791783 0.511342 0.499026 0.319429
C25   C     C_R   0.541702 0.062807 0.575089 0.113366
C26   C     C_R   0.502169 0.128325 0.497562 -0.142477
C27   C     C_R   0.469606 0.066400 0.399545 -0.329952
C28   C     C_R   0.469934 0.936454 0.394638 0.510188
C29   C     C_R   0.501960 0.871502 0.493074 -0.205253
C30   C     C_R   0.541235 0.934946 0.573346 0.049375
C31   C     C_3   0.555156 0.923296 0.720538 -0.473932
C32   C     C_3   0.555789 0.065620 0.722774 -0.426242
C33   C     C_R   0.451829 0.466601 0.071891 0.055876
C34   C     C_R   0.610710 0.500469 0.499938 0.858447
C35   C     C_R   0.545458 0.545259 0.071295 -0.126768
C36   C     C_R   0.545423 0.545451 0.927336 -0.121238
C37   C     C_R   0.452067 0.465562 0.929374 0.067322
C38   C     C_3   0.422176 0.341416 0.927341 0.893185
C39   C     C_3   0.420380 0.344482 0.082090 0.202370
C40   C     C_R   0.880166 0.622507 0.535333 0.503560
C41   C     C_R   0.881355 0.410003 0.460716 0.503965
C42   C     C_R   0.940960 0.411032 0.458543 -0.015592
C43   C     C_R   0.970296 0.521117 0.496363 -0.021162
C44   C     C_R   0.939790 0.627980 0.535264 -0.015147
H1    H     H_    0.950023 0.219450 0.390537 0.194699
H2    H     H_    0.680954 0.504149 0.719323 0.156912
H3    H     H_    0.680657 0.503288 0.280057 0.157337
H4    H     H_    0.785127 0.510504 0.280820 0.140772
H5    H     H_    0.441637 0.117959 0.332582 0.154866
H6    H     H_    0.519807 0.880620 0.781319 0.217234
H7    H     H_    0.597908 0.881739 0.737905 0.207304
H8    H     H_    0.521020 0.103665 0.785275 0.278445
H9    H     H_    0.598859 0.106375 0.741970 0.203324
H10   H     H_    0.582558 0.579828 0.124914 0.145762
H11   H     H_    0.053705 0.224879 0.388861 0.194689
H12   H     H_    0.582466 0.580315 0.872720 0.142979
H13   H     H_    0.446367 0.270508 0.133269 0.078482
H14   H     H_    0.050600 0.825753 0.601612 0.193951
H15   H     H_    0.946843 0.820455 0.602826 0.194767
H16   H     H_    0.216322 0.543315 0.279037 0.148804
H17   H     H_    0.320570 0.533618 0.280291 0.221768
H18   H     H_    0.318360 0.510272 0.718327 0.218001
H19   H     H_    0.214080 0.520319 0.715010 0.148461
H20   H     H_    0.785494 0.510911 0.717332 0.141095
N1    N     N_R   0.852523 0.514709 0.498516 -0.359838
N2    N     N_R   0.148028 0.529750 0.495083 -0.358633
N3    N     N_R   0.499610 0.499140 0.142800 -0.115741
N4    N     N_R   0.499610 0.499180 0.857150 -0.100662
O1    O     O_R   0.500010 0.316790 0.614690 -0.559812
O2    O     O_2   0.852275 0.305266 0.426247 -0.550372
O3    O     O_2   0.150483 0.320777 0.421669 -0.558272
O4    O     O_2   0.148580 0.738732 0.568534 -0.549239
O5    O     O_R   0.500000 0.316760 0.385350 -0.634552
O6    O     O_R   0.416160 0.499980 0.614700 -0.599195
O7    O     O_R   0.416150 0.499940 0.385360 -0.594577
O8    O     O_R   0.500000 0.683240 0.614650 -0.631962
O9    O     O_R   0.499990 0.683210 0.385310 -0.587135
O10   O     O_R   0.583850 0.500060 0.614640 -0.631571
O11   O     O_R   0.583840 0.500020 0.385300 -0.632267
O12   O     O_2   0.849916 0.723969 0.570933 -0.552070
Zn1   Zn    Zn3+2 0.500000 0.500020 0.653130 0.993853
Zn2   Zn    Zn3+2 0.500000 0.499980 0.346870 0.975862
O13   O     O_3   0.432655 0.872952 0.309934 -0.595910
C45   C     C_3   0.449644 0.892468 0.173919 -0.252919
H21   H     H_    0.424395 0.828390 0.108932 0.191251
H22   H     H_    0.495559 0.870104 0.158611 0.158480
H23   H     H_    0.440758 0.989874 0.139309 0.148783
O14   O     O_3   0.368146 0.350834 0.864070 -0.624091
C46   C     C_3   0.346408 0.230900 0.833000 -0.173635
H24   H     H_    0.348309 0.165475 0.921534 0.154457
H25   H     H_    0.369642 0.191467 0.745183 0.188765
H26   H     H_    0.300932 0.240102 0.803437 0.171988
F1    F     F_    0.457100 0.248761 0.877309 -0.747617
O15   O     O_3   0.364417 0.363049 0.131529 -0.588051
C47   C     C_3   0.347556 0.261893 0.216018 -0.266735
H27   H     H_    0.369916 0.267239 0.315068 0.164983
H28   H     H_    0.354971 0.169714 0.167758 0.144104
H29   H     H_    0.301105 0.269086 0.236052 0.212440

loop_
_geom_bond_atom_site_label_1
_geom_bond_atom_site_label_2
_ccdc_geom_bond_type
C22   H4    S    
C12   O6    A    
C41   C42   A    
O5    Zn2   S    
C47   H27   S    
C45   H23   S    
C23   O8    A    
C19   H2    S    
C7    C8    A    
C26   C27   A    
C29   C30   A    
C18   C24   A    
N4    Zn1   S    
C23   C29   S    
C28   C29   A    
C45   H22   S    
C8    H15   S    
C5    C6    A    
C15   C16   A    
C39   H13   S    
C37   N4    A    
C18   C19   A    
C9    N2    A    
C32   H8    S    
C3    H11   S    
C31   C32   S    
C16   C17   A    
C40   O12   S    
C16   H19   S    
C46   H25   S    
C7    H14   S    
C20   C34   S    
C25   C32   S    
C5    C43   A    
C21   C22   A    
C35   H10   S    
C10   N2    A    
C2    H1    S    
C47   H29   S    
C9    O3    S    
C45   H21   S    
C41   N1    A    
C25   C26   A    
C1    O1    A    
C38   O14   S    
C35   C36   A    
C43   C44   A    
C39   O15   S    
C37   C38   S    
C36   H12   S    
C34   O11   A    
O13   C45   S    
C35   N3    A    
C30   C31   S    
C20   C21   A    
C47   H28   S    
C17   N2    S    
C33   C39   S    
C23   O9    A    
C46   H26   S    
C24   N1    S    
C12   C14   S    
C40   N1    A    
C1    C26   S    
C22   C24   A    
C42   C43   A    
C31   H6    S    
C11   H16   S    
C32   H9    S    
C33   N3    A    
C25   C30   A    
C11   C17   A    
C8    C44   A    
C31   H7    S    
C4    C5    A    
O8    Zn1   S    
C6    C10   A    
O11   Zn2   S    
C36   N4    A    
O7    Zn2   S    
C6    C7    A    
C1    O5    A    
C19   C20   A    
C2    C3    A    
C4    C9    A    
C34   O10   A    
C11   C13   A    
O10   Zn1   S    
C18   H20   S    
C38   C39   S    
O9    Zn2   S    
C2    C42   A    
C38   F1    S    
C15   H18   S    
O15   C47   S    
C33   C37   A    
O1    Zn1   S    
C27   H5    S    
C40   C44   A    
C13   H17   S    
O14   C46   S    
N3    Zn2   S    
C12   O7    A    
C27   C28   A    
C14   C15   A    
O6    Zn1   S    
C21   H3    S    
C46   H24   S    
C13   C14   A    
C3    C4    A    
C41   O2    S    
C28   O13   S    
C10   O4    S    
