data_mof_unit_55768.cif
_audit_creation_date              2012-12-11T14:21:05-0500
_audit_creation_method            fapswitch 2.2
_symmetry_space_group_name_H-M    P1
_symmetry_Int_Tables_number       1
_space_group_crystal_system       triclinic
_cell_length_a                    11.492253
_cell_length_b                    11.531332
_cell_length_c                    19.40791
_cell_angle_alpha                 90.660941
_cell_angle_beta                  90.728684
_cell_angle_gamma                 60.688385
_cell_volume                      2242.44507792

loop_
_atom_site_label
_atom_site_type_symbol
_atom_type_description
_atom_site_fract_x
_atom_site_fract_y
_atom_site_fract_z
_atom_type_partial_charge
C1    C     C_R   0.641460 0.117255 0.598804 0.542353
C2    C     C_1   0.653336 0.680946 0.663435 0.001109
C3    C     C_1   0.146489 0.189336 0.863616 0.001393
C4    C     C_1   0.226998 0.145611 0.735998 -0.030234
C5    C     C_1   0.187556 0.165109 0.805526 -0.028525
C6    C     C_1   0.258117 0.133430 0.676257 0.002906
C7    C     C_1   0.676642 0.191375 0.861152 0.004002
C8    C     C_1   0.659418 0.167141 0.728880 -0.032637
C9    C     C_1   0.664503 0.181051 0.800384 -0.031987
C10   C     C_1   0.654990 0.149254 0.668234 0.003811
C11   C     C_R   0.690261 0.599952 0.205384 -0.012312
C12   C     C_R   0.614446 0.742427 0.597564 0.551588
C13   C     C_R   0.569813 0.630409 0.238771 0.031154
C14   C     C_R   0.521185 0.732869 0.286652 0.039429
C15   C     C_R   0.737848 0.717657 0.295086 -0.137740
C16   C     C_R   0.772525 0.647023 0.233502 -0.142643
C17   C     C_R   0.484911 0.581098 0.217113 -0.076151
C18   C     C_R   0.347644 0.661876 0.221457 -0.114521
C19   C     C_R   0.297396 0.782238 0.256295 -0.131345
C20   C     C_R   0.383183 0.812695 0.293508 -0.086873
C21   C     C_R   0.612019 0.757241 0.323257 -0.008516
C22   C     C_R   0.063932 0.245031 0.209300 -0.017258
C23   C     C_R   0.297389 0.120901 0.605625 0.557194
C24   C     C_R   0.078274 0.338591 0.252690 0.025727
C25   C     C_R   0.081253 0.322137 0.324795 0.045901
C26   C     C_R   0.102727 0.106316 0.310965 -0.176597
C27   C     C_R   0.065618 0.134678 0.241412 -0.151866
C28   C     C_R   0.100321 0.441868 0.229461 -0.132755
C29   C     C_R   0.112277 0.527839 0.276320 -0.157980
C30   C     C_R   0.081507 0.528654 0.345127 -0.108533
C31   C     C_R   0.060694 0.428031 0.369182 -0.064190
C32   C     C_R   0.126993 0.193734 0.350580 -0.011454
C33   C     C_R   0.662144 0.163895 0.186335 0.015546
C34   C     C_R   0.644396 0.112693 0.401612 0.533626
C35   C     C_R   0.758809 0.049684 0.220665 0.010389
C36   C     C_R   0.772170 0.055608 0.292209 0.017633
C37   C     C_R   0.546270 0.242506 0.294209 -0.137628
C38   C     C_R   0.546409 0.250758 0.221925 0.095204
C39   C     C_R   0.847110 0.932752 0.184998 -0.075051
C40   C     C_R   0.959993 0.835472 0.217728 -0.136743
C41   C     C_R   0.984608 0.852703 0.286645 -0.158193
C42   C     C_R   0.894164 0.963920 0.322903 -0.092109
C43   C     C_R   0.660418 0.146834 0.330429 -0.031422
C44   C     C_R   0.084302 0.230115 0.929532 0.550871
C45   C     C_R   0.583073 0.800369 0.394509 0.553233
C46   C     C_R   0.708782 0.544862 0.922669 0.565866
C47   C     C_R   0.707364 0.206432 0.930614 0.534468
C48   C     C_R   0.029715 0.267025 0.134191 0.533126
C49   C     C_R   0.708651 0.552949 0.134148 0.534035
C50   C     C_R   0.704169 0.205805 0.123754 0.524550
C51   C     C_R   0.228679 0.147363 0.407205 0.533504
C52   C     C_1   0.698873 0.578002 0.851441 0.000089
C53   C     C_1   0.674784 0.641290 0.721654 -0.028990
C54   C     C_1   0.690091 0.605078 0.791362 -0.030807
Cr1   Cr    Cr6+3 0.404720 0.198220 0.499960 1.015010
Cr2   Cr    Cr6+3 0.698290 0.897110 0.500380 1.014197
Cr3   Cr    Cr6+3 0.396970 0.904720 0.499610 1.018321
Cr4   Cr    Cr6+3 0.926180 0.151990 0.028120 1.015734
Cr5   Cr    Cr6+3 0.921330 0.451820 0.027470 1.005607
Cr6   Cr    Cr6+3 0.626260 0.446870 0.028710 1.017918
H1    H     H_    0.807344 0.743197 0.319732 0.163606
H2    H     H_    0.148229 0.591907 0.259064 0.097672
H3    H     H_    0.082948 0.601050 0.380585 0.110793
H4    H     H_    0.045909 0.423584 0.423928 0.131204
H5    H     H_    0.455120 0.306942 0.321548 0.151185
H6    H     H_    0.830617 0.918047 0.131284 0.138078
H7    H     H_    0.029893 0.750791 0.187936 0.100322
H8    H     H_    0.074465 0.782006 0.312854 0.106812
H9    H     H_    0.920789 0.976796 0.374965 0.140543
H10   H     H_    0.523389 0.490920 0.187811 0.183765
H11   H     H_    0.860696 0.632628 0.207205 0.150945
H12   H     H_    0.281747 0.636123 0.193357 0.102108
H13   H     H_    0.193704 0.852488 0.252990 0.116115
H14   H     H_    0.344266 0.903468 0.322437 0.137383
H15   H     H_    0.117277 0.014944 0.333418 0.116222
H16   H     H_    0.117679 0.455788 0.176996 0.149118
O1    O     O_R   0.267740 0.231960 0.575440 -0.505347
O2    O     O_R   0.685970 0.784660 0.430010 -0.499991
O3    O     O_R   0.502530 0.767000 0.423990 -0.504981
O4    O     O_R   0.288330 0.026350 0.429250 -0.524937
O5    O     O_3   0.499990 0.000020 0.499980 -0.287669
O6    O     O_R   0.821500 0.119340 0.952830 -0.501576
O7    O     O_R   0.037130 0.162530 0.957360 -0.483268
O8    O     O_R   0.056440 0.344740 0.951340 -0.510889
O9    O     O_R   0.797900 0.560360 0.957470 -0.480390
O10   O     O_R   0.596130 0.579390 0.952730 -0.487676
O11   O     O_R   0.639060 0.321160 0.958670 -0.511866
O12   O     O_R   0.527280 0.186640 0.570530 -0.505595
O13   O     O_R   0.821240 0.124200 0.104370 -0.535737
O14   O     O_R   0.036890 0.167040 0.097840 -0.485714
O15   O     O_R   0.056180 0.349610 0.102880 -0.546657
O16   O     O_R   0.797660 0.564870 0.097950 -0.503990
O17   O     O_R   0.595880 0.584250 0.104270 -0.498459
O18   O     O_R   0.638830 0.325670 0.099150 -0.505579
O19   O     O_3   0.824590 0.350230 0.028100 -0.304816
O20   O     O_R   0.728090 0.003450 0.576380 -0.502055
O21   O     O_R   0.682970 0.789190 0.570490 -0.489424
O22   O     O_R   0.499290 0.771880 0.575530 -0.505452
O23   O     O_R   0.285330 0.030870 0.569730 -0.491386
O24   O     O_R   0.270980 0.227080 0.423890 -0.512282
O25   O     O_R   0.530280 0.182120 0.430050 -0.496952
O26   O     O_R   0.731330 0.998570 0.424830 -0.530181
N1    N     N_2   0.428856 0.340576 0.185296 -0.534695
H17   H     H_    0.353529 0.407730 0.216147 0.243379
C55   C     C_3   0.382724 0.281461 0.132965 -0.268075
H18   H     H_    0.299891 0.361276 0.103074 0.151993
H19   H     H_    0.346973 0.218134 0.157468 0.160003
H20   H     H_    0.462783 0.220602 0.095872 0.156077
H21   H     H_    0.045570 0.066187 0.211847 0.157882

loop_
_geom_bond_atom_site_label_1
_geom_bond_atom_site_label_2
_ccdc_geom_bond_type
C25   C31   A    
C22   C48   S    
C26   C32   A    
C41   C42   A    
Cr3   O3    S    
C23   O23   A    
C35   C36   A    
C44   O7    A    
C2    C12   S    
Cr2   O5    S    
C53   C54   S    
C55   H19   S    
C26   C27   A    
C38   N1    S    
C14   C21   A    
C28   C29   A    
C37   C38   A    
Cr4   O6    S    
C30   C31   A    
Cr1   O1    S    
Cr3   O22   S    
C15   C16   A    
Cr3   O23   S    
C46   C52   S    
Cr2   O2    S    
C7    C9    T    
C18   C19   A    
C47   O6    A    
Cr1   O12   S    
C51   O4    A    
C36   C42   A    
C19   C20   A    
C8    C9    S    
C48   O15   A    
C37   H5    S    
Cr1   O24   S    
C45   O2    A    
Cr1   O5    S    
C12   O22   A    
C46   O9    A    
Cr6   O17   S    
C25   C32   A    
C17   H10   S    
C48   O14   A    
C30   H3    S    
Cr3   O4    S    
C16   H11   S    
Cr5   O19   S    
Cr2   O21   S    
Cr6   O11   S    
C52   C54   T    
C17   C18   A    
C41   H8    S    
C21   C45   S    
C18   H12   S    
C55   H20   S    
C3    C44   S    
C34   O25   A    
C34   C43   S    
C14   C20   A    
C19   H13   S    
Cr5   O8    S    
C4    C6    T    
C39   C40   A    
Cr6   O10   S    
C50   O18   A    
Cr5   O15   S    
C44   O8    A    
C33   C50   S    
C40   H7    S    
C42   H9    S    
C23   O1    A    
C47   O11   A    
C37   C43   A    
C35   C39   A    
Cr4   O19   S    
Cr5   O9    S    
C32   C51   S    
C29   C30   A    
C11   C49   S    
C11   C16   A    
C50   O13   A    
C26   H15   S    
C15   H1    S    
C20   H14   S    
N1    C55   S    
C34   O26   A    
C24   C25   A    
Cr4   O14   S    
C45   O3    A    
C12   O21   A    
C40   C41   A    
C22   C27   A    
C39   H6    S    
C22   C24   A    
C49   O16   A    
C28   H16   S    
C51   O24   A    
Cr2   O20   S    
C29   H2    S    
C31   H4    S    
C1    C10   S    
C24   C28   A    
C4    C5    S    
C3    C5    T    
C2    C53   T    
C55   H18   S    
Cr1   O25   S    
C33   C38   A    
C13   C17   A    
Cr2   O26   S    
Cr4   O7    S    
C11   C13   A    
C1    O12   A    
C1    O20   A    
C6    C23   S    
C33   C35   A    
Cr3   O5    S    
Cr5   O16   S    
Cr4   O13   S    
Cr6   O19   S    
C15   C21   A    
C27   H21   S    
C8    C10   T    
N1    H17   S    
C36   C43   A    
C49   O17   A    
C13   C14   A    
C7    C47   S    
C46   O10   A    
Cr6   O18   S    
