data_mof_unit_43327.cif
_audit_creation_date              2012-12-10T16:39:36-0500
_audit_creation_method            fapswitch 2.2
_symmetry_space_group_name_H-M    P1
_symmetry_Int_Tables_number       1
_space_group_crystal_system       triclinic
_cell_length_a                    16.826603
_cell_length_b                    16.826602
_cell_length_c                    16.82661
_cell_angle_alpha                 66.116057
_cell_angle_beta                  66.116048
_cell_angle_gamma                 66.115991
_cell_volume                      3814.1847064

loop_
_atom_site_label
_atom_site_type_symbol
_atom_type_description
_atom_site_fract_x
_atom_site_fract_y
_atom_site_fract_z
_atom_type_partial_charge
C1    C     C_R   0.328327 0.942041 0.461116 -0.087351
C2    C     C_R   0.328327 0.461116 0.942041 -0.087351
C3    C     C_R   0.546316 0.413769 0.985918 -0.059154
C4    C     C_R   0.014082 0.453684 0.586231 -0.059154
C5    C     C_R   0.985918 0.546315 0.413769 -0.059154
C6    C     C_1   0.384576 0.129247 0.758443 0.298293
C7    C     C_1   0.615424 0.870753 0.241557 0.298293
C8    C     C_1   0.129248 0.758442 0.384576 0.298292
C9    C     C_1   0.870752 0.241558 0.615424 0.298293
C10   C     C_1   0.758442 0.384576 0.129248 0.298293
C11   C     C_1   0.241557 0.615424 0.870752 0.298293
C12   C     C_1   0.241558 0.870752 0.615424 0.298292
C13   C     C_R   0.057959 0.671673 0.538884 -0.087351
C14   C     C_1   0.758442 0.129248 0.384576 0.298292
C15   C     C_1   0.615424 0.241557 0.870752 0.298293
C16   C     C_1   0.384576 0.758443 0.129248 0.298293
C17   C     C_1   0.870753 0.615424 0.241557 0.298293
C18   C     C_1   0.129247 0.384576 0.758443 0.298293
C19   C     C_R   0.942041 0.328327 0.461116 -0.087351
C20   C     C_R   0.459478 0.973154 0.459478 0.107416
C21   C     C_R   0.540522 0.026846 0.540522 0.107416
C22   C     C_R   0.973154 0.459478 0.459478 0.107416
C23   C     C_R   0.026846 0.540522 0.540522 0.107416
C24   C     C_R   0.459478 0.459478 0.973154 0.107417
C25   C     C_R   0.540522 0.540522 0.026846 0.107417
C26   C     C_R   0.962819 0.179581 0.437691 0.899509
C27   C     C_R   0.671673 0.057959 0.538884 -0.087351
C28   C     C_R   0.037181 0.820419 0.562309 0.899509
C29   C     C_R   0.179581 0.437691 0.962819 0.899509
C30   C     C_R   0.820419 0.562309 0.037181 0.899509
C31   C     C_R   0.437691 0.962819 0.179581 0.899510
C32   C     C_R   0.562309 0.037181 0.820419 0.899509
C33   C     C_R   0.562309 0.820419 0.037181 0.899510
C34   C     C_R   0.437691 0.179581 0.962819 0.899510
C35   C     C_R   0.037181 0.562309 0.820419 0.899509
C36   C     C_R   0.962819 0.437691 0.179581 0.899509
C37   C     C_R   0.820419 0.037181 0.562309 0.899509
C38   C     C_R   0.942041 0.461116 0.328327 -0.087351
C39   C     C_R   0.179581 0.962819 0.437691 0.899509
C40   C     C_R   0.416172 0.952707 0.416172 0.048208
C41   C     C_R   0.583828 0.047293 0.583828 0.048208
C42   C     C_R   0.952706 0.416172 0.416172 0.048207
C43   C     C_R   0.047293 0.583828 0.583828 0.048207
C44   C     C_R   0.416172 0.416172 0.952707 0.048208
C45   C     C_R   0.583828 0.583828 0.047293 0.048207
C46   C     C_R   0.279149 0.939633 0.409670 -0.259028
C47   C     C_R   0.720850 0.060367 0.590329 -0.259028
C48   C     C_R   0.939633 0.409670 0.279149 -0.259028
C49   C     C_R   0.057959 0.538884 0.671673 -0.087351
C50   C     C_R   0.060367 0.590329 0.720851 -0.259028
C51   C     C_R   0.409671 0.279149 0.939633 -0.259028
C52   C     C_R   0.590329 0.720850 0.060367 -0.259028
C53   C     C_R   0.590329 0.060367 0.720851 -0.259028
C54   C     C_R   0.409671 0.939633 0.279149 -0.259028
C55   C     C_R   0.720850 0.590329 0.060367 -0.259028
C56   C     C_R   0.279149 0.409671 0.939633 -0.259028
C57   C     C_R   0.060367 0.720850 0.590329 -0.259028
C58   C     C_R   0.939633 0.279149 0.409670 -0.259028
C59   C     C_R   0.444357 0.066455 0.705709 0.030388
C60   C     C_R   0.461116 0.328327 0.942041 -0.087351
C61   C     C_R   0.555643 0.933545 0.294291 0.030387
C62   C     C_R   0.066456 0.705708 0.444357 0.030388
C63   C     C_R   0.933544 0.294292 0.555643 0.030388
C64   C     C_R   0.705708 0.444357 0.066456 0.030388
C65   C     C_R   0.294291 0.555643 0.933544 0.030387
C66   C     C_R   0.294292 0.933544 0.555643 0.030388
C67   C     C_R   0.705708 0.066456 0.444357 0.030388
C68   C     C_R   0.555643 0.294291 0.933544 0.030387
C69   C     C_R   0.444357 0.705709 0.066456 0.030388
C70   C     C_R   0.933545 0.555643 0.294291 0.030388
C71   C     C_R   0.538884 0.671673 0.057959 -0.087350
C72   C     C_R   0.066455 0.444357 0.705709 0.030388
C73   C     C_R   0.322669 0.931986 0.322669 0.545784
C74   C     C_R   0.677331 0.068014 0.677331 0.545784
C75   C     C_R   0.931986 0.322669 0.322669 0.545784
C76   C     C_R   0.068014 0.677331 0.677331 0.545784
C77   C     C_R   0.322669 0.322669 0.931986 0.545783
C78   C     C_R   0.677331 0.677331 0.068014 0.545783
C79   C     C_R   0.670337 0.032724 0.405425 -0.207160
C80   C     C_R   0.329663 0.967276 0.594575 -0.207160
C81   C     C_R   0.032723 0.405425 0.670337 -0.207161
C82   C     C_R   0.538884 0.057959 0.671673 -0.087351
C83   C     C_R   0.967277 0.594575 0.329663 -0.207161
C84   C     C_R   0.405425 0.670337 0.032723 -0.207161
C85   C     C_R   0.594575 0.329663 0.967277 -0.207161
C86   C     C_R   0.594575 0.967277 0.329663 -0.207161
C87   C     C_R   0.405425 0.032723 0.670337 -0.207161
C88   C     C_R   0.329663 0.594575 0.967277 -0.207161
C89   C     C_R   0.670337 0.405425 0.032723 -0.207161
C90   C     C_R   0.967276 0.329663 0.594575 -0.207161
C91   C     C_R   0.032724 0.670337 0.405425 -0.207161
C92   C     C_R   0.716667 0.017196 0.319545 0.563551
C93   C     C_R   0.461116 0.942041 0.328327 -0.087351
C94   C     C_R   0.283333 0.982804 0.680454 0.563551
C95   C     C_R   0.017194 0.319546 0.716668 0.563550
C96   C     C_R   0.982806 0.680454 0.283332 0.563551
C97   C     C_R   0.319545 0.716668 0.017195 0.563551
C98   C     C_R   0.680454 0.283332 0.982805 0.563552
C99   C     C_R   0.680454 0.982806 0.283332 0.563552
C100  C     C_R   0.319546 0.017194 0.716668 0.563550
C101  C     C_R   0.283332 0.680455 0.982805 0.563552
C102  C     C_R   0.716668 0.319545 0.017195 0.563551
C103  C     C_R   0.982804 0.283333 0.680454 0.563550
C104  C     C_R   0.671673 0.538884 0.057959 -0.087351
C105  C     C_R   0.017196 0.716667 0.319545 0.563551
C106  C     C_R   0.546316 0.985918 0.413769 -0.059154
C107  C     C_R   0.453684 0.014081 0.586231 -0.059154
C108  C     C_R   0.985918 0.413769 0.546316 -0.059154
C109  C     C_R   0.014082 0.586230 0.453684 -0.059154
C110  C     C_R   0.413769 0.546316 0.985918 -0.059154
C111  C     C_R   0.586231 0.453684 0.014082 -0.059154
C112  C     C_R   0.586231 0.014082 0.453684 -0.059154
C113  C     C_R   0.413769 0.985918 0.546316 -0.059154
C114  C     C_R   0.453684 0.586231 0.014082 -0.059154
F1    F     F_    0.276752 0.924742 0.276752 -0.618745
F2    F     F_    0.969633 0.200237 0.727895 -0.558369
F3    F     F_    0.799764 0.272105 0.030366 -0.558369
F4    F     F_    0.200236 0.727895 0.969634 -0.558369
F5    F     F_    0.200237 0.969632 0.727895 -0.558369
F6    F     F_    0.799763 0.030367 0.272105 -0.558369
F7    F     F_    0.727895 0.200236 0.969634 -0.558369
F8    F     F_    0.272105 0.799764 0.030366 -0.558369
F9    F     F_    0.969635 0.727894 0.200236 -0.558369
F10   F     F_    0.030365 0.272106 0.799764 -0.558369
F11   F     F_    0.723248 0.075257 0.723248 -0.618745
F12   F     F_    0.924742 0.276752 0.276752 -0.618745
F13   F     F_    0.075257 0.723248 0.723248 -0.618745
F14   F     F_    0.276753 0.276753 0.924741 -0.618746
F15   F     F_    0.723247 0.723247 0.075258 -0.618746
F16   F     F_    0.272106 0.030365 0.799764 -0.558369
F17   F     F_    0.727894 0.969635 0.200236 -0.558370
F18   F     F_    0.030367 0.799763 0.272105 -0.558370
N1    N     N_1   0.336839 0.179474 0.800467 -0.069580
N2    N     N_1   0.336839 0.800467 0.179475 -0.069580
N3    N     N_1   0.820526 0.663161 0.199533 -0.069580
N4    N     N_1   0.179474 0.336839 0.800467 -0.069580
N5    N     N_1   0.663161 0.820526 0.199533 -0.069580
N6    N     N_1   0.179475 0.800467 0.336840 -0.069582
N7    N     N_1   0.820525 0.199533 0.663160 -0.069581
N8    N     N_1   0.800467 0.336839 0.179475 -0.069580
N9    N     N_1   0.199533 0.663160 0.820525 -0.069580
N10   N     N_1   0.199533 0.820525 0.663160 -0.069581
N11   N     N_1   0.800467 0.179475 0.336840 -0.069581
N12   N     N_1   0.663161 0.199532 0.820525 -0.069580
O1    O     O_R   0.982940 0.138950 0.510160 -0.642536
O2    O     O_R   0.982940 0.510160 0.138950 -0.642536
O3    O     O_R   0.861050 0.017060 0.489840 -0.642536
O4    O     O_R   0.138950 0.982940 0.510160 -0.642535
O5    O     O_R   0.867700 0.025880 0.612340 -0.536808
O6    O     O_R   0.132300 0.974120 0.387660 -0.536808
O7    O     O_R   0.025880 0.612340 0.867700 -0.536808
O8    O     O_R   0.974120 0.387660 0.132300 -0.536808
O9    O     O_R   0.612340 0.867700 0.025880 -0.536808
O10   O     O_R   0.387660 0.132300 0.974120 -0.536809
O11   O     O_R   0.387660 0.974120 0.132300 -0.536808
O12   O     O_R   0.017060 0.861050 0.489840 -0.642536
O13   O     O_R   0.612340 0.025880 0.867700 -0.536808
O14   O     O_R   0.132300 0.387660 0.974120 -0.536809
O15   O     O_R   0.867700 0.612340 0.025880 -0.536808
O16   O     O_R   0.974120 0.132300 0.387660 -0.536808
O17   O     O_R   0.025880 0.867700 0.612340 -0.536808
O18   O     O_R   0.138950 0.510160 0.982940 -0.642536
O19   O     O_R   0.861050 0.489840 0.017060 -0.642536
O20   O     O_R   0.510160 0.982940 0.138950 -0.642536
O21   O     O_R   0.489840 0.017060 0.861050 -0.642536
O22   O     O_R   0.489840 0.861050 0.017060 -0.642536
O23   O     O_R   0.510160 0.138950 0.982940 -0.642536
O24   O     O_R   0.017060 0.489840 0.861050 -0.642536
Zn1   Zn    Zn3+2 0.004880 0.004880 0.583590 1.173833
Zn2   Zn    Zn3+2 0.995120 0.995120 0.416410 1.173833
Zn3   Zn    Zn3+2 0.004880 0.583590 0.004880 1.173832
Zn4   Zn    Zn3+2 0.995120 0.416410 0.995120 1.173832
Zn5   Zn    Zn3+2 0.583590 0.004880 0.004880 1.173832
Zn6   Zn    Zn3+2 0.416410 0.995120 0.995120 1.173832

loop_
_geom_bond_atom_site_label_1
_geom_bond_atom_site_label_2
_ccdc_geom_bond_type
C95   F10   S    
C98   F7    S    
C96   C105  A    
C38   C70   A    
C89   C102  A    
C3    C85   A    
C91   C105  A    
C33   O22   A    
C59   C82   A    
C40   C93   A    
C2    C65   A    
C16   N2    T    
C88   C101  A    
C23   C43   A    
C22   C108  A    
C106  C112  A    
C28   C57   S    
C33   C52   S    
C4    C108  A    
C39   O6    A    
C34   C51   S    
O15   Zn3   S    
C79   C112  A    
O5    Zn1   S    
C101  F4    S    
C64   C89   A    
C57   C76   A    
C78   F15   S    
C38   C42   A    
C6    N1    T    
C20   C113  A    
C81   C95   A    
C61   C93   A    
C1    C46   A    
C74   F11   S    
C13   C57   A    
C83   C96   A    
C27   C47   A    
O9    Zn5   S    
O7    Zn3   S    
C8    N6    T    
C87   C100  A    
C69   C71   A    
C7    C61   S    
C54   C93   A    
C85   C98   A    
C1    C40   A    
C31   O20   A    
C107  C113  A    
O18   Zn3   S    
C53   C74   A    
C19   C63   A    
C49   C72   A    
C39   O4    A    
C58   C75   A    
C14   C67   S    
C26   O16   A    
C37   C47   S    
C110  C114  A    
C100  F16   S    
C38   C48   A    
C72   C81   A    
O3    Zn2   S    
O23   Zn5   S    
C88   C110  A    
C17   C70   S    
O2    Zn3   S    
C68   C85   A    
C48   C75   A    
C3    C24   A    
C86   C106  A    
C35   O7    A    
C30   O19   A    
C52   C78   A    
C6    C59   S    
C64   C104  A    
C95   C103  A    
C28   O17   A    
O4    Zn1   S    
C105  F18   S    
C20   C106  A    
C34   O10   A    
C19   C58   A    
C18   C72   S    
C30   O15   A    
C23   C109  A    
O1    Zn1   S    
O22   Zn6   S    
O10   Zn6   S    
C24   C110  A    
C2    C44   A    
C7    N5    T    
C55   C78   A    
C43   C49   A    
O21   Zn6   S    
C98   C102  A    
C12   C66   S    
C55   C104  A    
C56   C77   A    
C15   C68   S    
C53   C82   A    
C26   O1    A    
C51   C77   A    
C17   N3    T    
C97   F8    S    
C86   C99   A    
C45   C104  A    
C50   C76   A    
C54   C73   A    
C11   N9    T    
C94   F5    S    
C27   C41   A    
C94   C100  A    
C28   O12   A    
C62   C91   A    
C35   C50   S    
C1    C66   A    
C67   C79   A    
O20   Zn5   S    
O8    Zn4   S    
C37   O3    A    
C18   N4    T    
C70   C83   A    
C26   C58   S    
C79   C92   A    
C21   C107  A    
C77   F14   S    
C39   C46   S    
C21   C41   A    
C13   C62   A    
O11   Zn6   S    
C102  F3    S    
C8    C62   S    
C10   N8    T    
C24   C44   A    
C3    C111  A    
C84   C97   A    
C80   C94   A    
C34   O23   A    
C25   C45   A    
C32   C53   S    
C13   C43   A    
C21   C112  A    
C45   C71   A    
C65   C88   A    
C35   O24   A    
C32   O13   A    
C36   O2    A    
C4    C23   A    
C14   N11   T    
C84   C114  A    
C96   F9    S    
C9    C63   S    
C29   O18   A    
C36   O8    A    
C16   C69   S    
C47   C74   A    
C37   O5    A    
C31   O11   A    
C19   C42   A    
C5    C83   A    
C29   O14   A    
C5    C22   A    
C29   C56   S    
C66   C80   A    
C30   C55   S    
C89   C111  A    
C10   C64   S    
C73   F1    S    
C99   F17   S    
C75   F12   S    
C91   C109  A    
C103  F2    S    
C92   F6    S    
O17   Zn1   S    
C69   C84   A    
C2    C56   A    
C25   C114  A    
C9    N7    T    
O14   Zn4   S    
O6    Zn2   S    
C5    C109  A    
C44   C60   A    
O19   Zn4   S    
C20   C40   A    
C41   C82   A    
C4    C81   A    
C63   C90   A    
O12   Zn2   S    
C12   N10   T    
C36   C48   S    
C33   O9    A    
C31   C54   S    
C59   C87   A    
C90   C103  A    
C27   C67   A    
C61   C86   A    
C25   C111  A    
C90   C108  A    
C15   N12   T    
O24   Zn4   S    
C87   C107  A    
C80   C113  A    
C60   C68   A    
C49   C50   A    
C22   C42   A    
C52   C71   A    
C76   F13   S    
O16   Zn2   S    
C51   C60   A    
C32   O21   A    
C46   C73   A    
C97   C101  A    
C11   C65   S    
C92   C99   A    
O13   Zn5   S    
