data_mof_unit_64648.cif
_audit_creation_date              2012-12-10T18:59:14-0500
_audit_creation_method            fapswitch 2.2
_symmetry_space_group_name_H-M    P1
_symmetry_Int_Tables_number       1
_space_group_crystal_system       triclinic
_cell_length_a                    43.944408
_cell_length_b                    30.250334
_cell_length_c                    30.275247
_cell_angle_alpha                 89.990891
_cell_angle_beta                  133.502619
_cell_angle_gamma                 90.012526
_cell_volume                      29192.0668275

loop_
_atom_site_label
_atom_site_type_symbol
_atom_type_description
_atom_site_fract_x
_atom_site_fract_y
_atom_site_fract_z
_atom_type_partial_charge
C1    C     C_R   0.499333 0.999953 0.585622 0.904101
C2    C     C_3   0.727455 0.042921 0.749243 0.305802
C3    C     C_R   0.534377 0.297457 0.050683 -0.151656
C4    C     C_R   0.965314 0.843441 0.947641 0.110036
C5    C     C_R   0.034693 0.843454 0.052390 0.109797
C6    C     C_R   0.464601 0.343384 0.947406 0.113706
C7    C     C_R   0.534665 0.343452 0.051418 0.107629
C8    C     C_R   0.000002 0.866378 0.000012 -0.024325
C9    C     C_R   0.499532 0.366416 0.999569 -0.013730
C10   C     C_R   0.000008 0.774513 0.000026 0.017394
C11   C     C_R   0.500080 0.274506 0.999010 0.020265
C12   C     C_R   0.536204 0.203153 0.022643 -0.155889
C13   C     C_3   0.772561 0.542984 0.250924 0.305785
C14   C     C_R   0.463865 0.203302 0.975671 -0.155363
C15   C     C_R   0.036305 0.703251 0.024048 -0.155428
C16   C     C_R   0.963715 0.703236 0.976012 -0.155448
C17   C     C_R   0.536279 0.157343 0.023304 -0.174532
C18   C     C_R   0.463780 0.157499 0.975669 -0.174836
C19   C     C_R   0.036379 0.657444 0.024358 -0.174703
C20   C     C_R   0.963638 0.657429 0.975688 -0.174684
C21   C     C_R   0.500031 0.134388 0.999677 -0.041907
C22   C     C_R   0.000007 0.634398 0.000017 -0.042074
C23   C     C_3   0.276318 0.995443 0.322024 -0.621684
C24   C     C_3   0.227448 0.542608 0.749848 0.305901
C25   C     C_3   0.723681 0.995635 0.677961 -0.621690
C26   C     C_3   0.776317 0.495436 0.322021 -0.621675
C27   C     C_3   0.223680 0.496284 0.677910 -0.621693
C28   C     C_R   0.500038 0.226312 0.999004 0.128500
C29   C     C_R   0.000010 0.726324 0.000031 0.127934
C30   C     C_R   0.038110 0.203412 0.030818 0.028920
C31   C     C_R   0.961892 0.203397 0.969174 0.028945
C32   C     C_R   0.538128 0.703410 0.030847 0.028942
C33   C     C_R   0.461911 0.703401 0.969207 0.029011
C34   C     C_R   0.038699 0.157069 0.035649 0.382524
C35   C     C_1   0.162789 0.997780 0.162708 0.056318
C36   C     C_R   0.961302 0.157057 0.964332 0.382558
C37   C     C_R   0.538712 0.657066 0.035667 0.382532
C38   C     C_R   0.461316 0.657064 0.964350 0.382579
C39   C     C_R   0.000000 0.134339 0.999990 -0.371262
C40   C     C_R   0.500010 0.634340 0.000002 -0.371250
C41   C     C_R   0.000001 0.226148 0.999997 -0.022326
C42   C     C_R   0.500021 0.726149 0.000031 -0.022344
C43   C     C_R   0.483256 0.796918 0.947243 -0.155606
C44   C     C_R   0.516768 0.796920 0.052796 -0.155725
C45   C     C_R   0.983245 0.296922 0.947221 -0.155640
C46   C     C_1   0.837210 0.997784 0.837287 0.056330
C47   C     C_R   0.016748 0.296915 0.052771 -0.155680
C48   C     C_R   0.483043 0.842935 0.946578 0.127789
C49   C     C_R   0.516957 0.842936 0.053438 0.127837
C50   C     C_R   0.983040 0.342938 0.946567 0.127812
C51   C     C_R   0.016946 0.342931 0.053423 0.127818
C52   C     C_R   0.499995 0.865927 0.000003 -0.050437
C53   C     C_R   0.999992 0.365926 0.999995 -0.050429
C54   C     C_R   0.500018 0.774297 0.000025 0.060501
C55   C     C_R   0.999999 0.274296 0.999997 0.060491
C56   C     C_3   0.227230 0.992989 0.276019 0.608939
C57   C     C_1   0.662789 0.497776 0.162705 0.056329
C58   C     C_3   0.772768 0.993184 0.723958 0.608827
C59   C     C_3   0.727229 0.492980 0.276015 0.608867
C60   C     C_3   0.272767 0.493878 0.723871 0.608364
C61   C     C_1   0.125338 0.998658 0.125254 -0.109199
C62   C     C_1   0.874661 0.998658 0.874745 -0.109069
C63   C     C_1   0.625338 0.498656 0.125253 -0.108961
C64   C     C_1   0.374659 0.498700 0.874737 -0.106335
C65   C     C_3   0.291332 0.998522 0.288126 -0.070311
C66   C     C_3   0.708667 0.998529 0.711869 -0.070310
C67   C     C_3   0.791332 0.498518 0.288124 -0.070302
C68   C     C_1   0.337209 0.497807 0.837262 0.056778
C69   C     C_3   0.208666 0.498483 0.711854 -0.070450
C70   C     C_3   0.225622 0.960135 0.193042 -0.131757
C71   C     C_3   0.774361 0.960023 0.806807 -0.131759
C72   C     C_3   0.725622 0.460134 0.193035 -0.131756
C73   C     C_3   0.274369 0.459570 0.806247 -0.129740
C74   C     C_3   0.208569 0.996832 0.208466 0.056308
C75   C     C_3   0.791430 0.996841 0.791525 0.056303
C76   C     C_3   0.708569 0.496828 0.208462 0.056274
C77   C     C_3   0.291429 0.496848 0.791484 0.055947
C78   C     C_3   0.203273 0.914809 0.171304 -0.765601
C79   C     C_1   0.337076 0.999453 0.334993 0.097505
C80   C     C_3   0.796693 0.914698 0.828372 -0.765650
C81   C     C_3   0.703273 0.414808 0.171291 -0.765564
C82   C     C_3   0.296702 0.414258 0.827160 -0.770107
C83   C     C_3   0.450688 0.932499 0.588182 -0.814157
C84   C     C_3   0.549330 0.932543 0.411847 -0.814123
C85   C     C_3   0.950677 0.432507 0.588170 -0.814141
C86   C     C_3   0.049329 0.432543 0.411846 -0.813897
C87   C     C_3   0.927416 0.867399 0.891785 -0.794255
C88   C     C_3   0.072589 0.867426 0.108238 -0.793800
C89   C     C_3   0.425461 0.365952 0.891401 -0.798973
C90   C     C_1   0.662924 0.999469 0.665005 0.097507
C91   C     C_3   0.572784 0.367402 0.107020 -0.795117
C92   C     C_3   0.077400 0.228553 0.057022 -0.695451
C93   C     C_3   0.922604 0.228519 0.942983 -0.695475
C94   C     C_3   0.577420 0.728549 0.057056 -0.695452
C95   C     C_3   0.422627 0.728526 0.943032 -0.695584
C96   C     C_3   0.465689 0.866861 0.889491 -0.869704
C97   C     C_3   0.534299 0.866864 0.110514 -0.869732
C98   C     C_3   0.965695 0.366870 0.889487 -0.869707
C99   C     C_3   0.034289 0.366854 0.110502 -0.869699
C100  C     C_3   0.211666 0.031736 0.290031 -0.801279
C101  C     C_1   0.837075 0.499451 0.334991 0.097502
C102  C     C_3   0.788349 0.032038 0.710095 -0.801084
C103  C     C_3   0.711663 0.531722 0.290031 -0.801277
C104  C     C_3   0.288345 0.533138 0.710549 -0.800300
C105  C     C_R   0.500668 0.999959 0.414379 0.904105
C106  C     C_1   0.162923 0.499438 0.665003 0.097550
C107  C     C_1   0.374558 0.999880 0.373715 -0.078846
C108  C     C_1   0.625442 0.999896 0.626284 -0.078838
C109  C     C_1   0.874557 0.499879 0.373714 -0.078850
C110  C     C_1   0.125442 0.499887 0.626286 -0.078839
C111  C     C_R   0.521226 0.036888 0.722895 0.477715
C112  C     C_R   0.478780 0.036910 0.277104 0.477686
C113  C     C_R   0.021233 0.536882 0.722903 0.477787
C114  C     C_R   0.978780 0.536911 0.277104 0.477673
C115  C     C_R   0.520776 0.034208 0.676612 -0.267395
C116  C     C_R   0.999333 0.499953 0.585622 0.904105
C117  C     C_R   0.479229 0.034223 0.323387 -0.267374
C118  C     C_R   0.020782 0.534203 0.676619 -0.267473
C119  C     C_R   0.979229 0.534224 0.323387 -0.267372
C120  C     C_R   0.498971 0.000214 0.633307 -0.116060
C121  C     C_R   0.501036 0.000234 0.366700 -0.116074
C122  C     C_R   0.998972 0.500213 0.633307 -0.116016
C123  C     C_R   0.001035 0.500234 0.366699 -0.116072
C124  C     C_R   0.476622 0.968258 0.635599 0.186778
C125  C     C_R   0.523391 0.968293 0.364419 0.186766
C126  C     C_R   0.976617 0.468261 0.635594 0.186782
C127  C     C_R   0.000668 0.499959 0.414379 0.904111
C128  C     C_R   0.023391 0.468294 0.364418 0.186686
C129  C     C_R   0.477613 0.970696 0.682489 -0.223037
C130  C     C_R   0.522400 0.970738 0.317530 -0.223038
C131  C     C_R   0.977609 0.470698 0.682484 -0.223034
C132  C     C_R   0.022400 0.470739 0.317530 -0.222977
C133  C     C_R   0.418949 0.999989 0.419011 0.892941
C134  C     C_R   0.581050 0.999995 0.580989 0.892944
C135  C     C_R   0.918949 0.499989 0.419011 0.892942
C136  C     C_R   0.081050 0.499994 0.580990 0.892967
C137  C     C_R   0.499923 0.004294 0.726038 -0.103657
C138  C     C_3   0.223891 0.041198 0.202947 -0.554071
C139  C     C_R   0.500086 0.004328 0.273969 -0.103651
C140  C     C_R   0.999925 0.504291 0.726040 -0.103657
C141  C     C_R   0.000086 0.504330 0.273970 -0.103646
C142  C     C_R   0.462826 0.011051 0.759786 -0.117652
C143  C     C_R   0.537178 0.011089 0.240211 -0.117655
C144  C     C_R   0.962828 0.511053 0.759787 -0.117648
C145  C     C_R   0.037178 0.511091 0.240211 -0.117632
C146  C     C_R   0.462676 0.009468 0.805379 -0.182303
C147  C     C_R   0.537326 0.009494 0.194617 -0.182292
C148  C     C_R   0.962678 0.509470 0.805380 -0.182299
C149  C     C_3   0.776124 0.041130 0.797214 -0.554078
C150  C     C_R   0.037326 0.509495 0.194617 -0.182298
C151  C     C_R   0.500042 0.000877 0.865617 -0.052244
C152  C     C_R   0.499959 0.000889 0.134384 -0.052303
C153  C     C_R   0.000042 0.500875 0.865617 -0.052276
C154  C     C_R   0.999960 0.500890 0.134384 -0.052279
C155  C     C_R   0.537454 0.993491 0.879755 -0.191050
C156  C     C_R   0.462547 0.993502 0.120251 -0.191055
C157  C     C_R   0.037453 0.493483 0.879754 -0.191002
C158  C     C_R   0.962547 0.493503 0.120251 -0.191005
C159  C     C_R   0.537462 0.994732 0.833986 -0.067496
C160  C     C_3   0.723891 0.541196 0.202947 -0.554056
C161  C     C_R   0.462541 0.994755 0.166021 -0.067509
C162  C     C_R   0.037462 0.494723 0.833986 -0.067461
C163  C     C_R   0.962541 0.494756 0.166022 -0.067502
C164  C     C_R   0.500267 0.004035 0.774244 0.176955
C165  C     C_R   0.499737 0.004071 0.225759 0.176974
C166  C     C_R   0.000268 0.504031 0.774245 0.176949
C167  C     C_R   0.999737 0.504072 0.225759 0.176944
C168  C     C_R   0.000000 0.914112 0.000003 0.848580
C169  C     C_R   0.499877 0.414119 0.999892 0.839428
C170  C     C_R   0.080998 0.999521 0.080987 0.950387
C171  C     C_3   0.276116 0.540832 0.797791 -0.554524
C172  C     C_R   0.919002 0.999518 0.919013 0.950397
C173  C     C_R   0.580998 0.499520 0.080987 0.950098
C174  C     C_R   0.419000 0.499579 0.919012 0.943189
C175  C     C_R   1.000000 0.086311 0.999997 1.121034
C176  C     C_R   0.500003 0.586312 0.000000 1.120679
C177  C     C_3   0.273978 0.956026 0.246818 0.266094
C178  C     C_3   0.726004 0.955940 0.753013 0.266116
C179  C     C_3   0.773978 0.456024 0.246812 0.266077
C180  C     C_3   0.226010 0.455563 0.752399 0.266118
C181  C     C_R   0.500007 0.086442 0.999948 0.881797
C182  C     C_3   0.272561 0.042986 0.250923 0.305797
C183  C     C_R   0.000003 0.586445 0.000004 0.881909
C184  C     C_R   0.500016 0.000012 0.913566 0.876162
C185  C     C_R   0.499984 0.000013 0.086434 0.876344
C186  C     C_R   0.000016 0.500012 0.913566 0.876295
C187  C     C_R   0.999984 0.500014 0.086434 0.876291
C188  C     C_R   0.499998 0.913744 0.000000 0.902012
C189  C     C_R   0.999997 0.413744 0.999999 0.901996
C190  C     C_R   0.965834 0.797448 0.948157 -0.152408
C191  C     C_R   0.034179 0.797460 0.051887 -0.152383
C192  C     C_R   0.465596 0.297448 0.947579 -0.167042
H1    H     H_    0.219304 0.972307 0.152720 0.241037
H2    H     H_    0.462303 0.058672 0.325619 0.217658
H3    H     H_    0.068087 0.413816 0.405969 0.231785
H4    H     H_    0.914186 0.889533 0.904308 0.224032
H5    H     H_    0.936408 0.887335 0.871493 0.262954
H6    H     H_    0.902341 0.844073 0.856421 0.250402
H7    H     H_    0.085817 0.889568 0.095709 0.224120
H8    H     H_    0.063595 0.887356 0.128524 0.262885
H9    H     H_    0.097666 0.844110 0.143610 0.250493
H10   H     H_    0.425500 0.402196 0.896528 0.234946
H11   H     H_    0.421896 0.359313 0.851968 0.260680
H12   H     H_    0.397601 0.352634 0.881138 0.242016
H13   H     H_    0.037709 0.558660 0.674383 0.217576
H14   H     H_    0.585573 0.389759 0.093990 0.223644
H15   H     H_    0.564184 0.387106 0.127983 0.263183
H16   H     H_    0.598075 0.344091 0.142021 0.250683
H17   H     H_    0.070866 0.262188 0.037736 0.215079
H18   H     H_    0.098481 0.231970 0.107048 0.262468
H19   H     H_    0.093556 0.211328 0.045624 0.272765
H20   H     H_    0.929144 0.262140 0.962302 0.215071
H21   H     H_    0.901529 0.231965 0.892960 0.262454
H22   H     H_    0.906439 0.211262 0.954355 0.272769
H23   H     H_    0.570890 0.762187 0.037782 0.215075
H24   H     H_    0.962303 0.558673 0.325620 0.217653
H25   H     H_    0.598502 0.731957 0.107084 0.262462
H26   H     H_    0.593573 0.711326 0.045652 0.272772
H27   H     H_    0.429177 0.762135 0.962386 0.215075
H28   H     H_    0.401557 0.731997 0.893014 0.262437
H29   H     H_    0.406454 0.711256 0.954381 0.272761
H30   H     H_    0.115099 0.083638 0.163008 0.371182
H31   H     H_    0.884917 0.083628 0.836956 0.371178
H32   H     H_    0.615105 0.583630 0.163021 0.371179
H33   H     H_    0.384936 0.583669 0.836940 0.371224
H34   H     H_    0.437902 0.886712 0.871418 0.258157
H35   H     H_    0.461069 0.946207 0.685504 0.163656
H36   H     H_    0.490015 0.889076 0.899740 0.229210
H37   H     H_    0.455772 0.843499 0.853272 0.242458
H38   H     H_    0.562081 0.886735 0.128585 0.258175
H39   H     H_    0.509965 0.889057 0.100253 0.229188
H40   H     H_    0.544221 0.843501 0.146741 0.242452
H41   H     H_    0.937909 0.386725 0.871414 0.258163
H42   H     H_    0.990026 0.389080 0.899745 0.229200
H43   H     H_    0.955777 0.343511 0.853265 0.242457
H44   H     H_    0.062074 0.386723 0.128579 0.258173
H45   H     H_    0.009956 0.389051 0.100242 0.229193
H46   H     H_    0.538947 0.946259 0.314521 0.163651
H47   H     H_    0.044206 0.343488 0.146723 0.242461
H48   H     H_    0.203065 0.922814 0.348881 0.395730
H49   H     H_    0.796905 0.923370 0.650829 0.395747
H50   H     H_    0.703062 0.422794 0.348865 0.395786
H51   H     H_    0.296927 0.425439 0.649800 0.395842
H52   H     H_    0.222375 0.064413 0.288727 0.196658
H53   H     H_    0.176915 0.031929 0.257812 0.246131
H54   H     H_    0.224616 0.028879 0.336884 0.279775
H55   H     H_    0.777660 0.064673 0.711533 0.196722
H56   H     H_    0.823099 0.032229 0.742309 0.246061
H57   H     H_    0.961061 0.446211 0.685495 0.163657
H58   H     H_    0.775392 0.029313 0.663229 0.279759
H59   H     H_    0.722371 0.564401 0.288729 0.196659
H60   H     H_    0.676913 0.531913 0.257812 0.246136
H61   H     H_    0.724615 0.528862 0.336883 0.279779
H62   H     H_    0.277679 0.565603 0.712478 0.196920
H63   H     H_    0.323093 0.533344 0.742737 0.245905
H64   H     H_    0.275367 0.530899 0.663634 0.279694
H65   H     H_    0.285144 0.122024 0.173197 0.400263
H66   H     H_    0.714902 0.121613 0.827276 0.400286
H67   H     H_    0.785141 0.622025 0.173198 0.400273
H68   H     H_    0.038947 0.446260 0.314521 0.163665
H69   H     H_    0.214878 0.620014 0.828963 0.400389
H70   H     H_    0.433908 0.017802 0.713326 0.146435
H71   H     H_    0.566097 0.017849 0.286668 0.146462
H72   H     H_    0.933911 0.517808 0.713328 0.146437
H73   H     H_    0.780683 0.972066 0.847174 0.241028
H74   H     H_    0.066097 0.517851 0.286668 0.146500
H75   H     H_    0.433492 0.015278 0.793595 0.165070
H76   H     H_    0.566511 0.015305 0.206397 0.165093
H77   H     H_    0.933494 0.515285 0.793596 0.165064
H78   H     H_    0.066511 0.515307 0.206397 0.165092
H79   H     H_    0.566522 0.986413 0.925922 0.170184
H80   H     H_    0.433478 0.986414 0.074088 0.170171
H81   H     H_    0.066520 0.486401 0.925921 0.170188
H82   H     H_    0.933478 0.486415 0.074089 0.170186
H83   H     H_    0.279989 0.927867 0.275577 0.163396
H84   H     H_    0.719304 0.472309 0.152715 0.241060
H85   H     H_    0.719984 0.927869 0.724146 0.163391
H86   H     H_    0.779988 0.427863 0.275568 0.163397
H87   H     H_    0.219986 0.427818 0.723136 0.163395
H88   H     H_    0.566255 0.988217 0.844907 0.171657
H89   H     H_    0.433748 0.988236 0.155105 0.171655
H90   H     H_    0.066254 0.488204 0.844906 0.171659
H91   H     H_    0.933748 0.488237 0.155106 0.171664
H92   H     H_    0.939708 0.779383 0.907934 0.148961
H93   H     H_    0.060308 0.779405 0.092115 0.148974
H94   H     H_    0.439251 0.279497 0.907404 0.155784
H95   H     H_    0.280696 0.471126 0.846787 0.240916
H96   H     H_    0.560776 0.279407 0.090618 0.148767
H97   H     H_    0.564204 0.220472 0.040046 0.143214
H98   H     H_    0.435884 0.220737 0.958134 0.142674
H99   H     H_    0.064401 0.720642 0.041949 0.143285
H100  H     H_    0.935620 0.720614 0.958114 0.143284
H101  H     H_    0.564445 0.139924 0.041556 0.164865
H102  H     H_    0.435614 0.140215 0.957668 0.164733
H103  H     H_    0.064646 0.640104 0.042896 0.164955
H104  H     H_    0.935370 0.640078 0.957144 0.164969
H105  H     H_    0.470567 0.778463 0.906925 0.163611
H106  H     H_    0.211047 0.070481 0.207553 0.211013
H107  H     H_    0.529462 0.778466 0.093121 0.163608
H108  H     H_    0.970557 0.278471 0.906902 0.163605
H109  H     H_    0.029438 0.278458 0.093091 0.163608
H110  H     H_    0.288662 0.024423 0.353034 0.189105
H111  H     H_    0.711350 0.024687 0.647065 0.189128
H112  H     H_    0.788660 0.524414 0.353031 0.189105
H113  H     H_    0.211349 0.525597 0.647428 0.189195
H114  H     H_    0.291376 0.966639 0.353461 0.245122
H115  H     H_    0.708612 0.966895 0.646412 0.245113
H116  H     H_    0.791375 0.466630 0.353455 0.245121
H117  H     H_    0.788980 0.070477 0.792720 0.211121
H118  H     H_    0.208610 0.467782 0.645954 0.245067
H119  H     H_    0.282155 0.069845 0.283550 0.120236
H120  H     H_    0.717871 0.069868 0.716721 0.120262
H121  H     H_    0.782155 0.569840 0.283552 0.120233
H122  H     H_    0.217861 0.569876 0.717705 0.120367
H123  H     H_    0.210951 0.044590 0.156024 0.251870
H124  H     H_    0.789065 0.044392 0.844149 0.251813
H125  H     H_    0.710950 0.544591 0.156025 0.251884
H126  H     H_    0.289056 0.543612 0.844768 0.251608
H127  H     H_    0.213844 0.894857 0.153193 0.241068
H128  H     H_    0.711047 0.570477 0.207558 0.211013
H129  H     H_    0.210234 0.895156 0.207898 0.309863
H130  H     H_    0.168791 0.918616 0.133725 0.240127
H131  H     H_    0.786115 0.894640 0.846407 0.241071
H132  H     H_    0.789725 0.895157 0.791704 0.309876
H133  H     H_    0.831176 0.918489 0.865966 0.240089
H134  H     H_    0.713842 0.394860 0.153176 0.241068
H135  H     H_    0.710234 0.395152 0.207882 0.309839
H136  H     H_    0.668791 0.418616 0.133714 0.240204
H137  H     H_    0.286172 0.393816 0.844991 0.241071
H138  H     H_    0.289680 0.395118 0.790193 0.309673
H139  H     H_    0.288967 0.570424 0.793711 0.211435
H140  H     H_    0.331192 0.418002 0.864744 0.241268
H141  H     H_    0.259026 0.908602 0.132097 0.368272
H142  H     H_    0.740931 0.908130 0.867543 0.368283
H143  H     H_    0.759031 0.408605 0.132093 0.368294
H144  H     H_    0.240970 0.406368 0.866269 0.368192
H145  H     H_    0.539970 0.120306 0.826469 0.390252
H146  H     H_    0.460025 0.120331 0.173504 0.390275
H147  H     H_    0.039993 0.620296 0.826492 0.390297
H148  H     H_    0.960026 0.620333 0.173507 0.390307
H149  H     H_    0.428455 0.947370 0.541942 0.228749
H150  H     H_    0.537699 0.058668 0.674373 0.217645
H151  H     H_    0.471466 0.908556 0.591857 0.263513
H152  H     H_    0.431936 0.913756 0.594068 0.231758
H153  H     H_    0.571557 0.947420 0.458083 0.228764
H154  H     H_    0.528554 0.908585 0.408175 0.263495
H155  H     H_    0.568088 0.913816 0.405970 0.231760
H156  H     H_    0.928447 0.447383 0.541932 0.228730
H157  H     H_    0.971452 0.408561 0.591839 0.263533
H158  H     H_    0.931922 0.413768 0.594052 0.231759
H159  H     H_    0.071557 0.447420 0.458082 0.228809
H160  H     H_    0.028554 0.408586 0.408174 0.263475
O1    O     O_R   0.500000 0.963030 0.565470 -0.612688
O2    O     O_R   0.465320 0.999980 0.030770 -0.619703
O3    O     O_2   0.661604 0.060747 0.738306 -0.249259
O4    O     O_2   0.726034 0.032621 0.837366 -0.198529
O5    O     O_3   0.725471 0.113226 0.808232 -0.529343
O6    O     O_2   0.838417 0.561016 0.261929 -0.249236
O7    O     O_2   0.773975 0.533031 0.162759 -0.198433
O8    O     O_3   0.774570 0.613524 0.192210 -0.529347
O9    O     O_2   0.161594 0.559646 0.739155 -0.249407
O10   O     O_2   0.226029 0.531047 0.837820 -0.198724
O11   O     O_3   0.225451 0.612046 0.809809 -0.529322
O12   O     O_R   0.034680 0.499980 0.969230 -0.619697
O13   O     O_R   0.965320 0.499980 0.030770 -0.619700
O14   O     O_R   0.465320 0.934500 0.965310 -0.618562
O15   O     O_R   0.534680 0.934500 0.034690 -0.618541
O16   O     O_R   0.965320 0.434500 0.965310 -0.618552
O17   O     O_R   0.034680 0.434500 0.034690 -0.618539
O18   O     O_R   0.499990 0.036970 0.565490 -0.615791
O19   O     O_R   0.500010 0.036970 0.434510 -0.615777
O20   O     O_R   0.999990 0.536970 0.565490 -0.615847
O21   O     O_R   0.500000 0.963030 0.434530 -0.612701
O22   O     O_R   0.000010 0.536970 0.434510 -0.615783
O23   O     O_R   0.438570 0.963030 0.438570 -0.607207
O24   O     O_R   0.561430 0.963030 0.561430 -0.607093
O25   O     O_R   0.938570 0.463030 0.438570 -0.607216
O26   O     O_R   0.061430 0.463030 0.561430 -0.606718
O27   O     O_R   0.438570 0.036970 0.438590 -0.601577
O28   O     O_R   0.561430 0.036970 0.561410 -0.601696
O29   O     O_R   0.938570 0.536970 0.438590 -0.601570
O30   O     O_R   0.061430 0.536970 0.561410 -0.602109
O31   O     O_R   0.000000 0.934650 0.036980 -0.629057
O32   O     O_R   1.000000 0.463030 0.565470 -0.612633
O33   O     O_R   0.000000 0.934650 0.963020 -0.629035
O34   O     O_R   0.500000 0.434650 0.036980 -0.628512
O35   O     O_R   0.500000 0.434650 0.963020 -0.623219
O36   O     O_R   0.061420 0.000140 0.098400 -0.596774
O37   O     O_R   0.938580 0.000140 0.901600 -0.596695
O38   O     O_R   0.561420 0.500140 0.098400 -0.596668
O39   O     O_R   0.438580 0.500140 0.901600 -0.598146
O40   O     O_R   0.061430 0.000120 0.024480 -0.602692
O41   O     O_R   0.938570 0.000120 0.975520 -0.602709
O42   O     O_R   0.561430 0.500120 0.024480 -0.602730
O43   O     O_R   1.000000 0.463030 0.434530 -0.612705
O44   O     O_R   0.438570 0.500120 0.975520 -0.601253
O45   O     O_R   0.999990 0.065630 0.036960 -0.571574
O46   O     O_R   0.000010 0.065630 0.963040 -0.571518
O47   O     O_R   0.499990 0.565630 0.036960 -0.571699
O48   O     O_R   0.500010 0.565630 0.963040 -0.571412
O49   O     O_R   0.465320 0.065470 0.965350 -0.620300
O50   O     O_R   0.534680 0.065470 0.034650 -0.620392
O51   O     O_R   0.965320 0.565470 0.965350 -0.620426
O52   O     O_R   0.034680 0.565470 0.034650 -0.620422
O53   O     O_2   0.337065 0.967088 0.247922 -0.182338
O54   O     O_R   0.465320 0.999980 0.899860 -0.624890
O55   O     O_2   0.315118 0.892157 0.243393 -0.306551
O56   O     O_3   0.266609 0.939831 0.145380 -0.494214
O57   O     O_2   0.662921 0.966776 0.751950 -0.182328
O58   O     O_2   0.684835 0.891909 0.756183 -0.306538
O59   O     O_3   0.733364 0.939383 0.854385 -0.494254
O60   O     O_2   0.837065 0.467093 0.247918 -0.182332
O61   O     O_2   0.815122 0.392161 0.243388 -0.306547
O62   O     O_3   0.766611 0.439834 0.145375 -0.494176
O63   O     O_2   0.162924 0.465507 0.751479 -0.182296
O64   O     O_2   0.184861 0.390902 0.754690 -0.306605
O65   O     O_R   0.534680 0.999980 0.100140 -0.624838
O66   O     O_3   0.233376 0.437691 0.853537 -0.494318
O67   O     O_2   0.590569 0.066279 0.831956 -0.280819
O68   O     O_2   0.552745 0.119146 0.747627 -0.257364
O69   O     O_3   0.520857 0.099425 0.792203 -0.551321
O70   O     O_2   0.409430 0.066280 0.168040 -0.280762
O71   O     O_2   0.447259 0.119156 0.252354 -0.257301
O72   O     O_3   0.479138 0.099451 0.207770 -0.551273
O73   O     O_2   0.090583 0.566259 0.831968 -0.281044
O74   O     O_2   0.052766 0.619134 0.747650 -0.257530
O75   O     O_3   0.020877 0.599417 0.792225 -0.551235
O76   O     O_R   0.965320 0.499980 0.899860 -0.624886
O77   O     O_2   0.909431 0.566282 0.168041 -0.280710
O78   O     O_2   0.947260 0.619157 0.252356 -0.257324
O79   O     O_3   0.979139 0.599453 0.207772 -0.551273
O80   O     O_2   0.090241 0.098224 0.048615 -0.298992
O81   O     O_2   0.125213 0.155186 0.127400 -0.302444
O82   O     O_3   0.085781 0.093712 0.129673 -0.562005
O83   O     O_2   0.909736 0.098199 0.951330 -0.299038
O84   O     O_2   0.874793 0.155160 0.872541 -0.302549
O85   O     O_3   0.914236 0.093695 0.870314 -0.561967
O86   O     O_2   0.590245 0.598214 0.048622 -0.299073
O87   O     O_R   0.034680 0.499980 0.100140 -0.624884
O88   O     O_2   0.625226 0.655172 0.127413 -0.302440
O89   O     O_3   0.585788 0.593704 0.129683 -0.562065
O90   O     O_2   0.409726 0.598219 0.951306 -0.298920
O91   O     O_2   0.374810 0.655186 0.872528 -0.302880
O92   O     O_3   0.414259 0.593714 0.870325 -0.561527
O93   O     O_2   0.167992 0.928869 0.233180 -0.317859
O94   O     O_2   0.241475 0.905064 0.309303 -0.331425
O95   O     O_3   0.212874 0.950944 0.345486 -0.534005
O96   O     O_2   0.831979 0.929117 0.766553 -0.317670
O97   O     O_2   0.758486 0.905334 0.690335 -0.331443
O98   O     O_R   0.534680 0.999980 0.969230 -0.619790
O99   O     O_3   0.787109 0.951452 0.654334 -0.533990
O100  O     O_2   0.667993 0.428856 0.233167 -0.317576
O101  O     O_2   0.741476 0.405053 0.309291 -0.331417
O102  O     O_3   0.712872 0.450924 0.345474 -0.533980
O103  O     O_2   0.331973 0.430038 0.765586 -0.317153
O104  O     O_2   0.258477 0.406312 0.688994 -0.331414
O105  O     O_3   0.287138 0.453335 0.653702 -0.533735
O106  O     O_2   0.338418 0.061015 0.261928 -0.249233
O107  O     O_2   0.273977 0.033029 0.162759 -0.198464
O108  O     O_3   0.274571 0.113525 0.192207 -0.529339
S1    S     S_3+6 0.299841 0.938781 0.221855 0.076325
S2    S     S_3+6 0.913129 0.126444 0.914051 0.005589
S3    S     S_3+6 0.586881 0.626456 0.085923 0.005592
S4    S     S_3+6 0.413139 0.626461 0.914048 0.005611
S5    S     S_3+6 0.211780 0.942394 0.289474 0.000719
S6    S     S_3+6 0.788198 0.942695 0.710310 0.000765
S7    S     S_3+6 0.711779 0.442380 0.289464 0.000811
S8    S     S_3+6 0.288200 0.443801 0.709523 0.001150
S9    S     S_3+6 0.291301 0.061360 0.216486 0.082591
S10   S     S_3+6 0.708721 0.061093 0.783751 0.082574
S11   S     S_3+6 0.791300 0.561360 0.216487 0.082599
S12   S     S_3+6 0.700132 0.938505 0.777906 0.076325
S13   S     S_3+6 0.208711 0.560025 0.784604 0.082523
S14   S     S_3+6 0.799843 0.438784 0.221850 0.076337
S15   S     S_3+6 0.200144 0.437409 0.777050 0.076295
S16   S     S_3+6 0.547857 0.081612 0.774888 0.042979
S17   S     S_3+6 0.452144 0.081626 0.225099 0.043039
S18   S     S_3+6 0.047873 0.581600 0.774904 0.042859
S19   S     S_3+6 0.952145 0.581628 0.225100 0.043054
S20   S     S_3+6 0.086872 0.126465 0.085911 0.005646
Zn1   Zn    Zn3+2 0.500000 0.950630 0.500000 1.023266
Zn2   Zn    Zn3+2 0.546310 0.999980 0.046300 0.982189
Zn3   Zn    Zn3+2 0.953690 0.499980 0.953700 0.982205
Zn4   Zn    Zn3+2 0.046310 0.499980 0.046300 0.982228
Zn5   Zn    Zn3+2 1.000000 0.450630 0.500000 1.023544
Zn6   Zn    Zn3+2 0.500000 0.049370 0.500000 1.050048
Zn7   Zn    Zn3+2 1.000000 0.549370 0.500000 1.049731
Zn8   Zn    Zn3+2 1.000000 0.000140 0.049370 1.067223
Zn9   Zn    Zn3+2 0.000000 0.000140 0.950630 1.067308
Zn10  Zn    Zn3+2 0.500000 0.500140 0.049370 1.068061
Zn11  Zn    Zn3+2 0.500000 0.500140 0.950630 1.072032
Zn12  Zn    Zn3+2 0.453690 0.999980 0.953700 0.982206

loop_
_geom_bond_atom_site_label_1
_geom_bond_atom_site_label_2
_ccdc_geom_bond_type
O32   Zn5   S    
C18   C21   A    
C142  C146  A    
C9    C169  S    
O75   S18   S    
C91   H16   S    
C151  C184  S    
C4    C87   S    
H49   O99   S    
C86   H160  S    
C46   C62   T    
C80   H133  S    
C57   C76   S    
C24   C69   S    
C154  C158  A    
C145  C167  A    
C1    O18   A    
C33   C95   S    
C11   C192  A    
C24   C171  S    
O74   S18   D    
O71   S17   D    
C100  H53   S    
C8    C168  S    
O100  S7    D    
C105  O19   A    
C152  C156  A    
O91   S4    D    
C14   H98   S    
C186  O76   A    
C145  H74   S    
C151  C155  A    
C26   C59   S    
C13   C160  S    
C183  O51   A    
C178  S12   S    
C81   H136  S    
C181  O49   A    
C43   H105  S    
O83   S2    D    
O44   Zn10  S    
O82   S20   S    
C47   H109  S    
C184  O98   A    
O14   Zn12  S    
C63   C173  S    
C3    H96   S    
C50   C53   A    
C184  O54   A    
O56   S1    S    
C24   H122  S    
O53   S1    D    
O17   Zn4   S    
O108  S9    S    
O34   Zn10  S    
C17   C21   A    
O33   Zn9   S    
C1    C120  S    
C96   H34   S    
C82   H137  S    
C83   H151  S    
C114  C141  A    
C60   S8    S    
C112  S17   S    
C43   C54   A    
O5    S10   S    
C16   C20   A    
C136  O26   A    
O40   Zn9   S    
C27   H118  S    
O37   Zn9   S    
C104  H63   S    
C30   C92   S    
O20   Zn7   S    
C171  H139  S    
C148  C153  A    
C64   C174  S    
O77   S19   D    
O7    S11   D    
C91   H14   S    
C111  C137  A    
C68   C77   S    
O66   S15   S    
O92   S4    S    
C170  O36   A    
C48   C96   S    
C93   H22   S    
O15   Zn2   S    
C10   C191  A    
O87   Zn4   S    
O18   Zn6   S    
C5    C8    A    
C119  C123  A    
C33   C38   A    
C103  H59   S    
C12   H97   S    
O93   S5    D    
C142  C164  A    
C37   S3    S    
C105  O21   A    
C173  O38   A    
C127  O43   A    
C45   C50   A    
C70   H1    S    
O54   Zn12  S    
C136  O30   A    
C34   S20   S    
C83   H152  S    
C58   S6    S    
C146  H75   S    
C138  C182  S    
C3    C11   A    
C49   C97   S    
C48   C52   A    
C129  C137  A    
C1    O1    A    
C73   C77   S    
C182  H119  S    
C23   H114  S    
C87   H6    S    
C157  C162  A    
C161  C165  A    
H67   O8    S    
C25   H115  S    
C65   C79   S    
C26   H116  S    
C109  C135  S    
C85   H158  S    
O89   S3    S    
C92   H18   S    
C178  H85   S    
C150  H78   S    
C6    C9    A    
C132  H68   S    
C188  O15   A    
C17   H101  S    
C185  O2    A    
O21   Zn1   S    
O104  S8    D    
C19   H103  S    
C33   C42   A    
C96   H36   S    
C88   H7    S    
C83   H149  S    
O94   S5    D    
O103  S8    D    
C37   C40   A    
C69   C180  S    
O64   S15   D    
C84   H153  S    
O86   S3    D    
C118  C122  A    
C139  C165  S    
C73   H95   S    
C189  O16   A    
C143  C165  A    
C115  H150  S    
C190  H92   S    
C78   H129  S    
H147  O75   S    
C30   C41   A    
C131  C140  A    
C83   C124  S    
C138  H106  S    
O105  S8    S    
C145  C150  A    
C100  H52   S    
O67   S16   D    
O68   S16   D    
C89   H10   S    
C119  H24   S    
O11   S13   S    
C189  O17   A    
C5    C88   S    
C85   C126  S    
C169  O34   A    
O84   S2    D    
O36   Zn8   S    
C46   C75   S    
C137  C164  S    
C177  S1    S    
C57   C63   T    
C65   C182  S    
C113  S18   S    
C50   C98   S    
C30   C34   A    
C155  C159  A    
C34   C39   A    
C45   H108  S    
C4    C190  A    
C5    C191  A    
C39   C175  S    
C192  H94   S    
C172  O37   A    
C40   C176  S    
O12   Zn4   S    
H66   O5    S    
C96   H37   S    
H32   O89   S    
C94   H25   S    
C78   H127  S    
C51   C53   A    
O23   Zn1   S    
C121  C125  A    
C123  C127  S    
C97   H38   S    
C98   H42   S    
C35   C61   T    
C32   C37   A    
H48   O95   S    
C82   H140  S    
O102  S7    S    
O96   S6    D    
C38   S4    S    
C158  C163  A    
C135  O25   A    
C156  C161  A    
O9    S13   D    
C78   H130  S    
C191  H93   S    
C67   C101  S    
C149  H124  S    
H69   O11   S    
C132  C141  A    
H145  O69   S    
C31   C41   A    
O48   Zn11  S    
C31   C36   A    
C148  H77   S    
O107  S9    D    
C36   C39   A    
C102  H55   S    
C147  H76   S    
C2    C66   S    
C91   H15   S    
C70   C177  S    
C172  O41   A    
C84   H155  S    
O90   S4    D    
C59   C103  S    
C23   C65   S    
C90   C108  T    
C99   H44   S    
C175  O46   A    
C65   C177  S    
C75   C149  S    
C15   H99   S    
O81   S20   D    
O28   Zn6   S    
C100  H54   S    
C146  C151  A    
C44   C54   A    
O6    S11   D    
O10   S13   D    
O2    Zn12  S    
C45   C55   A    
C170  O40   A    
H30   O82   S    
O49   Zn12  S    
C95   H27   S    
C80   H131  S    
O79   S19   S    
C159  C164  A    
O60   S14   D    
C52   C188  S    
C60   C104  S    
C53   C189  S    
O24   Zn1   S    
C131  H57   S    
C81   H135  S    
C35   C74   S    
C32   C94   S    
O72   S17   S    
H143  O62   S    
C138  H123  S    
O13   Zn3   S    
C66   C90   S    
C36   S2    S    
C15   C19   A    
C74   C138  S    
O4    S10   D    
C94   H23   S    
C95   H29   S    
O88   S3    D    
C116  C122  S    
C12   C28   A    
C71   C178  S    
C2    S10   S    
C3    C7    A    
C27   C60   S    
C179  S14   S    
C157  H81   S    
C112  C117  A    
C161  H89   S    
H142  O59   S    
C97   H40   S    
C188  O14   A    
C153  C186  S    
C101  C109  T    
C82   H138  S    
C133  O27   A    
C41   C55   S    
O69   S16   S    
C162  C166  A    
C73   C180  S    
C110  C136  S    
C130  H46   S    
C179  H86   S    
C12   C17   A    
C58   C102  S    
C72   C81   S    
C4    C8    A    
C99   H47   S    
C18   H102  S    
C127  O22   A    
O42   Zn11  S    
O41   Zn8   S    
C130  C139  A    
O70   S17   D    
C15   C29   A    
C140  C166  S    
C141  C167  S    
C56   C74   S    
C86   H159  S    
C25   C66   S    
C93   H21   S    
C118  H13   S    
O25   Zn5   S    
O58   S12   D    
C116  O32   A    
C47   C51   A    
O35   Zn11  S    
C86   C128  S    
C144  C166  A    
C143  C147  A    
C108  C134  S    
O101  S7    D    
H33   O92   S    
O73   S18   D    
O62   S14   S    
C49   C52   A    
C7    C91   S    
C129  H35   S    
C93   H20   S    
C95   H28   S    
O38   Zn10  S    
C79   C107  T    
O55   S1    D    
H144  O66   S    
C183  O52   A    
C181  O50   A    
C20   C22   A    
C160  H128  S    
C20   H104  S    
C143  H71   S    
C103  H60   S    
C144  H72   S    
C64   C68   T    
C73   C82   S    
C177  H83   S    
O65   Zn2   S    
H50   O102  S    
C84   C125  S    
O26   Zn5   S    
O80   S20   D    
C187  O13   A    
C72   H84   S    
C168  O31   A    
C85   H157  S    
C135  O29   A    
C155  H79   S    
C69   C106  S    
C116  O20   A    
C156  H80   S    
C114  S19   S    
C154  C187  S    
C88   H8    S    
O30   Zn7   S    
C107  C133  S    
C23   H110  S    
C67   C179  S    
C42   C54   S    
C38   C40   A    
C10   C29   S    
O97   S6    D    
O27   Zn6   S    
C84   H154  S    
C11   C28   S    
O61   S14   D    
C85   H156  S    
C59   S7    S    
C124  C129  A    
C147  C152  A    
C153  C157  A    
O59   S12   S    
C99   H45   S    
C176  O48   A    
C111  S16   S    
C6    C192  A    
C32   C42   A    
C61   C170  S    
C142  H70   S    
C174  O39   A    
H65   O108  S    
C44   C49   A    
O1    Zn1   S    
C70   C78   S    
C160  H125  S    
C14   C18   A    
O52   Zn4   S    
C144  C148  A    
C23   C56   S    
H146  O72   S    
O45   Zn8   S    
C21   C181  S    
C66   C178  S    
C10   C190  A    
C26   C67   S    
O47   Zn10  S    
C87   H4    S    
C186  O12   A    
O76   Zn3   S    
C94   H26   S    
C104  H62   S    
C169  O35   A    
C117  C121  A    
C70   C74   S    
H31   O85   S    
O19   Zn6   S    
C117  H2    S    
C125  C130  A    
O46   Zn9   S    
C98   H43   S    
C171  H126  S    
C88   H9    S    
H148  O79   S    
C43   C48   A    
C77   C171  S    
C13   S11   S    
C2    C149  S    
C56   S5    S    
C71   H73   S    
O16   Zn3   S    
C2    H120  S    
C16   H100  S    
C187  O87   A    
C159  H88   S    
C112  C139  A    
C92   H17   S    
C133  O23   A    
C180  H87   S    
C128  C132  A    
H141  O56   S    
C71   C80   S    
C58   C75   S    
C158  H82   S    
C162  H90   S    
C51   C99   S    
C60   C77   S    
C19   C22   A    
C102  H56   S    
C176  O47   A    
O99   S6    S    
C174  O44   A    
O51   Zn3   S    
C180  S15   S    
O50   Zn2   S    
C16   C29   A    
C31   C93   S    
C27   H113  S    
C122  C126  A    
C163  C167  A    
C22   C183  S    
C86   H3    S    
C175  O45   A    
O22   Zn7   S    
C89   H12   S    
C113  C140  A    
C105  C121  S    
C72   C76   S    
O43   Zn5   S    
O95   S5    S    
H51   O105  S    
C134  O24   A    
C173  O42   A    
C89   H11   S    
C163  H91   S    
O63   S15   D    
C80   H132  S    
O39   Zn11  S    
C13   H121  S    
C25   C58   S    
C56   C100  S    
C185  O65   A    
C47   C55   A    
C106  C110  T    
C81   H134  S    
C7    C9    A    
C76   C160  S    
C102  H58   S    
C13   C67   S    
O78   S19   D    
C114  C119  A    
O8    S11   S    
C44   H107  S    
C152  C185  S    
O29   Zn7   S    
C27   C69   S    
C149  H117  S    
C182  S9    S    
C168  O33   A    
O3    S10   D    
C134  O28   A    
C6    C89   S    
C62   C172  S    
C25   H111  S    
C104  H64   S    
C26   H112  S    
C24   S13   S    
O98   Zn2   S    
O85   S2    S    
C71   C75   S    
C123  C128  A    
C97   H39   S    
C98   H41   S    
C126  C131  A    
C103  H61   S    
C59   C76   S    
O31   Zn8   S    
O106  S9    D    
C113  C118  A    
C115  C120  A    
C150  C154  A    
C87   H5    S    
C92   H19   S    
C111  C115  A    
C72   C179  S    
C14   C28   A    
O57   S12   D    
C120  C124  A    
