data_mof_unit_17308.cif
_audit_creation_date              2012-12-10T18:23:18-0500
_audit_creation_method            fapswitch 2.2
_symmetry_space_group_name_H-M    P1
_symmetry_Int_Tables_number       1
_space_group_crystal_system       triclinic
_cell_length_a                    27.812758
_cell_length_b                    10.610074
_cell_length_c                    9.464774
_cell_angle_alpha                 90.074118
_cell_angle_beta                  90.174624
_cell_angle_gamma                 90.083422
_cell_volume                      2792.99317831

loop_
_atom_site_label
_atom_site_type_symbol
_atom_type_description
_atom_site_fract_x
_atom_site_fract_y
_atom_site_fract_z
_atom_type_partial_charge
C1    C     C_R   0.500022 0.259564 0.499762 0.779836
C2    C     C_R   0.500002 0.740436 0.500235 0.771520
C3    C     C_R   0.101824 0.504680 0.532792 -0.092004
C4    C     C_R   0.897543 0.519122 0.532880 -0.094722
C5    C     C_R   0.126840 0.388580 0.546534 -0.143502
C6    C     C_R   0.872378 0.630906 0.495418 -0.143642
C7    C     C_R   0.099759 0.276582 0.569925 0.409171
C8    C     C_R   0.899472 0.741650 0.464938 0.401717
C9    C     C_R   0.128003 0.617744 0.516265 -0.035095
C10   C     C_R   0.871504 0.409235 0.567995 -0.008908
C11   C     C_R   0.354430 0.501711 0.500977 -0.073555
C12   C     C_R   0.645245 0.503755 0.502413 -0.081059
C13   C     C_R   0.973193 0.402032 0.567611 0.084973
C14   C     C_R   0.026251 0.624997 0.514668 0.060417
C15   C     C_R   0.975132 0.626755 0.505792 -0.011312
C16   C     C_R   0.024227 0.396880 0.558386 -0.012422
C17   C     C_R   0.948746 0.516162 0.535535 0.080703
C18   C     C_R   0.050641 0.508741 0.535512 0.080495
C19   C     C_R   0.945606 0.296744 0.609646 -0.187414
C20   C     C_R   0.054012 0.736263 0.504761 -0.173608
C21   C     C_R   0.895876 0.300216 0.608696 -0.091872
C22   C     C_R   0.103754 0.732338 0.505128 -0.069876
C23   C     C_R   0.407543 0.500945 0.499839 0.826563
C24   C     C_R   0.592350 0.500107 0.500317 0.831590
C25   C     C_R   0.049618 0.282552 0.570630 -0.282603
C26   C     C_R   0.949636 0.736054 0.466849 -0.284359
C27   C     C_3   0.539517 0.042295 0.567168 -0.158041
C28   C     C_3   0.460533 0.957703 0.432810 -0.158199
C29   C     C_3   0.539556 0.957976 0.433747 -0.162146
C30   C     C_3   0.460494 0.042019 0.566233 -0.166161
C31   C     C_3   0.500016 0.877484 0.500869 0.009688
C32   C     C_3   0.500032 0.122515 0.499114 0.012037
C33   C     C_3   0.499978 0.959515 0.634443 -0.123439
C34   C     C_3   0.500073 0.040483 0.365537 -0.115833
C35   C     C_3   0.504598 0.614899 0.051369 -0.297876
C36   C     C_3   0.495301 0.385159 0.948560 -0.328269
C37   C     C_3   0.465379 0.566261 0.950454 0.425888
C38   C     C_3   0.534505 0.433652 0.049351 0.428948
C39   C     C_3   0.539144 0.545985 0.951601 0.425643
C40   C     C_3   0.460806 0.453969 0.048422 0.434972
C41   C     C_R   0.177718 0.390742 0.533243 0.591373
C42   C     C_R   0.821351 0.624746 0.487866 0.590829
C43   C     C_R   0.178224 0.614625 0.512676 0.560685
C44   C     C_R   0.821303 0.410395 0.563210 0.563640
C45   C     C_R   0.276830 0.537448 0.388410 -0.195583
C46   C     C_R   0.723120 0.446020 0.406393 -0.194187
C47   C     C_R   0.327366 0.538346 0.381097 0.404043
C48   C     C_R   0.672630 0.440413 0.399218 0.385278
C49   C     C_R   0.330376 0.466265 0.625325 -0.272456
C50   C     C_R   0.668655 0.570946 0.610617 -0.277902
C51   C     C_R   0.280404 0.466241 0.631077 -0.094588
C52   C     C_R   0.718638 0.575985 0.616461 -0.098136
C53   C     C_R   0.253458 0.501763 0.512905 0.299114
C54   C     C_R   0.745982 0.513363 0.514699 0.302432
Cu1   Cu    Cu3+1 0.500010 0.499990 0.643150 1.022318
Cu2   Cu    Cu3+1 0.499990 0.500010 0.356850 1.063074
H1    H     H_    0.350233 0.437795 0.718585 0.188070
H2    H     H_    0.648211 0.620870 0.690048 0.215976
H3    H     H_    0.571795 0.080151 0.622041 0.151608
H4    H     H_    0.428259 0.919828 0.377925 0.157515
H5    H     H_    0.499933 0.923749 0.744643 0.162140
H6    H     H_    0.500123 0.076254 0.255338 0.162396
H7    H     H_    0.508544 0.710481 0.097811 0.161800
H8    H     H_    0.491381 0.289579 0.902092 0.164364
H9    H     H_    0.262512 0.438933 0.727808 0.164391
H10   H     H_    0.736201 0.628048 0.700533 0.166777
H11   H     H_    0.744810 0.397400 0.328693 0.151288
H12   H     H_    0.255485 0.565033 0.297685 0.146942
H13   H     H_    0.876533 0.216101 0.640103 0.210454
H14   H     H_    0.123234 0.820353 0.495770 0.248766
H15   H     H_    0.961282 0.210375 0.647515 0.137745
H16   H     H_    0.038517 0.829089 0.499881 0.182767
H17   H     H_    0.030862 0.194282 0.577738 0.184782
H18   H     H_    0.968350 0.819208 0.433175 0.184984
H19   H     H_    0.571865 0.920346 0.379627 0.149659
H20   H     H_    0.428188 0.079658 0.620364 0.149252
N1    N     N_R   0.201877 0.502437 0.519840 -0.469102
N2    N     N_R   0.797491 0.516420 0.522547 -0.470875
N3    N     N_3   0.500040 0.499970 0.858290 -0.192003
N4    N     N_3   0.499960 0.500030 0.141710 -0.196805
O1    O     O_R   0.500020 0.316850 0.620870 -0.603366
O2    O     O_R   0.499980 0.683150 0.379130 -0.601653
O3    O     O_R   0.500000 0.316860 0.379090 -0.537109
O4    O     O_R   0.500000 0.683140 0.620910 -0.539722
O5    O     O_R   0.430270 0.500020 0.620880 -0.562717
O6    O     O_R   0.569730 0.499980 0.379120 -0.506821
O7    O     O_R   0.430250 0.500030 0.379090 -0.483280
O8    O     O_R   0.569750 0.499970 0.620910 -0.547757
O9    O     O_2   0.203242 0.283213 0.529031 -0.429448
O10   O     O_2   0.795296 0.723774 0.443275 -0.433223
O11   O     O_2   0.796259 0.306030 0.598625 -0.498301
O12   O     O_2   0.203406 0.723088 0.501910 -0.493378
O13   O     O_3   0.427663 0.636040 0.892152 -0.699723
H21   H     H_    0.409632 0.669846 0.973992 0.327822
O14   O     O_3   0.571890 0.362566 0.106962 -0.651254
H22   H     H_    0.589746 0.328620 0.024862 0.320009
O15   O     O_3   0.581707 0.594339 0.895431 -0.716013
H23   H     H_    0.601862 0.616999 0.978207 0.320604
O16   O     O_3   0.418350 0.404986 0.104743 -0.663118
H24   H     H_    0.397874 0.384104 0.022055 0.314863
S1    S     S_3+6 0.125257 0.126116 0.606871 0.048516
O17   O     O_2   0.148725 0.075431 0.475787 -0.200450
O18   O     O_2   0.162254 0.137176 0.722452 -0.230151
O19   O     O_3   0.082883 0.022830 0.658760 -0.569643
H25   H     H_    0.074248 0.049060 0.755903 0.354796
S2    S     S_3+6 0.874053 0.892390 0.428054 0.066769
O20   O     O_2   0.847852 0.887552 0.289029 -0.183397
O21   O     O_2   0.839391 0.928779 0.542677 -0.235739
O22   O     O_3   0.916757 0.004528 0.417585 -0.521573
H26   H     H_    0.927893 0.017295 0.516081 0.330148
O23   O     O_3   0.649631 0.370796 0.295920 -0.673110
H27   H     H_    0.674036 0.332453 0.232990 0.333656
O24   O     O_3   0.350625 0.577134 0.259910 -0.691908
H28   H     H_    0.326390 0.599122 0.186962 0.324598

loop_
_geom_bond_atom_site_label_1
_geom_bond_atom_site_label_2
_ccdc_geom_bond_type
C41   O9    S    
Cu1   Cu2   S    
O13   H21   S    
C27   C29   S    
C8    C26   A    
C14   C18   A    
C19   H15   S    
O14   H22   S    
C12   C48   A    
C40   O16   S    
O15   H23   S    
C49   H1    S    
C27   C33   S    
C37   N3    S    
S1    O17   D    
C38   N4    S    
C11   C49   A    
C35   C37   S    
C37   C40   S    
C41   N1    A    
C38   C39   S    
C9    C22   A    
C39   O15   S    
S2    O20   D    
C1    O1    A    
C35   N4    S    
C34   H6    S    
Cu1   N3    S    
C3    C18   A    
C47   O24   S    
C51   H9    S    
Cu1   O8    S    
C11   C47   A    
O23   H27   S    
C49   C51   A    
C38   O14   S    
C50   C52   A    
C40   N4    S    
Cu1   O1    S    
C45   C47   A    
C28   C34   S    
S1    O18   D    
C23   O7    A    
O19   H25   S    
C52   C54   A    
C28   H4    S    
C10   C21   A    
C46   C48   A    
C9    C43   A    
C13   C19   A    
C10   C44   A    
C50   H2    S    
C14   C20   A    
C36   C40   S    
C4    C6    A    
C5    C7    A    
C15   C26   A    
C6    C8    A    
C3    C5    A    
C29   C34   S    
C1    C32   S    
C21   H13   S    
C2    C31   S    
C42   O10   S    
C39   N3    S    
Cu1   O5    S    
C53   N1    S    
C3    C9    A    
C30   H20   S    
Cu2   O6    S    
O16   H24   S    
Cu2   N4    S    
C46   C54   A    
C45   H12   S    
C31   C33   S    
C2    O4    A    
C37   O13   S    
C24   O8    A    
C44   O11   S    
C4    C17   A    
C16   C18   A    
C20   C22   A    
C42   N2    A    
S1    O19   S    
C6    C42   A    
C2    O2    A    
C1    O3    A    
C4    C10   A    
C36   C38   S    
C52   H10   S    
Cu2   O3    S    
O24   H28   S    
C16   C25   A    
C15   C17   A    
C5    C41   A    
C30   C33   S    
C19   C21   A    
C27   C32   S    
C28   C31   S    
Cu2   O7    S    
C36   N3    S    
C8    S2    S    
C12   C50   A    
Cu2   O2    S    
C29   H19   S    
C43   N1    A    
C12   C24   S    
C43   O12   S    
C7    C25   A    
C13   C17   A    
C44   N2    A    
C23   O5    A    
C28   C30   S    
C29   C31   S    
C27   H3    S    
O22   H26   S    
C30   C32   S    
S2    O21   D    
C35   C39   S    
C11   C23   S    
C26   H18   S    
C25   H17   S    
C45   C53   A    
C46   H11   S    
C48   O23   S    
C33   H5    S    
C7    S1    S    
C13   C16   A    
C14   C15   A    
C20   H16   S    
C35   H7    S    
C51   C53   A    
Cu1   O4    S    
C36   H8    S    
C24   O6    A    
C22   H14   S    
C32   C34   S    
C54   N2    S    
S2    O22   S    
