data_mof_unit_31755.cif
_audit_creation_date              2012-12-10T17:54:19-0500
_audit_creation_method            fapswitch 2.2
_symmetry_space_group_name_H-M    P1
_symmetry_Int_Tables_number       1
_space_group_crystal_system       triclinic
_cell_length_a                    27.727808
_cell_length_b                    10.714667
_cell_length_c                    9.868233
_cell_angle_alpha                 89.346176
_cell_angle_beta                  90.196417
_cell_angle_gamma                 91.708465
_cell_volume                      2930.28701

loop_
_atom_site_label
_atom_site_type_symbol
_atom_type_description
_atom_site_fract_x
_atom_site_fract_y
_atom_site_fract_z
_atom_type_partial_charge
C1    C     C_R   0.502942 0.259780 0.501897 0.882999
C2    C     C_R   0.277617 0.475478 0.619687 -0.073274
C3    C     C_R   0.252968 0.476592 0.495982 0.310460
C4    C     C_R   0.101749 0.473686 0.489639 -0.053702
C5    C     C_R   0.125900 0.358875 0.495344 -0.098987
C6    C     C_R   0.098248 0.245542 0.497064 0.001028
C7    C     C_R   0.128791 0.587285 0.482385 -0.027166
C8    C     C_R   0.353360 0.491766 0.498842 -0.042740
C9    C     C_R   0.646645 0.498319 0.500990 -0.045058
C10   C     C_R   0.972161 0.364536 0.487909 0.057042
C11   C     C_R   0.976512 0.594211 0.505318 0.048381
C12   C     C_R   0.406033 0.498427 0.499761 0.864655
C13   C     C_R   0.949115 0.480594 0.498221 0.072884
C14   C     C_R   0.943011 0.254974 0.471155 -0.208394
C15   C     C_R   0.893068 0.258935 0.471022 -0.133083
C16   C     C_R   0.870237 0.372018 0.487094 -0.023272
C17   C     C_R   0.898081 0.483214 0.500895 -0.053052
C18   C     C_R   0.874781 0.597141 0.516932 -0.021247
C19   C     C_R   0.824363 0.597693 0.518471 0.506047
C20   C     C_R   0.819885 0.376959 0.488317 0.506888
C21   C     C_R   0.722145 0.502954 0.624816 -0.099480
C22   C     C_R   0.672094 0.505990 0.624109 -0.212549
C23   C     C_R   0.494808 0.738808 0.499793 0.891786
C24   C     C_R   0.671936 0.487783 0.378780 -0.212393
C25   C     C_R   0.721976 0.484342 0.379937 -0.102106
C26   C     C_R   0.746986 0.491846 0.502855 0.322943
C27   C     C_R   0.023297 0.361964 0.493291 0.034480
C28   C     C_R   0.050626 0.475782 0.491724 0.078021
C29   C     C_R   0.027301 0.592187 0.492794 0.036742
C30   C     C_R   0.048017 0.248839 0.499509 -0.259149
C31   C     C_R   0.105411 0.700595 0.474601 -0.099627
C32   C     C_R   0.952037 0.706390 0.526086 -0.210848
C33   C     C_R   0.902113 0.707592 0.531420 -0.134202
C34   C     C_R   0.593973 0.500053 0.500252 0.882277
C35   C     C_R   0.055653 0.703281 0.479516 -0.192489
C36   C     C_R   0.509607 0.107805 0.761970 -0.158367
C37   C     C_R   0.494310 0.044826 0.879357 -0.143923
C38   C     C_R   0.468914 0.931617 0.869476 -0.119248
C39   C     C_R   0.463095 0.875977 0.743367 -0.119505
C40   C     C_R   0.482725 0.933960 0.625126 0.099696
C41   C     C_R   0.499255 0.058119 0.631799 0.107767
C42   C     C_R   0.504495 0.125717 0.507373 -0.116719
C43   C     C_R   0.503321 0.064074 0.383272 -0.210790
C44   C     C_R   0.497021 0.937149 0.380553 -0.200781
C45   C     C_R   0.176828 0.363292 0.503815 0.535709
C46   C     C_R   0.488354 0.871215 0.501061 -0.127276
C47   C     C_R   0.436076 0.337420 0.141612 -0.223141
C48   C     C_R   0.404309 0.258386 0.071580 -0.237350
C49   C     C_R   0.404239 0.258802 0.931240 0.182568
C50   C     C_R   0.436182 0.337799 0.860555 -0.217452
C51   C     C_R   0.468548 0.419840 0.928186 0.121496
C52   C     C_R   0.468527 0.419812 0.073019 0.173083
C53   C     C_R   0.529966 0.577019 0.070972 -0.125015
C54   C     C_R   0.529947 0.576996 0.927546 -0.118202
C55   C     C_R   0.179010 0.585429 0.482510 0.515123
C56   C     C_R   0.278180 0.484241 0.373799 -0.089924
C57   C     C_R   0.328240 0.491622 0.374984 -0.207100
C58   C     C_R   0.327739 0.483028 0.621320 -0.189211
H1    H     H_    0.346318 0.482103 0.718042 0.170730
H2    H     H_    0.258870 0.485414 0.278236 0.145284
H3    H     H_    0.125557 0.788462 0.465517 0.205363
H4    H     H_    0.970461 0.794969 0.542045 0.147271
H5    H     H_    0.653141 0.481605 0.282585 0.162654
H6    H     H_    0.885020 0.795947 0.546743 0.190765
H7    H     H_    0.741402 0.476034 0.285604 0.138043
H8    H     H_    0.040455 0.794304 0.469414 0.156658
H9    H     H_    0.507956 0.113558 0.287567 0.171292
H10   H     H_    0.530885 0.192620 0.776203 0.170723
H11   H     H_    0.501320 0.085283 0.977792 0.140883
H12   H     H_    0.257867 0.469918 0.714148 0.146758
H13   H     H_    0.455043 0.885055 0.959796 0.144261
H14   H     H_    0.443072 0.787869 0.739368 0.162700
H15   H     H_    0.499965 0.890703 0.284065 0.168590
H16   H     H_    0.554395 0.639841 0.124576 0.147878
H17   H     H_    0.433953 0.331168 0.249040 0.223349
H18   H     H_    0.379682 0.196503 0.126985 0.188402
H19   H     H_    0.434734 0.331220 0.753290 0.225591
H20   H     H_    0.554344 0.639848 0.872778 0.152919
H21   H     H_    0.653425 0.514327 0.719662 0.161229
H22   H     H_    0.741687 0.508834 0.719842 0.138361
H23   H     H_    0.872384 0.172486 0.457896 0.193855
H24   H     H_    0.957463 0.164373 0.454171 0.143236
H25   H     H_    0.029075 0.159784 0.506247 0.152050
H26   H     H_    0.347158 0.497588 0.279173 0.170548
N1    N     N_R   0.201641 0.474875 0.494157 -0.361802
N2    N     N_R   0.798256 0.488684 0.503648 -0.359305
N3    N     N_R   0.499540 0.498800 0.142780 -0.116787
N4    N     N_R   0.499520 0.498720 0.857170 -0.119969
O1    O     O_R   0.500000 0.316780 0.614690 -0.651004
O2    O     O_2   0.792659 0.271248 0.474764 -0.548278
O3    O     O_2   0.205276 0.693363 0.472893 -0.539301
O4    O     O_2   0.801491 0.706136 0.533465 -0.549307
O5    O     O_R   0.500000 0.316750 0.385360 -0.638808
O6    O     O_R   0.428760 0.500030 0.614650 -0.644309
O7    O     O_R   0.428750 0.500010 0.385320 -0.639017
O8    O     O_R   0.500000 0.683250 0.614640 -0.627112
O9    O     O_R   0.500000 0.683220 0.385310 -0.617014
O10   O     O_R   0.571250 0.499990 0.614680 -0.621161
O11   O     O_R   0.571240 0.499970 0.385350 -0.618413
O12   O     O_2   0.201679 0.258501 0.524567 -0.500504
Zn1   Zn    Zn3+2 0.500000 0.500020 0.653130 0.931793
Zn2   Zn    Zn3+2 0.500000 0.499980 0.346870 0.942162
I1    I     I_    0.356015 0.139393 0.824424 -0.331718
C59   C     C_2   0.119510 0.120596 0.487927 0.989831
O13   O     O_2   0.108674 0.039370 0.571386 -0.635506
O14   O     O_R   0.149946 0.094013 0.379968 -0.746905
H27   H     H_    0.161659 0.005305 0.383840 0.357789

loop_
_geom_bond_atom_site_label_1
_geom_bond_atom_site_label_2
_ccdc_geom_bond_type
C10   C27   A    
C21   C26   A    
C37   H11   S    
C3    N1    S    
C41   C42   A    
C48   H18   S    
C53   H16   S    
C7    C55   A    
C19   N2    A    
C59   O14   S    
N4    Zn1   S    
C15   H23   S    
C53   C54   A    
C23   O8    A    
C40   C46   A    
C28   C29   A    
C36   C37   A    
C22   H21   S    
C5    C6    A    
C9    C22   A    
O14   H27   S    
C15   C16   A    
C56   C57   A    
C18   C19   A    
C30   H25   S    
C31   H3    S    
C55   O3    S    
C19   O4    S    
C8    C58   A    
O6    Zn1   S    
C16   C17   A    
C20   N2    A    
C39   H14   S    
C12   O7    A    
C6    C59   S    
C8    C12   S    
O9    Zn2   S    
O7    Zn2   S    
C16   C20   A    
O1    Zn1   S    
C23   C46   S    
C21   C22   A    
C27   C30   A    
C12   O6    A    
C36   C41   A    
C4    C7    A    
C59   O13   D    
C4    C28   A    
C44   C46   A    
C17   C18   A    
C7    C31   A    
C51   C52   A    
C25   H7    S    
C24   C25   A    
C10   C14   A    
C39   C40   A    
C35   H8    S    
C50   C51   A    
C58   H1    S    
C20   O2    S    
C45   O12   S    
C56   H2    S    
C55   N1    A    
C45   N1    A    
C43   C44   A    
C37   C38   A    
C8    C57   A    
N3    Zn2   S    
C3    C56   A    
C47   C48   A    
C26   N2    S    
C36   H10   S    
C34   O11   A    
C57   H26   S    
C53   N3    A    
C43   H9    S    
C48   C49   A    
C23   O9    A    
C11   C32   A    
C24   H5    S    
C9    C34   S    
C31   C35   A    
C42   C43   A    
C14   H24   S    
C50   H19   S    
C51   N4    A    
C38   H13   S    
C40   C41   A    
C1    O1    A    
C6    C30   A    
C52   N3    A    
C4    C5    A    
C10   C13   A    
O5    Zn2   S    
C49   I1    S    
C2    C58   A    
C9    C24   A    
C47   C52   A    
O10   Zn1   S    
C29   C35   A    
C13   C17   A    
C32   C33   A    
C2    C3    A    
C25   C26   A    
C47   H17   S    
C2    H12   S    
C54   N4    A    
C11   C13   A    
C38   C39   A    
C5    C45   A    
C33   H6    S    
C21   H22   S    
C34   O10   A    
C44   H15   S    
C18   C33   A    
C32   H4    S    
C1    C42   S    
O11   Zn2   S    
C11   C29   A    
C1    O5    A    
C49   C50   A    
C27   C28   A    
C14   C15   A    
O8    Zn1   S    
C54   H20   S    
