data_mof_unit_68037.cif
_audit_creation_date              2013-03-05T15:43:41-0500
_audit_creation_method            fapswitch 2.2
_symmetry_space_group_name_H-M    P1
_symmetry_Int_Tables_number       1
_space_group_crystal_system       triclinic
_cell_length_a                    14.211173
_cell_length_b                    16.512432
_cell_length_c                    7.172691
_cell_angle_alpha                 89.37067
_cell_angle_beta                  80.887761
_cell_angle_gamma                 89.404051
_cell_volume                      1661.7454758

loop_
_atom_site_label
_atom_site_type_symbol
_atom_site_description
_atom_site_fract_x
_atom_site_fract_y
_atom_site_fract_z
_atom_type_partial_charge
O1    O     O_R   0.337080 0.165770 0.524980 -0.564132
O2    O     O_R   0.662920 0.834230 0.475020 -0.573585
O3    O     O_R   0.662920 0.665770 0.475020 -0.557035
O4    O     O_R   0.337080 0.334230 0.524980 -0.574375
O5    O     O_R   0.348340 0.341430 0.191390 -0.567089
O6    O     O_R   0.651660 0.658570 0.808610 -0.561189
O7    O     O_R   0.651660 0.841430 0.808610 -0.570968
O8    O     O_R   0.348340 0.158570 0.191390 -0.556210
O9    O     O_R   0.165780 0.339950 0.082750 -0.551724
O10   O     O_R   0.834220 0.660050 0.917250 -0.519556
O11   O     O_R   0.834220 0.839950 0.917250 -0.554758
O12   O     O_R   0.165780 0.160050 0.082750 -0.520039
C1    C     C_R   0.369177 0.362508 0.355576 0.726146
C2    C     C_R   0.631083 0.637070 0.644434 0.790198
C3    C     C_R   0.631391 0.863204 0.643203 0.742849
C4    C     C_R   0.369333 0.137019 0.356660 0.784021
O13   O     O_3   0.191540 0.250000 0.407620 -0.257282
O14   O     O_3   0.808460 0.750000 0.592380 -0.275909
V1    V     V_3+5 0.262540 0.250000 0.108780 1.163787
V2    V     V_3+5 0.737460 0.750000 0.891220 1.160784
O15   O     O_R   0.154530 0.164290 0.756910 -0.539760
O16   O     O_R   0.845470 0.835710 0.243090 -0.578108
O17   O     O_R   0.845470 0.664290 0.243090 -0.534512
O18   O     O_R   0.154530 0.335710 0.756910 -0.542521
C5    C     C_R   0.130732 0.135135 0.934824 0.894545
C6    C     C_R   0.867172 0.866591 0.073139 0.876023
C7    C     C_R   0.867628 0.633668 0.067580 0.909867
C8    C     C_R   0.135656 0.368172 0.926328 0.870811
V3    V     V_3+5 0.240320 0.250000 0.616280 1.154307
V4    V     V_3+5 0.759680 0.750000 0.383720 1.145798
O19   O     O_3   0.311330 0.250000 0.867310 -0.306587
O20   O     O_3   0.688670 0.750000 0.132690 -0.300068
C9    C     C_3   0.076105 0.511570 0.077997 0.093883
C10   C     C_3   0.932901 0.495832 0.873435 0.115376
C11   C     C_3   0.928059 0.008580 0.925454 0.094964
C12   C     C_3   0.071181 0.997001 0.130529 0.134031
C13   C     C_3   0.045267 0.574223 0.933051 0.192518
C14   C     C_3   0.960868 0.431064 0.012784 0.100448
C15   C     C_3   0.951972 0.071365 0.072872 0.222909
C16   C     C_3   0.046273 0.930337 0.997666 0.100410
C17   C     C_3   0.939005 0.562778 0.022762 -0.173586
C18   C     C_3   0.068023 0.441844 0.941478 -0.161034
C19   C     C_3   0.059982 0.064442 0.983616 -0.192654
C20   C     C_3   0.937141 0.938559 0.065319 -0.189199
C21   C     C_3   0.968791 0.498368 0.157788 0.108303
C22   C     C_3   0.040708 0.503545 0.797787 0.147969
C23   C     C_3   0.037375 0.998097 0.849814 0.102533
C24   C     C_3   0.964135 0.000541 0.208325 0.154010
C25   C     C_2   0.679087 0.386710 0.428634 0.249402
C26   C     C_2   0.445494 0.477212 0.648857 0.126811
C27   C     C_2   0.360845 0.896854 0.610430 0.182876
C28   C     C_2   0.576526 0.013178 0.389025 0.171052
C29   C     C_2   0.598571 0.398920 0.553193 0.166234
C30   C     C_2   0.525456 0.464430 0.523191 0.102884
C31   C     C_2   0.436704 0.918539 0.481953 0.151245
C32   C     C_2   0.497471 0.992065 0.510684 0.079330
N1    N     N_2   0.427690 0.443242 0.831690 -0.408145
H1    H     H_    0.356050 0.433745 0.875288 0.234630
C33   C     C_3   0.468062 0.492437 0.962793 -0.197558
H2    H     H_    0.458622 0.461862 0.101161 0.136106
H3    H     H_    0.431939 0.552590 0.976506 0.119687
H4    H     H_    0.545541 0.501313 0.915360 0.130241
N2    N     N_2   0.695195 0.418679 0.243957 -0.436318
H5    H     H_    0.766431 0.426745 0.194942 0.252067
C34   C     C_3   0.648752 0.370714 0.119360 -0.203194
H6    H     H_    0.653597 0.401900 0.982178 0.183120
H7    H     H_    0.571991 0.362890 0.175915 0.086388
H8    H     H_    0.683258 0.310044 0.101111 0.158117
N3    N     N_2   0.607800 0.978241 0.211033 -0.422282
H9    H     H_    0.681052 0.977906 0.178646 0.236331
C35   C     C_3   0.563964 0.016224 0.064210 -0.198867
H10   H     H_    0.587429 0.984712 0.929252 0.152374
H11   H     H_    0.585252 0.080842 0.048258 0.118083
H12   H     H_    0.485118 0.012812 0.097861 0.125508
N4    N     N_2   0.338564 0.928517 0.793892 -0.439708
H13   H     H_    0.266555 0.936339 0.836176 0.236258
C36   C     C_3   0.381985 0.881607 0.927947 -0.190659
H14   H     H_    0.368608 0.912006 0.065436 0.181667
H15   H     H_    0.460249 0.877581 0.884104 0.097217
H16   H     H_    0.351446 0.819710 0.942319 0.146089
N5    N     N_2   0.542666 0.518921 0.363839 -0.454729
H17   H     H_    0.611815 0.538421 0.332258 0.246763
C37   C     C_3   0.475746 0.585067 0.350515 -0.260117
H18   H     H_    0.500202 0.621828 0.221843 0.134538
H19   H     H_    0.471322 0.624601 0.475527 0.088991
H20   H     H_    0.403771 0.561238 0.342381 0.127289
N6    N     N_2   0.579086 0.342069 0.707369 -0.446839
H21   H     H_    0.511068 0.319177 0.724097 0.230598
C38   C     C_3   0.649329 0.278921 0.725720 -0.251827
H22   H     H_    0.625141 0.241332 0.853080 0.119049
H23   H     H_    0.718969 0.305955 0.740048 0.190489
H24   H     H_    0.659316 0.239428 0.599719 0.138863
N7    N     N_2   0.469992 0.043311 0.671532 -0.442039
H25   H     H_    0.398168 0.055264 0.701524 0.249955
C39   C     C_3   0.524365 0.115680 0.690663 -0.250555
H26   H     H_    0.494287 0.146960 0.823372 0.132524
H27   H     H_    0.520527 0.157857 0.570457 0.098090
H28   H     H_    0.599936 0.099667 0.695686 0.146449
N8    N     N_2   0.461720 0.866075 0.322417 -0.449385
H29   H     H_    0.533278 0.854525 0.286442 0.257115
C40   C     C_3   0.407773 0.792135 0.315025 -0.247952
H30   H     H_    0.436090 0.758262 0.185035 0.112575
H31   H     H_    0.331355 0.806476 0.312858 0.171302
H32   H     H_    0.414040 0.753272 0.439609 0.107182
I1    I     I_    0.091881 0.678008 0.762784 -0.416518
I2    I     I_    0.906072 0.316932 0.957181 -0.454173
I3    I     I_    0.853141 0.153043 0.240378 -0.391493
I4    I     I_    0.117334 0.823062 0.074725 -0.460134
I5    I     I_    0.208687 0.550561 0.145108 -0.540165
I6    I     I_    0.800380 0.493726 0.760713 -0.517808
I7    I     I_    0.802814 0.051099 0.815899 -0.490865
I8    I     I_    0.205147 0.001451 0.239308 -0.519962
N9    N     N_2   0.930932 0.481586 0.351287 -0.418356
H33   H     H_    0.934457 0.530442 0.436805 0.244989
C41   C     C_3   0.961799 0.403316 0.416673 -0.121332
H34   H     H_    0.948844 0.398345 0.571240 0.165556
H35   H     H_    0.039343 0.393378 0.370525 0.151185
H36   H     H_    0.921415 0.354064 0.362730 0.165586
N10   N     N_2   0.092831 0.502641 0.607230 -0.413809
H37   H     H_    0.069398 0.544471 0.517942 0.246959
C42   C     C_3   0.196195 0.501600 0.591147 -0.102323
H38   H     H_    0.226109 0.561707 0.545741 0.150144
H39   H     H_    0.224902 0.455988 0.485845 0.131681
H40   H     H_    0.222158 0.486703 0.724792 0.089311
N11   N     N_2   0.084794 0.983238 0.659990 -0.423663
H41   H     H_    0.144136 0.018827 0.627101 0.241640
C43   C     C_3   0.104405 0.897923 0.614577 -0.169663
H42   H     H_    0.107031 0.886869 0.463523 0.176923
H43   H     H_    0.047840 0.857521 0.686099 0.148354
H44   H     H_    0.172863 0.878138 0.654390 0.147304
N12   N     N_2   0.930128 0.001356 0.408927 -0.399947
H45   H     H_    0.964417 0.042002 0.482056 0.275402
C44   C     C_3   0.905797 0.924529 0.500321 -0.039438
H46   H     H_    0.917052 0.924302 0.646368 0.114434
H47   H     H_    0.951481 0.874846 0.433166 0.131802
H48   H     H_    0.828385 0.914681 0.508011 0.158453

loop_
_geom_bond_atom_site_label_1
_geom_bond_atom_site_label_2
_geom_bond_distance
_ccdc_geom_bond_type
O10   C7    1.313531 A    
C16   C23   1.551125 S    
C20   C24   1.550049 S    
C31   C32   1.531641 S    
N2    C34   1.440431 S    
N7    H25   1.026780 S    
C25   N2    1.405990 S    
C9    C21   1.558387 S    
C39   H26   1.110361 S    
N6    H21   1.030290 S    
V1    O19   1.760729 S    
C5    C19   1.549194 S    
N5    H17   1.027197 S    
C39   H28   1.109376 S    
C6    C20   1.552275 S    
C27   C31   1.351189 D    
C36   H14   1.100057 S    
C15   I3    2.167235 S    
C26   C30   1.350214 D    
C9    C18   1.536480 S    
C27   N4    1.408876 S    
C14   C18   1.539198 S    
N1    C33   1.438989 S    
C41   H34   1.097007 S    
O13   V3    1.746180 S    
C18   C22   1.531784 S    
O4    C1    1.311083 A    
N3    C35   1.440714 S    
O18   V3    2.028009 S    
C14   C21   1.547449 S    
C28   N3    1.411160 S    
O9    V1    2.040717 S    
C37   H18   1.109740 S    
O10   V2    2.040718 S    
C34   H7    1.110342 S    
C12   I8    2.171033 S    
C44   H48   1.106362 S    
C24   N12   1.443634 S    
C10   C22   1.548253 S    
O17   C7    1.350824 A    
C38   H23   1.109823 S    
O17   V4    2.028010 S    
O5    C1    1.310462 A    
O4    V3    1.997168 S    
C16   I4    2.140360 S    
C41   H36   1.107900 S    
O8    C4    1.312031 A    
O7    C3    1.310166 A    
C11   C23   1.570730 S    
C33   H2    1.098228 S    
N7    C39   1.449246 S    
C10   C17   1.560185 S    
N5    C37   1.453068 S    
C23   N11   1.442713 S    
N10   C42   1.455057 S    
C32   N7    1.439256 S    
O11   V2    2.064384 S    
C33   H3    1.111471 S    
O8    V1    2.070754 S    
C40   H30   1.109982 S    
C12   C16   1.543752 S    
C35   H11   1.111833 S    
C15   C19   1.570253 S    
O11   C6    1.357935 A    
C41   H35   1.110308 S    
C29   C30   1.529174 S    
O15   V3    2.030244 S    
C9    C13   1.566680 S    
C14   I2    2.112486 S    
O3    V4    1.997169 S    
C11   C15   1.566383 S    
N4    H13   1.027466 S    
C43   H43   1.107904 S    
C13   I1    2.142112 S    
O2    C3    1.312211 A    
O6    C2    1.310980 A    
C7    C17   1.543612 S    
N8    H29   1.025196 S    
C34   H8    1.110653 S    
O1    V3    1.987242 S    
C36   H15   1.108376 S    
C29   N6    1.437518 S    
O1    C4    1.313711 A    
C38   H24   1.110221 S    
N11   C43   1.463398 S    
C11   C20   1.540248 S    
N4    C36   1.437685 S    
C42   H38   1.108927 S    
O3    C2    1.312840 A    
O14   V4    1.746180 S    
N8    C40   1.454307 S    
O7    V2    2.070752 S    
C40   H32   1.108916 S    
N6    C38   1.455336 S    
C44   H46   1.084407 S    
C10   I6    2.164704 S    
C9    I5    2.124986 S    
C43   H42   1.095448 S    
C11   I7    2.164083 S    
C44   H47   1.106849 S    
N9    H33   1.025192 S    
V2    O20   1.760730 S    
C36   H16   1.111915 S    
O15   C5    1.351972 A    
C33   H4    1.110492 S    
O16   V4    2.030243 S    
C37   H19   1.108272 S    
C10   C14   1.547339 S    
C26   N1    1.407172 S    
O18   C8    1.320617 A    
N12   C44   1.441415 S    
C35   H12   1.110098 S    
N10   H37   1.025290 S    
C39   H27   1.110097 S    
O5    V1    2.098549 S    
O6    V2    2.098550 S    
O12   C5    1.313142 A    
O2    V4    1.987241 S    
C38   H22   1.109257 S    
C43   H44   1.101857 S    
C35   H10   1.106443 S    
V3    O19   2.199066 S    
N12   H45   1.028853 S    
V4    O20   2.199066 S    
N1    H1    1.029711 S    
N11   H41   1.027822 S    
C25   C29   1.350361 D    
O12   V1    2.064385 S    
C8    C18   1.536546 S    
O13   V1    2.219814 S    
C22   N10   1.447965 S    
C12   C24   1.535900 S    
O14   V2    2.219814 S    
C13   C17   1.557465 S    
N3    H9    1.030050 S    
C42   H39   1.101214 S    
N2    H5    1.027242 S    
C21   N9    1.432016 S    
C16   C20   1.554956 S    
C37   H20   1.110061 S    
C40   H31   1.111578 S    
C34   H6    1.098299 S    
O16   C6    1.308297 A    
C31   N8    1.439725 S    
C42   H40   1.104756 S    
C17   C21   1.531742 S    
C12   C19   1.549046 S    
C13   C22   1.534240 S    
C19   C23   1.533793 S    
C30   N5    1.438505 S    
C28   C32   1.355041 D    
O9    C8    1.340057 A    
C15   C24   1.538019 S    
N9    C41   1.456983 S    
