data_mof_unit_66094.cif
_audit_creation_date              2012-12-10T20:40:39-0500
_audit_creation_method            fapswitch 2.2
_symmetry_space_group_name_H-M    P1
_symmetry_Int_Tables_number       1
_space_group_crystal_system       triclinic
_cell_length_a                    21.637982
_cell_length_b                    21.637983
_cell_length_c                    47.279231
_cell_angle_alpha                 89.999985
_cell_angle_beta                  89.99999
_cell_angle_gamma                 90.000019
_cell_volume                      22136.2440662

loop_
_atom_site_label
_atom_site_type_symbol
_atom_type_description
_atom_site_fract_x
_atom_site_fract_y
_atom_site_fract_z
_atom_type_partial_charge
C1    C     C_R   0.998431 0.879872 0.000035 0.892028
C2    C     C_R   0.854514 0.868814 0.085196 -0.171300
C3    C     C_R   0.430622 0.850221 0.407751 -0.101367
C4    C     C_R   0.675215 0.964016 0.930220 -0.165341
C5    C     C_R   0.035985 0.675216 0.930220 -0.165341
C6    C     C_R   0.324784 0.035984 0.930220 -0.165341
C7    C     C_R   0.964016 0.324784 0.930220 -0.165340
C8    C     C_R   0.175217 0.464015 0.430219 -0.165341
C9    C     C_R   0.535984 0.175216 0.430219 -0.165341
C10   C     C_R   0.824788 0.535981 0.430220 -0.165341
C11   C     C_R   0.464016 0.824784 0.430219 -0.165341
C12   C     C_R   0.688205 0.934343 0.955920 0.108738
C13   C     C_R   0.131186 0.854514 0.085196 -0.171300
C14   C     C_R   0.065657 0.688205 0.955920 0.108737
C15   C     C_R   0.311795 0.065656 0.955920 0.108738
C16   C     C_R   0.934343 0.311795 0.955920 0.108737
C17   C     C_R   0.188205 0.434343 0.455920 0.108736
C18   C     C_R   0.565656 0.188205 0.455920 0.108737
C19   C     C_R   0.811795 0.565656 0.455920 0.108742
C20   C     C_R   0.434343 0.811795 0.455920 0.108737
C21   C     C_R   0.552644 0.016793 0.810181 0.605778
C22   C     C_R   0.983207 0.552644 0.810181 0.605778
C23   C     C_R   0.447356 0.983207 0.810181 0.605778
C24   C     C_R   0.145486 0.131186 0.085196 -0.171300
C25   C     C_R   0.016793 0.447356 0.810181 0.605778
C26   C     C_R   0.052645 0.516793 0.310181 0.605778
C27   C     C_R   0.483207 0.052644 0.310181 0.605779
C28   C     C_R   0.947357 0.483207 0.310181 0.605779
C29   C     C_R   0.516793 0.947356 0.310181 0.605778
C30   C     C_R   0.500353 0.943715 0.869256 0.172618
C31   C     C_R   0.056285 0.500353 0.869256 0.172618
C32   C     C_R   0.499647 0.056285 0.869256 0.172618
C33   C     C_R   0.943715 0.499647 0.869256 0.172618
C34   C     C_R   0.000354 0.443715 0.369256 0.172618
C35   C     C_R   0.368814 0.645486 0.585196 -0.171300
C36   C     C_R   0.556285 0.000353 0.369256 0.172618
C37   C     C_R   0.999649 0.556285 0.369256 0.172617
C38   C     C_R   0.443715 0.999647 0.369256 0.172618
C39   C     C_R   0.499302 0.943988 0.898679 -0.261578
C40   C     C_R   0.056012 0.499302 0.898679 -0.261577
C41   C     C_R   0.500698 0.056012 0.898679 -0.261578
C42   C     C_R   0.943988 0.500698 0.898679 -0.261576
C43   C     C_R   0.999303 0.443988 0.398679 -0.261578
C44   C     C_R   0.556011 0.999302 0.398679 -0.261577
C45   C     C_R   0.000700 0.556012 0.398679 -0.261580
C46   C     C_R   0.354514 0.368813 0.585196 -0.171300
C47   C     C_R   0.443988 0.000698 0.398679 -0.261577
C48   C     C_R   0.500000 1.000000 0.854398 0.185931
C49   C     C_R   1.000000 0.500000 0.854398 0.185931
C50   C     C_R   0.000002 0.500000 0.354398 0.185930
C51   C     C_R   0.500000 1.000000 0.354398 0.185932
C52   C     C_R   0.050148 0.475643 0.131624 -0.118837
C53   C     C_R   0.524358 0.050148 0.131624 -0.118836
C54   C     C_R   0.949852 0.524358 0.131624 -0.118836
C55   C     C_R   0.475642 0.949852 0.131624 -0.118837
C56   C     C_R   0.550148 0.975642 0.631624 -0.118836
C57   C     C_R   0.631186 0.354514 0.585196 -0.171301
C58   C     C_R   0.024357 0.550148 0.631624 -0.118836
C59   C     C_R   0.449852 0.024358 0.631624 -0.118837
C60   C     C_R   0.975642 0.449851 0.631624 -0.118837
C61   C     C_R   0.051483 0.476875 0.102197 0.359120
C62   C     C_R   0.523125 0.051483 0.102197 0.359119
C63   C     C_R   0.948517 0.523125 0.102197 0.359120
C64   C     C_R   0.476875 0.948517 0.102197 0.359121
C65   C     C_R   0.551483 0.976875 0.602197 0.359119
C66   C     C_R   0.023125 0.551483 0.602197 0.359119
C67   C     C_R   0.448517 0.023125 0.602197 0.359120
C68   C     C_R   0.645486 0.631186 0.585196 -0.171300
C69   C     C_R   0.976875 0.448517 0.602197 0.359120
C70   C     C_R   1.000000 0.500000 0.086837 -0.268338
C71   C     C_R   0.500000 1.000000 0.086837 -0.268338
C72   C     C_R   0.500000 1.000000 0.586837 -0.268338
C73   C     C_R   1.000000 0.500000 0.586837 -0.268338
C74   C     C_R   0.500000 1.000000 0.944573 0.881204
C75   C     C_R   1.000000 0.500000 0.944573 0.881204
C76   C     C_R   0.000000 0.500000 0.444573 0.881204
C77   C     C_R   0.500000 0.000000 0.444573 0.881204
C78   C     C_R   0.950981 0.474762 0.191182 0.568957
C79   C     C_R   0.716883 0.034204 0.021200 0.358587
C80   C     C_R   0.525239 0.950981 0.191182 0.568958
C81   C     C_R   0.049020 0.525239 0.191182 0.568958
C82   C     C_R   0.474761 0.049019 0.191182 0.568958
C83   C     C_R   0.450981 0.974761 0.691182 0.568958
C84   C     C_R   0.025239 0.450981 0.691182 0.568958
C85   C     C_R   0.549019 0.025239 0.691182 0.568958
C86   C     C_R   0.974761 0.549019 0.691182 0.568957
C87   C     C_R   0.000000 0.500000 0.146495 0.137144
C88   C     C_R   0.500000 1.000000 0.146495 0.137144
C89   C     C_R   0.500000 1.000000 0.646495 0.137144
C90   C     C_R   0.965796 0.716883 0.021200 0.358586
C91   C     C_R   1.000000 0.500000 0.646495 0.137144
C92   C     C_R   0.050871 0.523745 0.220797 -0.080868
C93   C     C_R   0.476255 0.050870 0.220797 -0.080868
C94   C     C_R   0.949130 0.476256 0.220797 -0.080868
C95   C     C_R   0.523745 0.949130 0.220797 -0.080868
C96   C     C_R   0.550870 0.023745 0.720797 -0.080868
C97   C     C_R   0.976255 0.550870 0.720797 -0.080868
C98   C     C_R   0.449130 0.976255 0.720797 -0.080868
C99   C     C_R   0.023745 0.449130 0.720797 -0.080868
C100  C     C_R   0.000001 0.500000 0.235759 -0.009599
C101  C     C_R   0.283117 0.965796 0.021200 0.358586
C102  C     C_R   0.500000 1.000000 0.235759 -0.009600
C103  C     C_R   0.500000 1.000000 0.735759 -0.009599
C104  C     C_R   1.000000 0.500000 0.735759 -0.009600
C105  C     C_R   0.500000 1.000000 0.055500 1.005468
C106  C     C_R   0.000000 0.500000 0.055500 1.005468
C107  C     C_R   0.000000 0.500000 0.555500 1.005467
C108  C     C_R   0.500000 0.000000 0.555500 1.005468
C109  C     C_R   0.102305 0.545833 0.235576 -0.168367
C110  C     C_R   0.454167 0.102304 0.235576 -0.168367
C111  C     C_R   0.897697 0.454168 0.235577 -0.168367
C112  C     C_R   0.120128 0.998431 0.000035 0.892028
C113  C     C_R   0.034204 0.283117 0.021200 0.358586
C114  C     C_R   0.545833 0.897696 0.235576 -0.168367
C115  C     C_R   0.602304 0.045833 0.735576 -0.168367
C116  C     C_R   0.954166 0.602303 0.735576 -0.168367
C117  C     C_R   0.397696 0.954167 0.735576 -0.168367
C118  C     C_R   0.045834 0.397697 0.735576 -0.168367
C119  C     C_R   0.500000 1.000000 0.913580 -0.098718
C120  C     C_R   1.000000 0.500000 0.913580 -0.098718
C121  C     C_R   0.000001 0.500000 0.413580 -0.098719
C122  C     C_R   0.500000 1.000000 0.413580 -0.098718
C123  C     C_R   0.604442 0.043805 0.764998 0.431291
C124  C     C_R   0.216883 0.534204 0.521200 0.358586
C125  C     C_R   0.956194 0.604442 0.764998 0.431291
C126  C     C_R   0.395557 0.956195 0.764998 0.431290
C127  C     C_R   0.043806 0.395558 0.764998 0.431290
C128  C     C_R   0.104444 0.543805 0.264997 0.431291
C129  C     C_R   0.456195 0.104442 0.264998 0.431291
C130  C     C_R   0.895558 0.456196 0.264998 0.431291
C131  C     C_R   0.543805 0.895557 0.264998 0.431291
C132  C     C_R   0.553187 0.020541 0.780474 -0.103222
C133  C     C_R   0.979459 0.553187 0.780474 -0.103223
C134  C     C_R   0.446813 0.979459 0.780474 -0.103223
C135  C     C_R   0.465796 0.216883 0.521200 0.358587
C136  C     C_R   0.020541 0.446813 0.780474 -0.103223
C137  C     C_R   0.053188 0.520541 0.280474 -0.103223
C138  C     C_R   0.479460 0.053187 0.280474 -0.103223
C139  C     C_R   0.946814 0.479460 0.280474 -0.103223
C140  C     C_R   0.520540 0.946813 0.280474 -0.103222
C141  C     C_R   0.620075 0.000084 0.999781 0.928108
C142  C     C_R   0.999916 0.620075 0.999781 0.928108
C143  C     C_R   0.379925 0.999916 0.999781 0.928108
C144  C     C_R   0.000084 0.379925 0.999781 0.928108
C145  C     C_R   0.120075 0.500084 0.499781 0.928108
C146  C     C_R   0.783117 0.465796 0.521200 0.358586
C147  C     C_R   0.499916 0.120075 0.499781 0.928108
C148  C     C_R   0.879925 0.499916 0.499781 0.928108
C149  C     C_R   0.500084 0.879925 0.499781 0.928108
C150  C     C_R   0.853410 0.083893 0.090741 0.180259
C151  C     C_R   0.916107 0.853410 0.090741 0.180259
C152  C     C_R   0.146590 0.916107 0.090741 0.180259
C153  C     C_R   0.083893 0.146590 0.090741 0.180259
C154  C     C_R   0.353410 0.583893 0.590741 0.180259
C155  C     C_R   0.416107 0.353410 0.590741 0.180259
C156  C     C_R   0.646590 0.416107 0.590741 0.180259
C157  C     C_R   0.534204 0.783117 0.521200 0.358586
C158  C     C_R   0.583893 0.646590 0.590741 0.180259
C159  C     C_R   0.825329 0.048018 0.069788 -0.087754
C160  C     C_R   0.951982 0.825329 0.069788 -0.087754
C161  C     C_R   0.174671 0.951982 0.069788 -0.087755
C162  C     C_R   0.048018 0.174671 0.069788 -0.087755
C163  C     C_R   0.325329 0.548018 0.569788 -0.087754
C164  C     C_R   0.451982 0.325329 0.569788 -0.087755
C165  C     C_R   0.674671 0.451982 0.569788 -0.087754
C166  C     C_R   0.548018 0.674671 0.569788 -0.087754
C167  C     C_R   0.813257 0.073399 0.043049 0.111749
C168  C     C_R   0.686171 0.000572 0.000016 -0.154886
C169  C     C_R   0.926601 0.813257 0.043049 0.111749
C170  C     C_R   0.186742 0.926601 0.043049 0.111749
C171  C     C_R   0.073399 0.186742 0.043049 0.111750
C172  C     C_R   0.313258 0.573398 0.543049 0.111749
C173  C     C_R   0.426602 0.313257 0.543050 0.111750
C174  C     C_R   0.686742 0.426601 0.543049 0.111749
C175  C     C_R   0.573399 0.686742 0.543049 0.111750
C176  C     C_R   0.829050 0.135099 0.037508 -0.163502
C177  C     C_R   0.864901 0.829050 0.037508 -0.163502
C178  C     C_R   0.170950 0.864901 0.037508 -0.163503
C179  C     C_R   0.999428 0.686171 0.000016 -0.154886
C180  C     C_R   0.135099 0.170950 0.037508 -0.163504
C181  C     C_R   0.329050 0.635099 0.537508 -0.163503
C182  C     C_R   0.364901 0.329050 0.537508 -0.163503
C183  C     C_R   0.670950 0.364901 0.537508 -0.163503
C184  C     C_R   0.635099 0.670950 0.537508 -0.163504
C185  C     C_R   0.856255 0.171220 0.058665 0.184092
C186  C     C_R   0.828780 0.856255 0.058665 0.184092
C187  C     C_R   0.143745 0.828780 0.058665 0.184092
C188  C     C_R   0.171220 0.143745 0.058665 0.184092
C189  C     C_R   0.356255 0.671220 0.558665 0.184092
C190  C     C_R   0.313829 0.999428 0.000016 -0.154886
C191  C     C_R   0.328780 0.356255 0.558665 0.184092
C192  C     C_R   0.643745 0.328780 0.558665 0.184092
C193  C     C_R   0.671220 0.643745 0.558665 0.184092
C194  C     C_R   0.000572 0.313829 0.000016 -0.154886
C195  C     C_R   0.186171 0.500572 0.500016 -0.154886
C196  C     C_R   0.001569 0.120128 0.000035 0.892028
C197  C     C_R   0.499428 0.186171 0.500016 -0.154886
C198  C     C_R   0.813829 0.499428 0.500016 -0.154887
C199  C     C_R   0.500572 0.813829 0.500016 -0.154886
C200  C     C_R   0.718940 0.968538 0.978964 -0.045524
C201  C     C_R   0.031462 0.718940 0.978964 -0.045525
C202  C     C_R   0.281060 0.031462 0.978963 -0.045524
C203  C     C_R   0.968538 0.281060 0.978964 -0.045525
C204  C     C_R   0.218940 0.468538 0.478963 -0.045525
C205  C     C_R   0.531462 0.218940 0.478963 -0.045525
C206  C     C_R   0.781060 0.531462 0.478963 -0.045524
C207  C     C_R   0.879872 0.001568 0.000035 0.892029
C208  C     C_R   0.468538 0.781060 0.478963 -0.045525
C209  C     C_R   0.782678 0.970260 0.979280 -0.215509
C210  C     C_R   0.029739 0.782678 0.979280 -0.215508
C211  C     C_R   0.217322 0.029739 0.979280 -0.215509
C212  C     C_R   0.970260 0.217322 0.979280 -0.215509
C213  C     C_R   0.282678 0.470260 0.479280 -0.215508
C214  C     C_R   0.529739 0.282678 0.479280 -0.215508
C215  C     C_R   0.717322 0.529740 0.479280 -0.215509
C216  C     C_R   0.470260 0.717322 0.479280 -0.215509
C217  C     C_R   0.813624 0.003311 0.000247 -0.139237
C218  C     C_R   0.498431 0.379872 0.500035 0.892029
C219  C     C_R   0.996689 0.813624 0.000247 -0.139237
C220  C     C_R   0.186376 0.996689 0.000247 -0.139237
C221  C     C_R   0.003311 0.186376 0.000247 -0.139237
C222  C     C_R   0.313624 0.503311 0.500247 -0.139237
C223  C     C_R   0.496689 0.313624 0.500247 -0.139237
C224  C     C_R   0.686376 0.496689 0.500247 -0.139237
C225  C     C_R   0.503311 0.686376 0.500247 -0.139237
C226  C     C_R   0.781147 0.036098 0.021287 -0.063157
C227  C     C_R   0.963902 0.781146 0.021287 -0.063157
C228  C     C_R   0.218853 0.963902 0.021287 -0.063156
C229  C     C_R   0.620128 0.498431 0.500035 0.892028
C230  C     C_R   0.036098 0.218853 0.021287 -0.063156
C231  C     C_R   0.281147 0.536098 0.521287 -0.063157
C232  C     C_R   0.463902 0.281147 0.521287 -0.063156
C233  C     C_R   0.718853 0.463902 0.521287 -0.063157
C234  C     C_R   0.536098 0.718853 0.521287 -0.063156
C235  C     C_R   0.675160 0.871204 0.959025 -0.091711
C236  C     C_R   0.128796 0.675158 0.959025 -0.091710
C237  C     C_R   0.324841 0.128796 0.959025 -0.091711
C238  C     C_R   0.871204 0.324841 0.959025 -0.091710
C239  C     C_R   0.175158 0.371204 0.459025 -0.091709
C240  C     C_R   0.501568 0.620128 0.500035 0.892028
C241  C     C_R   0.628796 0.175158 0.459025 -0.091709
C242  C     C_R   0.824837 0.628796 0.459024 -0.091716
C243  C     C_R   0.371204 0.824842 0.459025 -0.091709
C244  C     C_R   0.649091 0.838115 0.936606 -0.131300
C245  C     C_R   0.161885 0.649090 0.936607 -0.131300
C246  C     C_R   0.350909 0.161885 0.936606 -0.131300
C247  C     C_R   0.838115 0.350909 0.936606 -0.131301
C248  C     C_R   0.149090 0.338116 0.436606 -0.131301
C249  C     C_R   0.661884 0.149090 0.436606 -0.131301
C250  C     C_R   0.850905 0.661884 0.436605 -0.131299
C251  C     C_R   0.379872 0.501568 0.500035 0.892029
C252  C     C_R   0.338115 0.850910 0.436606 -0.131301
C253  C     C_R   0.636709 0.867724 0.910949 -0.101323
C254  C     C_R   0.132276 0.636709 0.910949 -0.101323
C255  C     C_R   0.363291 0.132276 0.910949 -0.101324
C256  C     C_R   0.867724 0.363291 0.910949 -0.101323
C257  C     C_R   0.136709 0.367724 0.410949 -0.101325
C258  C     C_R   0.632275 0.136708 0.410949 -0.101323
C259  C     C_R   0.863291 0.632273 0.410948 -0.101320
C260  C     C_R   0.367724 0.863291 0.410949 -0.101323
C261  C     C_R   0.500000 1.000000 0.765628 -0.108033
C262  C     C_R   0.868814 0.145486 0.085196 -0.171300
C263  C     C_R   1.000000 0.500000 0.765628 -0.108032
C264  C     C_R   0.000001 0.500000 0.265628 -0.108032
C265  C     C_R   0.500000 1.000000 0.265628 -0.108033
C266  C     C_R   0.649778 0.930623 0.907751 -0.101367
C267  C     C_R   0.069378 0.649779 0.907751 -0.101367
C268  C     C_R   0.350221 0.069377 0.907751 -0.101367
C269  C     C_R   0.930622 0.350221 0.907751 -0.101368
C270  C     C_R   0.149780 0.430622 0.407751 -0.101366
C271  C     C_R   0.569378 0.149779 0.407751 -0.101368
C272  C     C_R   0.850224 0.569374 0.407751 -0.101367
Cl1   Cl    Cl    0.672240 0.073793 0.780611 -0.444329
Cl2   Cl    Cl    0.552271 0.119161 0.086279 -0.437503
Cl3   Cl    Cl    0.880839 0.552271 0.086279 -0.437503
Cl4   Cl    Cl    0.447729 0.880839 0.086279 -0.437503
Cl5   Cl    Cl    0.619161 0.947729 0.586279 -0.437503
Cl6   Cl    Cl    0.052271 0.619161 0.586279 -0.437503
Cl7   Cl    Cl    0.380839 0.052271 0.586279 -0.437503
Cl8   Cl    Cl    0.947729 0.380839 0.586279 -0.437503
Cl9   Cl    Cl    0.675357 0.071855 0.048495 -0.510466
Cl10  Cl    Cl    0.928145 0.675357 0.048495 -0.510466
Cl11  Cl    Cl    0.324643 0.928145 0.048495 -0.510466
Cl12  Cl    Cl    0.926205 0.672239 0.780611 -0.444329
Cl13  Cl    Cl    0.071855 0.324643 0.048495 -0.510466
Cl14  Cl    Cl    0.175357 0.571855 0.548495 -0.510466
Cl15  Cl    Cl    0.428145 0.175357 0.548495 -0.510467
Cl16  Cl    Cl    0.824643 0.428145 0.548495 -0.510466
Cl17  Cl    Cl    0.571855 0.824643 0.548495 -0.510467
Cl18  Cl    Cl    0.327760 0.926207 0.780611 -0.444329
Cl19  Cl    Cl    0.073795 0.327761 0.780611 -0.444329
Cl20  Cl    Cl    0.172241 0.573793 0.280611 -0.444329
Cl21  Cl    Cl    0.426207 0.172240 0.280611 -0.444329
Cl22  Cl    Cl    0.827761 0.426208 0.280611 -0.444329
Cl23  Cl    Cl    0.573793 0.827760 0.280611 -0.444329
Cl24  Cl    Cl    0.119161 0.447729 0.086279 -0.437503
H1    H     H_    0.889710 0.173497 0.101571 0.189625
H2    H     H_    0.158089 0.617020 0.893553 0.170688
H3    H     H_    0.382980 0.158088 0.893553 0.170689
H4    H     H_    0.841911 0.382980 0.893553 0.170688
H5    H     H_    0.117020 0.341911 0.393553 0.170689
H6    H     H_    0.658088 0.117020 0.393553 0.170689
H7    H     H_    0.882979 0.658085 0.393552 0.170688
H8    H     H_    0.341912 0.882980 0.393553 0.170689
H9    H     H_    0.640154 0.953491 0.887869 0.183238
H10   H     H_    0.046510 0.640155 0.887868 0.183237
H11   H     H_    0.359846 0.046509 0.887868 0.183237
H12   H     H_    0.826503 0.889710 0.101571 0.189625
H13   H     H_    0.953490 0.359845 0.887868 0.183237
H14   H     H_    0.140156 0.453490 0.387868 0.183238
H15   H     H_    0.546509 0.140155 0.387868 0.183238
H16   H     H_    0.859851 0.546504 0.387869 0.183237
H17   H     H_    0.453491 0.859845 0.387868 0.183238
H18   H     H_    0.685495 0.012647 0.927514 0.154387
H19   H     H_    0.987354 0.685497 0.927514 0.154387
H20   H     H_    0.314505 0.987353 0.927514 0.154387
H21   H     H_    0.012646 0.314504 0.927514 0.154387
H22   H     H_    0.185498 0.512646 0.427514 0.154388
H23   H     H_    0.110289 0.826503 0.101571 0.189625
H24   H     H_    0.487353 0.185496 0.427514 0.154387
H25   H     H_    0.814511 0.487350 0.427516 0.154385
H26   H     H_    0.512646 0.814503 0.427514 0.154387
H27   H     H_    0.141703 0.564381 0.224254 0.230287
H28   H     H_    0.435620 0.141702 0.224254 0.230287
H29   H     H_    0.858298 0.435620 0.224254 0.230287
H30   H     H_    0.564380 0.858298 0.224254 0.230287
H31   H     H_    0.641702 0.064381 0.724254 0.230287
H32   H     H_    0.935618 0.641702 0.724254 0.230287
H33   H     H_    0.358298 0.935619 0.724254 0.230287
H34   H     H_    0.173497 0.110290 0.101571 0.189625
H35   H     H_    0.064381 0.358298 0.724254 0.230287
H36   H     H_    0.499088 0.900283 0.909830 0.194320
H37   H     H_    0.099717 0.499088 0.909830 0.194319
H38   H     H_    0.500912 0.099717 0.909830 0.194320
H39   H     H_    0.900283 0.500911 0.909830 0.194319
H40   H     H_    0.999088 0.400283 0.409830 0.194320
H41   H     H_    0.599717 0.999088 0.409830 0.194319
H42   H     H_    0.000914 0.599717 0.409830 0.194320
H43   H     H_    0.400283 0.000912 0.409830 0.194319
H44   H     H_    0.088775 0.455973 0.143093 0.208231
H45   H     H_    0.389711 0.673497 0.601571 0.189625
H46   H     H_    0.544028 0.088774 0.143093 0.208231
H47   H     H_    0.911226 0.544028 0.143093 0.208231
H48   H     H_    0.455972 0.911225 0.143093 0.208231
H49   H     H_    0.588775 0.955972 0.643093 0.208231
H50   H     H_    0.044027 0.588775 0.643093 0.208231
H51   H     H_    0.411225 0.044027 0.643093 0.208231
H52   H     H_    0.955973 0.411225 0.643093 0.208231
H53   H     H_    0.812620 0.000668 0.074322 0.159620
H54   H     H_    0.999332 0.812620 0.074322 0.159620
H55   H     H_    0.187380 0.999332 0.074322 0.159621
H56   H     H_    0.326503 0.389710 0.601571 0.189625
H57   H     H_    0.000668 0.187380 0.074322 0.159620
H58   H     H_    0.312620 0.500668 0.574322 0.159620
H59   H     H_    0.499332 0.312619 0.574322 0.159621
H60   H     H_    0.687380 0.499332 0.574322 0.159620
H61   H     H_    0.500668 0.687380 0.574322 0.159620
H62   H     H_    0.819047 0.155315 0.017058 0.150945
H63   H     H_    0.844685 0.819047 0.017058 0.150944
H64   H     H_    0.180953 0.844685 0.017058 0.150945
H65   H     H_    0.155315 0.180953 0.017058 0.150945
H66   H     H_    0.319047 0.655315 0.517058 0.150945
H67   H     H_    0.610290 0.326503 0.601571 0.189625
H68   H     H_    0.344685 0.319047 0.517058 0.150945
H69   H     H_    0.680953 0.344685 0.517058 0.150945
H70   H     H_    0.655315 0.680953 0.517058 0.150944
H71   H     H_    0.808283 0.945067 0.963258 0.177172
H72   H     H_    0.054933 0.808283 0.963258 0.177172
H73   H     H_    0.191717 0.054933 0.963258 0.177171
H74   H     H_    0.945067 0.191717 0.963258 0.177171
H75   H     H_    0.308283 0.445067 0.463258 0.177172
H76   H     H_    0.554933 0.308283 0.463258 0.177172
H77   H     H_    0.691717 0.554933 0.463258 0.177171
H78   H     H_    0.673497 0.610290 0.601571 0.189625
H79   H     H_    0.445067 0.691717 0.463258 0.177172
H80   H     H_    0.685498 0.847714 0.978696 0.160362
H81   H     H_    0.152285 0.685496 0.978697 0.160363
H82   H     H_    0.314503 0.152285 0.978696 0.160362
H83   H     H_    0.847715 0.314503 0.978697 0.160363
H84   H     H_    0.185495 0.347715 0.478697 0.160363
H85   H     H_    0.652285 0.185496 0.478696 0.160362
H86   H     H_    0.814496 0.652287 0.478694 0.160360
H87   H     H_    0.347715 0.814504 0.478697 0.160362
H88   H     H_    0.638989 0.789419 0.939034 0.155061
H89   H     H_    0.617020 0.841912 0.893553 0.170689
H90   H     H_    0.210581 0.638987 0.939035 0.155061
H91   H     H_    0.361012 0.210581 0.939034 0.155061
H92   H     H_    0.789419 0.361013 0.939035 0.155061
H93   H     H_    0.138986 0.289419 0.439035 0.155061
H94   H     H_    0.710581 0.138987 0.439034 0.155061
H95   H     H_    0.861005 0.710582 0.439032 0.155062
H96   H     H_    0.289419 0.861013 0.439034 0.155061
I1    I     I_    0.504380 0.857180 0.848270 -0.258182
I2    I     I_    0.954436 0.870317 0.130971 -0.196210
I3    I     I_    0.129682 0.954436 0.130971 -0.196210
I4    I     I_    0.045564 0.129683 0.130971 -0.196209
I5    I     I_    0.370318 0.545564 0.630971 -0.196210
I6    I     I_    0.454436 0.370317 0.630972 -0.196209
I7    I     I_    0.629682 0.454436 0.630971 -0.196210
I8    I     I_    0.545565 0.629683 0.630972 -0.196209
I9    I     I_    0.874997 0.265398 0.051155 -0.306801
I10   I     I_    0.734602 0.874997 0.051155 -0.306801
I11   I     I_    0.125003 0.734602 0.051155 -0.306801
I12   I     I_    0.142820 0.504381 0.848270 -0.258183
I13   I     I_    0.265398 0.125003 0.051155 -0.306801
I14   I     I_    0.374997 0.765398 0.551155 -0.306800
I15   I     I_    0.234602 0.374997 0.551155 -0.306801
I16   I     I_    0.625003 0.234602 0.551155 -0.306801
I17   I     I_    0.765398 0.625003 0.551154 -0.306799
I18   I     I_    0.495620 0.142820 0.848270 -0.258182
I19   I     I_    0.857180 0.495619 0.848270 -0.258183
I20   I     I_    0.004380 0.357180 0.348270 -0.258183
I21   I     I_    0.642820 0.004379 0.348270 -0.258183
I22   I     I_    0.995623 0.642821 0.348270 -0.258181
I23   I     I_    0.357180 0.995620 0.348270 -0.258182
I24   I     I_    0.870318 0.045564 0.130971 -0.196210
N1    N     N_R   0.500000 1.000000 0.824118 -0.356826
N2    N     N_R   1.000000 0.500000 0.824118 -0.356827
N3    N     N_R   0.000002 0.500000 0.324118 -0.356826
N4    N     N_R   0.500000 1.000000 0.324118 -0.356826
N5    N     N_R   0.000000 0.500001 0.176908 -0.335421
N6    N     N_R   0.500000 1.000000 0.176908 -0.335421
N7    N     N_R   0.500000 0.000000 0.676908 -0.335421
N8    N     N_R   1.000000 0.500000 0.676908 -0.335421
O1    O     O_R   0.000020 0.908410 0.023640 -0.622846
O2    O     O_R   0.091560 0.000040 0.976310 -0.619263
O3    O     O_R   0.999960 0.091560 0.976310 -0.619263
O4    O     O_R   0.908440 0.999960 0.976310 -0.619263
O5    O     O_R   0.500040 0.408440 0.476310 -0.619263
O6    O     O_R   0.591560 0.500040 0.476310 -0.619262
O7    O     O_R   0.499960 0.591560 0.476310 -0.619263
O8    O     O_R   0.408440 0.499960 0.476310 -0.619263
O9    O     O_R   0.591640 0.051770 0.999960 -0.582145
O10   O     O_R   0.948230 0.591640 0.999960 -0.582145
O11   O     O_R   0.408360 0.948230 0.999960 -0.582145
O12   O     O_R   0.091590 0.000020 0.023640 -0.622846
O13   O     O_R   0.051770 0.408360 0.999960 -0.582145
O14   O     O_R   0.091640 0.551770 0.499960 -0.582145
O15   O     O_R   0.448230 0.091640 0.499960 -0.582145
O16   O     O_R   0.908360 0.448230 0.499960 -0.582146
O17   O     O_R   0.551770 0.908360 0.499960 -0.582145
O18   O     O_R   0.591650 0.948320 0.999970 -0.618374
O19   O     O_R   0.051680 0.591650 0.999970 -0.618375
O20   O     O_R   0.408350 0.051680 0.999970 -0.618375
O21   O     O_R   0.948320 0.408350 0.999970 -0.618375
O22   O     O_R   0.091650 0.448320 0.499970 -0.618375
O23   O     O_R   0.999980 0.091590 0.023640 -0.622846
O24   O     O_R   0.551680 0.091650 0.499970 -0.618375
O25   O     O_R   0.908350 0.551680 0.499970 -0.618372
O26   O     O_R   0.448320 0.908350 0.499970 -0.618375
O27   O     O_2   0.904395 0.447707 0.176781 -0.517345
O28   O     O_2   0.552293 0.904394 0.176781 -0.517345
O29   O     O_2   0.095606 0.552294 0.176781 -0.517345
O30   O     O_2   0.447707 0.095605 0.176781 -0.517345
O31   O     O_2   0.404394 0.947706 0.676781 -0.517345
O32   O     O_2   0.052294 0.404395 0.676781 -0.517345
O33   O     O_2   0.595605 0.052294 0.676781 -0.517344
O34   O     O_R   0.908410 0.999980 0.023640 -0.622847
O35   O     O_2   0.947706 0.595605 0.676781 -0.517344
O36   O     O_2   0.603838 0.029567 0.825336 -0.468703
O37   O     O_2   0.970432 0.603838 0.825336 -0.468702
O38   O     O_2   0.396162 0.970433 0.825336 -0.468703
O39   O     O_2   0.029568 0.396162 0.825336 -0.468702
O40   O     O_2   0.103840 0.529567 0.325336 -0.468702
O41   O     O_2   0.470433 0.103838 0.325336 -0.468703
O42   O     O_2   0.896163 0.470433 0.325336 -0.468704
O43   O     O_2   0.529567 0.896162 0.325336 -0.468703
O44   O     O_R   0.500040 0.051770 0.958040 -0.632069
O45   O     O_R   0.500020 0.408410 0.523640 -0.622846
O46   O     O_R   0.948230 0.500040 0.958040 -0.632069
O47   O     O_R   0.499960 0.948230 0.958040 -0.632069
O48   O     O_R   0.051770 0.499960 0.958040 -0.632069
O49   O     O_R   0.000040 0.551770 0.458040 -0.632068
O50   O     O_R   0.448230 0.000040 0.458040 -0.632069
O51   O     O_R   0.999960 0.448230 0.458040 -0.632069
O52   O     O_R   0.551770 0.999960 0.458040 -0.632069
O53   O     O_R   0.500000 0.051760 0.041880 -0.554079
O54   O     O_R   0.948240 0.500000 0.041880 -0.554079
O55   O     O_R   0.500000 0.948240 0.041880 -0.554079
O56   O     O_R   0.591590 0.500020 0.523640 -0.622847
O57   O     O_R   0.051760 0.500000 0.041880 -0.554079
O58   O     O_R   1.000000 0.551760 0.541880 -0.554079
O59   O     O_R   0.448240 1.000000 0.541880 -0.554079
O60   O     O_R   1.000000 0.448240 0.541880 -0.554079
O61   O     O_R   0.551760 1.000000 0.541880 -0.554079
O62   O     O_R   0.499980 0.591590 0.523640 -0.622846
O63   O     O_R   0.408410 0.499980 0.523640 -0.622847
O64   O     O_R   0.000040 0.908440 0.976310 -0.619263
Zn1   Zn    Zn3+2 1.000000 0.000000 0.031580 0.982447
Zn2   Zn    Zn3+2 0.430890 0.000020 0.499960 1.085546
Zn3   Zn    Zn3+2 0.999980 0.430890 0.499960 1.085545
Zn4   Zn    Zn3+2 0.569110 0.999980 0.499960 1.085546
Zn5   Zn    Zn3+2 0.500000 0.500000 0.531580 0.982447
Zn6   Zn    Zn3+2 1.000000 1.000000 0.968370 1.001101
Zn7   Zn    Zn3+2 0.500000 0.500000 0.468370 1.001101
Zn8   Zn    Zn3+2 0.500020 0.069110 0.999960 1.085546
Zn9   Zn    Zn3+2 0.930890 0.500020 0.999960 1.085546
Zn10  Zn    Zn3+2 0.499980 0.930890 0.999960 1.085546
Zn11  Zn    Zn3+2 0.069110 0.499980 0.999960 1.085546
Zn12  Zn    Zn3+2 0.000020 0.569110 0.499960 1.085549

loop_
_geom_bond_atom_site_label_1
_geom_bond_atom_site_label_2
_ccdc_geom_bond_type
C206  C215  A    
C174  C233  S    
C170  C228  S    
C198  C206  A    
C154  I5    S    
C35   C154  A    
C106  O57   A    
C113  C230  A    
C61   C70   A    
C211  C220  A    
C58   H50   S    
C170  C178  A    
C56   H49   S    
C109  H27   S    
C164  H59   S    
C52   C61   A    
C152  I3    S    
C85   C96   A    
C86   O35   S    
C92   C109  A    
C90   Cl10  S    
C54   C63   A    
C184  C193  A    
C14   C201  S    
C94   C111  A    
C2    C151  A    
C244  H88   S    
C169  C177  A    
C55   C88   A    
C144  O13   A    
C131  C140  A    
C113  Cl13  S    
C50   N3    S    
C162  C171  A    
C100  C264  A    
C262  H1    S    
C238  C247  A    
C68   C193  A    
C4    C12   A    
C117  C126  A    
C95   C102  A    
C93   C110  A    
C171  C230  S    
C156  I7    S    
C107  O60   A    
C1    O64   A    
C142  O10   A    
C68   C158  A    
O54   Zn9   S    
C242  H86   S    
C11   C20   A    
C207  C217  S    
C27   C138  A    
C115  C123  A    
C150  C159  A    
O53   Zn8   S    
C176  C185  A    
C241  C249  A    
C127  C136  A    
O50   Zn2   S    
C57   C192  A    
C45   C121  A    
C25   O39   S    
C177  C186  A    
C210  H72   S    
C239  C248  A    
C174  C183  A    
C224  C233  A    
C21   C132  A    
C46   C155  A    
C74   O47   A    
C143  O20   A    
C111  C130  A    
C45   H42   S    
C125  Cl12  S    
C129  Cl21  S    
C166  C175  A    
C46   H56   S    
C164  C173  A    
C111  H29   S    
C163  C172  A    
C2    H12   S    
C149  C199  S    
O9    Zn8   S    
C17   C239  A    
C18   C241  A    
C63   Cl3   S    
C270  H14   S    
C173  C182  A    
C5    C267  A    
C185  I9    S    
C135  C232  A    
C6    C268  A    
C22   N2    A    
C77   O50   A    
C36   C44   A    
C79   Cl9   S    
C37   C45   A    
C75   O48   A    
C240  O7    A    
C223  C232  A    
C252  C260  A    
C240  O62   A    
C260  H8    S    
C15   C237  A    
C7    H21   S    
C141  C168  S    
C215  C224  A    
O52   Zn4   S    
C112  O2    A    
C8    C17   A    
O14   Zn12  S    
C135  C197  A    
C218  O5    A    
C53   H46   S    
C238  H83   S    
O57   Zn11  S    
C256  C269  A    
C130  Cl22  S    
C151  I2    S    
C200  C209  A    
C209  C217  A    
C81   O29   S    
C30   I1    S    
C224  C229  S    
C37   C50   A    
C29   N4    A    
C216  H79   S    
C78   C94   A    
C204  C213  A    
C159  C167  A    
C180  H65   S    
C29   O43   S    
C110  H28   S    
C157  C234  A    
O11   Zn10  S    
C3    C11   A    
C137  C264  A    
C235  H80   S    
C155  I6    S    
C126  C134  A    
C255  C268  A    
C267  H10   S    
C212  H74   S    
C48   N1    S    
C105  O55   A    
C4    C266  A    
C74   O44   A    
C20   C243  A    
C13   C187  A    
C149  O26   A    
C189  I14   S    
C182  H68   S    
C249  C258  A    
C148  O16   A    
C26   C137  A    
C2    C186  A    
C218  C223  S    
C258  H6    S    
C229  O6    A    
O46   Zn9   S    
C31   I12   S    
C30   C48   A    
O45   Zn5   S    
C144  C194  S    
C252  H96   S    
O55   Zn10  S    
C9    H24   S    
C110  C129  A    
C67   C72   A    
C62   Cl2   S    
C10   H25   S    
C147  O15   A    
C86   C97   A    
C8    C270  A    
C59   C67   A    
C81   C92   A    
C172  C181  A    
C165  H60   S    
C26   O40   S    
C72   C108  S    
C83   C98   A    
C207  O4    A    
C32   C41   A    
C77   O52   A    
C77   C122  S    
C108  O59   A    
O56   Zn5   S    
C75   O46   A    
C118  H35   S    
C247  C256  A    
C247  H92   S    
O2    Zn6   S    
C16   C238  A    
C136  C263  A    
O64   Zn6   S    
C245  H90   S    
C24   H34   S    
C28   C139  A    
O26   Zn2   S    
C116  H32   S    
C1    O1    A    
C215  H77   S    
C166  H61   S    
C78   O27   S    
C12   C200  S    
C57   C156  A    
C22   C133  A    
C97   C104  A    
C162  H57   S    
O18   Zn10  S    
C203  C212  A    
C190  C202  A    
C167  C226  S    
C38   C51   A    
C165  C174  A    
C210  C219  A    
C146  C198  A    
C186  I10   S    
O16   Zn3   S    
C163  H58   S    
O58   Zn12  S    
C94   C100  A    
C61   Cl24  S    
C112  C220  S    
C158  I8    S    
C80   C95   A    
C178  H64   S    
C117  H33   S    
C56   C89   A    
C134  C261  A    
C188  I13   S    
C54   H47   S    
O25   Zn12  S    
C118  C127  A    
C67   Cl7   S    
C26   N3    A    
C213  H75   S    
C268  H11   S    
C251  O63   A    
C58   C91   A    
C133  C263  A    
C29   C140  A    
C211  H73   S    
C23   C134  A    
C218  O45   A    
C75   C120  S    
C138  C265  A    
C253  C266  A    
C65   C72   A    
C217  C226  A    
C116  C125  A    
O61   Zn4   S    
C202  C211  A    
C21   O36   S    
C42   C120  A    
C60   C69   A    
C39   C119  A    
C44   C122  A    
C199  C208  A    
C62   C71   A    
C108  O61   A    
C171  C180  A    
C21   N1    A    
C214  C223  A    
C5    H19   S    
C6    H20   S    
C91   N8    S    
C128  Cl20  S    
O8    Zn7   S    
O23   Zn1   S    
C248  H93   S    
C33   C49   A    
C246  H91   S    
C255  H3    S    
C145  O14   A    
C123  Cl1   S    
C22   O37   S    
C124  Cl14  S    
C37   I22   S    
C12   C235  A    
C84   N8    A    
C114  C131  A    
C250  C259  A    
C197  C205  A    
C27   O41   S    
C76   O49   A    
C183  C192  A    
C51   N4    S    
C59   H51   S    
C39   H36   S    
C49   N2    S    
O1    Zn1   S    
C18   C205  S    
C3    H17   S    
C57   H67   S    
C256  H4    S    
C88   N6    S    
C23   O38   S    
C123  C132  A    
C105  O53   A    
C185  C262  A    
C73   C107  S    
C95   C114  A    
C83   O31   S    
C98   C103  A    
C153  I4    S    
C31   C40   A    
C220  C228  A    
C52   H44   S    
C113  C194  A    
C64   C71   A    
C43   C121  A    
C78   N5    A    
C180  C188  A    
C126  Cl18  S    
C181  C189  A    
C179  C201  A    
C102  C265  A    
C19   C206  S    
C160  C169  A    
C69   C73   A    
C25   N2    A    
C79   C226  A    
C196  C221  S    
C236  H81   S    
O10   Zn9   S    
O48   Zn11  S    
C99   C104  A    
C9    C271  A    
C146  C233  A    
C35   C189  A    
C82   C93   A    
C10   C272  A    
C32   C48   A    
C106  O54   A    
C31   C49   A    
C130  C139  A    
C172  C231  S    
C254  C267  A    
C241  H85   S    
C101  Cl11  S    
C242  C250  A    
O51   Zn3   S    
C148  O25   A    
C84   O32   S    
C214  H76   S    
C101  C190  A    
C70   C106  S    
C81   N5    A    
C246  C255  A    
C195  C204  A    
C69   Cl8   S    
C209  H71   S    
C8    H22   S    
C23   N1    A    
C271  H15   S    
O20   Zn8   S    
C173  C232  S    
C90   C227  A    
C109  C128  A    
C10   C19   A    
C41   C119  A    
C97   C116  A    
C5    C14   A    
C150  C262  A    
C178  C187  A    
C7    C16   A    
C40   C120  A    
C38   I23   S    
C82   O30   S    
C244  C253  A    
C71   C105  S    
C65   Cl5   S    
C32   I18   S    
C147  C197  S    
C182  C191  A    
C225  C234  A    
C76   O51   A    
C147  O24   A    
C107  O58   A    
C253  H89   S    
C24   C153  A    
C158  C166  A    
C55   H48   S    
C33   C42   A    
C89   N7    S    
C168  C200  A    
C68   H78   S    
C84   C99   A    
C236  C245  A    
C13   C152  A    
C187  I11   S    
C93   C102  A    
C47   H43   S    
C245  C254  A    
C216  C225  A    
O63   Zn5   S    
C153  C162  A    
C24   C188  A    
C176  H62   S    
C251  O8    A    
C42   H39   S    
O6    Zn7   S    
C156  C165  A    
C192  I16   S    
O7    Zn7   S    
C80   N6    A    
C237  C246  A    
C60   H52   S    
C80   O28   S    
C196  O3    A    
C235  C244  A    
C145  C195  S    
C124  C231  A    
C146  Cl16  S    
O15   Zn2   S    
C85   N7    A    
C86   N8    A    
C96   C103  A    
C225  C240  S    
O22   Zn3   S    
C219  C227  A    
C43   H40   S    
C266  H9    S    
C56   C65   A    
C175  C184  A    
C99   C118  A    
O4    Zn6   S    
C177  H63   S    
C249  H94   S    
C13   H23   S    
C148  C198  S    
C14   C236  A    
C64   Cl4   S    
C74   C119  S    
C36   I21   S    
C101  C228  A    
C254  H2    S    
C76   C121  S    
C59   C89   A    
C54   C87   A    
C3    C260  A    
C213  C222  A    
C25   C136  A    
O60   Zn3   S    
C196  O23   A    
C6    C15   A    
C115  H31   S    
C58   C66   A    
C114  H30   S    
C129  C138  A    
C30   C39   A    
C160  H54   S    
C33   I19   S    
C96   C115  A    
C104  C263  A    
C34   I20   S    
C79   C168  A    
C16   C203  S    
C19   C242  A    
C207  O34   A    
C222  C251  S    
C208  C216  A    
C139  C264  A    
C35   H45   S    
C191  I15   S    
C87   N5    S    
C229  O56   A    
O24   Zn4   S    
C269  H13   S    
C212  C221  A    
C103  C261  A    
C237  H82   S    
C34   C50   A    
C157  Cl17  S    
C154  C163  A    
C7    C269  A    
C243  H87   S    
O19   Zn11  S    
C4    H18   S    
C40   H37   S    
C47   C122  A    
C127  Cl19  S    
C141  O18   A    
C66   C73   A    
C181  H66   S    
C183  H69   S    
C28   N3    A    
C157  C199  A    
C221  C230  A    
C17   C204  S    
C128  C137  A    
C272  H16   S    
C149  O17   A    
C258  C271  A    
C145  O22   A    
C53   C62   A    
C9    C18   A    
C142  C179  S    
C63   C70   A    
C175  C234  S    
C55   C64   A    
C169  C227  S    
C131  Cl23  S    
C1    C219  S    
C46   C191  A    
C142  O19   A    
C38   C47   A    
O44   Zn8   S    
C36   C51   A    
C150  I24   S    
C141  O9    A    
C161  C170  A    
C161  H55   S    
C184  H70   S    
C27   N4    A    
C222  C231  A    
C44   H41   S    
C250  H95   S    
C135  Cl15  S    
C20   C208  S    
C28   O42   S    
C201  C210  A    
C15   C202  S    
C92   C100  A    
C98   C117  A    
C60   C91   A    
C125  C133  A    
O59   Zn2   S    
C90   C179  A    
O47   Zn10  S    
C243  C252  A    
C159  H53   S    
C52   C87   A    
C152  C161  A    
C205  C214  A    
O5    Zn7   S    
O3    Zn6   S    
C143  O11   A    
C155  C164  A    
C11   H26   S    
C85   O33   S    
C112  O12   A    
C151  C160  A    
O49   Zn12  S    
O34   Zn1   S    
O21   Zn9   S    
C257  H5    S    
C82   N6    A    
C194  C203  A    
C124  C195  A    
C259  H7    S    
C143  C190  S    
C66   Cl6   S    
C53   C88   A    
O12   Zn1   S    
C248  C257  A    
O17   Zn4   S    
C144  O21   A    
C41   H38   S    
C140  C265  A    
C132  C261  A    
O62   Zn5   S    
C193  I17   S    
C257  C270  A    
C239  H84   S    
C34   C43   A    
C83   N7    A    
C259  C272  A    
O13   Zn11  S    
C167  C176  A    
