data_mof_unit_21890.cif
_audit_creation_date              2012-12-10T18:05:49-0500
_audit_creation_method            fapswitch 2.2
_symmetry_space_group_name_H-M    P1
_symmetry_Int_Tables_number       1
_space_group_crystal_system       triclinic
_cell_length_a                    12.587115
_cell_length_b                    13.138047
_cell_length_c                    15.00352
_cell_angle_alpha                 90.539515
_cell_angle_beta                  102.644851
_cell_angle_gamma                 82.321138
_cell_volume                      2398.74105529

loop_
_atom_site_label
_atom_site_type_symbol
_atom_type_description
_atom_site_fract_x
_atom_site_fract_y
_atom_site_fract_z
_atom_type_partial_charge
C1    C     C_R   0.438743 0.691186 0.485875 0.854413
C2    C     C_R   0.600794 0.499994 0.833058 -0.247709
C3    C     C_R   0.501366 0.501197 0.769334 -0.079070
C4    C     C_R   0.500512 0.500561 0.673117 0.893127
C5    C     C_R   0.402427 0.501975 0.797214 -0.252527
C6    C     C_R   0.702296 0.064183 0.436132 -0.197227
C7    C     C_R   0.596787 0.200137 0.501629 -0.048349
C8    C     C_R   0.299643 0.838195 0.498580 -0.190871
C9    C     C_R   0.271043 0.942977 0.506866 -0.145609
C10   C     C_R   0.344764 0.010252 0.498092 -0.189989
C11   C     C_R   0.447019 0.973470 0.476233 0.085331
C12   C     C_R   0.401093 0.498089 0.074347 0.119493
C13   C     C_R   0.467514 0.869511 0.453780 0.083145
C14   C     C_R   0.529678 0.036300 0.475892 0.077509
C15   C     C_R   0.622341 0.000128 0.439229 0.173134
C16   C     C_R   0.561126 0.308748 0.509346 0.865978
C17   C     C_R   0.632677 0.901392 0.404841 -0.249524
C18   C     C_R   0.556241 0.836686 0.411965 -0.196684
C19   C     C_R   0.523498 0.133806 0.512714 -0.254802
C20   C     C_R   0.688477 0.164962 0.465786 -0.202623
C21   C     C_R   0.399395 0.800751 0.475127 -0.111759
C22   C     C_R   0.087574 0.346450 0.373541 -0.308435
C23   C     C_R   0.700421 0.495437 0.084699 -0.264022
C24   C     C_R   0.799855 0.630106 0.608094 0.025731
C25   C     C_R   0.904620 0.658616 0.630163 -0.243458
C26   C     C_R   0.986040 0.609454 0.589186 -0.203365
C27   C     C_R   0.962749 0.530826 0.525711 0.017779
C28   C     C_R   0.499668 0.499127 0.326942 0.872766
C29   C     C_R   0.854638 0.504390 0.505927 0.240173
C30   C     C_R   0.041814 0.477624 0.481220 -0.012758
C31   C     C_R   0.011132 0.399632 0.418138 0.198747
C32   C     C_R   0.904633 0.375061 0.400386 -0.305721
C33   C     C_R   0.827874 0.426496 0.443969 -0.225654
C34   C     C_R   0.702259 0.496845 0.992267 0.002138
C35   C     C_R   0.150872 0.498155 0.496642 -0.054677
C36   C     C_R   0.193908 0.370489 0.391908 0.006897
C37   C     C_R   0.401035 0.497606 0.166647 -0.255839
C38   C     C_R   0.499833 0.497122 0.230986 -0.071583
C39   C     C_R   0.599487 0.495653 0.203791 -0.252036
C40   C     C_R   0.601006 0.496032 0.111912 0.096655
C41   C     C_R   0.501528 0.497600 0.046726 0.062710
C42   C     C_1   0.807111 0.496531 0.967583 0.145906
C43   C     C_R   0.602851 0.498709 0.926218 0.058048
C44   C     C_R   0.502278 0.498977 0.954036 0.046327
C45   C     C_R   0.402049 0.500753 0.889179 0.125504
C46   C     C_R   0.302860 0.501120 0.917042 -0.214484
C47   C     C_R   0.302389 0.499752 0.009445 -0.211643
H1    H     H_    0.324049 0.498899 0.188202 0.163850
H2    H     H_    0.880450 0.315463 0.352670 0.153917
H3    H     H_    0.065373 0.286811 0.325319 0.146401
H4    H     H_    0.676137 0.494318 0.254018 0.167653
H5    H     H_    0.182023 0.555383 0.543338 0.122052
H6    H     H_    0.736082 0.668231 0.639447 0.142730
H7    H     H_    0.065793 0.634632 0.608497 0.133439
H8    H     H_    0.922651 0.718785 0.678723 0.153157
H9    H     H_    0.747984 0.403392 0.427872 0.210928
H10   H     H_    0.776630 0.494150 0.135577 0.155150
H11   H     H_    0.676437 0.499003 0.809663 0.175133
H12   H     H_    0.700882 0.873500 0.373856 0.151628
H13   H     H_    0.325366 0.503723 0.747387 0.158839
H14   H     H_    0.225816 0.502478 0.867387 0.153523
H15   H     H_    0.225057 0.500186 0.030149 0.156557
H16   H     H_    0.745880 0.216244 0.456516 0.149792
H17   H     H_    0.772790 0.037692 0.407504 0.136314
H18   H     H_    0.459253 0.161982 0.547503 0.150442
H19   H     H_    0.245407 0.786295 0.513383 0.151578
H20   H     H_    0.318454 0.090661 0.506457 0.135532
H21   H     H_    0.193494 0.971844 0.524030 0.143324
H22   H     H_    0.566644 0.761070 0.383328 0.174285
H23   H     H_    0.254486 0.329971 0.358468 0.138035
N1    N     N_R   0.222190 0.444670 0.452360 -0.102793
N2    N     N_R   0.776970 0.554790 0.547140 -0.133283
N3    N     N_1   0.891046 0.496294 0.947873 -0.217293
O1    O     O_R   0.366740 0.627160 0.477250 -0.616166
O2    O     O_R   0.544830 0.662520 0.507680 -0.618387
O3    O     O_R   0.410940 0.482340 0.616930 -0.624693
O4    O     O_R   0.589030 0.517700 0.647360 -0.622580
O5    O     O_R   0.455170 0.337480 0.492320 -0.615040
O6    O     O_R   0.633260 0.372840 0.522750 -0.634481
O7    O     O_R   0.410970 0.482300 0.352640 -0.619775
O8    O     O_R   0.589060 0.517660 0.383070 -0.649996
Zn1   Zn    Zn3+2 0.381090 0.476390 0.479680 0.939710
Zn2   Zn    Zn3+2 0.618910 0.523610 0.520320 0.929427

loop_
_geom_bond_atom_site_label_1
_geom_bond_atom_site_label_2
_ccdc_geom_bond_type
C39   H4    S    
C1    C21   S    
C27   C29   A    
C34   C42   S    
C47   H15   S    
C10   H20   S    
C8    H19   S    
C26   C27   A    
C37   C38   A    
C30   C35   A    
C1    O1    A    
C30   C31   A    
C11   C14   A    
O4    Zn2   S    
C23   C40   A    
C29   C33   A    
C23   H10   S    
C6    H17   S    
C12   C37   A    
C6    C15   A    
C8    C9    A    
C9    C10   A    
C36   N1    A    
C22   H3    S    
N1    Zn1   S    
C18   H22   S    
C35   N1    A    
C27   C30   A    
O1    Zn1   S    
C12   C47   A    
C26   H7    S    
O8    Zn2   S    
C36   H23   S    
C8    C21   A    
C22   C31   A    
C46   H14   S    
C1    O2    A    
C24   C25   A    
O7    Zn1   S    
O3    Zn1   S    
C39   C40   A    
C24   H6    S    
C45   C46   A    
C5    C45   A    
C43   C44   A    
C12   C41   A    
O5    Zn1   S    
C31   C32   A    
C28   C38   S    
C2    C43   A    
C23   C34   A    
C17   C18   A    
C13   C21   A    
C37   H1    S    
C17   H12   S    
C13   C18   A    
C7    C16   S    
C7    C19   A    
C41   C44   A    
C3    C4    S    
C22   C36   A    
C44   C45   A    
C24   N2    A    
C15   C17   A    
C46   C47   A    
C40   C41   A    
C42   N3    T    
C5    H13   S    
C28   O8    A    
C14   C19   A    
C34   C43   A    
C25   H8    S    
C3    C5    A    
C2    H11   S    
C6    C20   A    
C16   O6    A    
C32   C33   A    
C29   N2    A    
C20   H16   S    
C2    C3    A    
C25   C26   A    
C9    H21   S    
C4    O4    A    
O6    Zn2   S    
C11   C13   A    
O2    Zn2   S    
C38   C39   A    
C33   H9    S    
C19   H18   S    
C16   O5    A    
C28   O7    A    
C32   H2    S    
C4    O3    A    
N2    Zn2   S    
C10   C11   A    
C7    C20   A    
C35   H5    S    
C14   C15   A    
