data_mof_unit_11338.cif
_audit_creation_date              2012-12-11T14:36:08-0500
_audit_creation_method            fapswitch 2.2
_symmetry_space_group_name_H-M    P1
_symmetry_Int_Tables_number       1
_space_group_crystal_system       triclinic
_cell_length_a                    13.48632
_cell_length_b                    13.483124
_cell_length_c                    27.525709
_cell_angle_alpha                 90.677227
_cell_angle_beta                  90.190611
_cell_angle_gamma                 60.052185
_cell_volume                      4336.59649712

loop_
_atom_site_label
_atom_site_type_symbol
_atom_type_description
_atom_site_fract_x
_atom_site_fract_y
_atom_site_fract_z
_atom_type_partial_charge
C1    C     C_R   0.619929 0.100927 0.570511 0.547134
C2    C     C_1   0.629796 0.735174 0.617002 -0.008593
C3    C     C_3   0.628334 0.605956 0.770986 -0.068571
C4    C     C_3   0.676522 0.660593 0.806270 0.057178
C5    C     C_3   0.558465 0.722764 0.745744 -0.107456
C6    C     C_3   0.660524 0.690125 0.711662 0.037373
C7    C     C_3   0.606671 0.777218 0.781758 -0.111132
C8    C     C_3   0.708588 0.745102 0.746838 -0.107967
C9    C     C_1   0.686094 0.637933 0.858511 -0.028067
C10   C     C_1   0.647255 0.710074 0.659259 -0.052489
C11   C     C_3   0.070737 0.187236 0.737030 -0.056780
C12   C     C_R   0.599421 0.780077 0.568939 0.548144
C13   C     C_3   0.133436 0.088157 0.773140 0.218725
C14   C     C_1   0.097913 0.200992 0.902049 0.026294
C15   C     C_1   0.233359 0.136620 0.618190 -0.006384
C16   C     C_3   0.089139 0.267375 0.772151 -0.105191
C17   C     C_3   0.151810 0.167459 0.807703 0.065933
C18   C     C_3   0.205081 0.232482 0.747313 -0.128365
C19   C     C_3   0.186279 0.152480 0.713000 0.010691
C20   C     C_3   0.267425 0.132701 0.783483 -0.142471
C21   C     C_3   0.249297 0.052269 0.748303 -0.089555
C22   C     C_1   0.127119 0.181442 0.860023 0.010317
C23   C     C_R   0.278465 0.121550 0.569872 0.546985
C24   C     C_1   0.207775 0.144930 0.660557 -0.047626
C25   C     C_3   0.599203 0.276958 0.742763 -0.087924
C26   C     C_3   0.545083 0.233009 0.780479 -0.133031
C27   C     C_1   0.688094 0.205490 0.904064 0.028066
C28   C     C_1   0.634009 0.131430 0.619226 -0.007055
C29   C     C_3   0.710423 0.223684 0.772847 0.202993
C30   C     C_3   0.656709 0.180216 0.809915 0.061704
C31   C     C_3   0.758653 0.110061 0.744059 -0.059188
C32   C     C_3   0.646946 0.162832 0.714638 0.015578
C33   C     C_3   0.704389 0.066331 0.781667 -0.116861
C34   C     C_R   0.621996 0.099125 0.431026 0.543035
C35   C     C_3   0.592508 0.118702 0.751478 -0.130298
C36   C     C_1   0.669228 0.192366 0.862312 0.003047
C37   C     C_1   0.641217 0.149009 0.661850 -0.047577
C38   C     C_R   0.729696 0.706433 0.357692 -0.136626
C39   C     C_R   0.742551 0.692740 0.307309 0.007681
C40   C     C_R   0.766669 0.660919 0.206376 0.023266
C41   C     C_R   0.861691 0.637502 0.235239 -0.087759
C42   C     C_R   0.849416 0.654615 0.285438 -0.125349
C43   C     C_R   0.780020 0.632660 0.157149 -0.106140
C44   C     C_R   0.686558 0.643742 0.130075 -0.005348
C45   C     C_R   0.599296 0.780089 0.429207 0.546544
C46   C     C_R   0.528614 0.762672 0.349576 -0.101841
C47   C     C_R   0.538797 0.754324 0.299591 0.013583
C48   C     C_R   0.646249 0.718243 0.278211 0.061585
C49   C     C_R   0.442614 0.782833 0.270759 -0.084846
C50   C     C_R   0.453715 0.770963 0.220569 -0.084543
C51   C     C_R   0.561493 0.728333 0.199055 0.017355
C52   C     C_R   0.657793 0.704570 0.227777 0.060940
C53   C     C_R   0.576382 0.699584 0.149999 -0.113224
C54   C     C_R   0.622694 0.741659 0.378800 0.004479
C55   C     C_R   0.200020 0.070876 0.357783 -0.143792
C56   C     C_R   0.282847 0.118773 0.429677 0.543981
C57   C     C_R   0.178960 0.078750 0.307719 0.008822
C58   C     C_R   0.131297 0.102130 0.208003 -0.006215
C59   C     C_R   0.104320 0.032655 0.236218 -0.118655
C60   C     C_R   0.128645 0.020509 0.285783 -0.132108
C61   C     C_R   0.097057 0.123484 0.159901 -0.159684
C62   C     C_R   0.116308 0.199661 0.132449 0.006751
C63   C     C_R   0.274676 0.201059 0.350233 -0.117957
C64   C     C_R   0.257977 0.206518 0.300585 0.003113
C65   C     C_R   0.208570 0.146704 0.279041 0.065607
C66   C     C_R   0.290356 0.271070 0.272350 -0.134543
C67   C     C_3   0.730227 0.573677 0.736177 -0.079280
C68   C     C_R   0.271124 0.279470 0.222647 -0.095024
C69   C     C_R   0.216140 0.225548 0.200452 0.022480
C70   C     C_R   0.186398 0.157189 0.229010 0.033761
C71   C     C_R   0.184714 0.243044 0.151212 0.141653
C72   C     C_R   0.246379 0.133431 0.379103 -0.000123
C73   C     C_R   0.569235 0.238379 0.363412 -0.117928
C74   C     C_R   0.574287 0.258609 0.313667 -0.009897
C75   C     C_R   0.583365 0.289866 0.212842 -0.010535
C76   C     C_R   0.506226 0.382379 0.242728 0.179169
C77   C     C_R   0.502365 0.367031 0.293120 0.164480
C78   C     C_3   0.778657 0.627994 0.772209 -0.090199
C79   C     C_R   0.596516 0.304685 0.163336 -0.093002
C80   C     C_R   0.677864 0.213254 0.135114 -0.018212
C81   C     C_R   0.723054 0.042420 0.353063 -0.122379
C82   C     C_R   0.726055 0.058512 0.303715 -0.013149
C83   C     C_R   0.651271 0.166311 0.283548 0.015970
C84   C     C_R   0.801223 0.966364 0.274333 -0.095835
C85   C     C_R   0.804130 0.979401 0.224585 0.149671
C86   C     C_R   0.731183 0.086792 0.203783 0.030423
C87   C     C_R   0.654442 0.180980 0.233354 -0.004277
C88   C     C_R   0.738134 0.103730 0.154546 -0.101938
C89   C     C_1   0.695961 0.610091 0.900479 0.009267
C90   C     C_R   0.641853 0.130059 0.382769 -0.007663
C91   C     C_R   0.049209 0.236250 0.949757 0.555049
C92   C     C_R   0.711420 0.563150 0.948212 0.549905
C93   C     C_R   0.721584 0.225092 0.951163 0.556276
C94   C     C_R   0.050545 0.243349 0.087622 0.570455
C95   C     C_R   0.707809 0.576255 0.085746 0.542066
C96   C     C_R   0.718236 0.234064 0.089233 0.543662
Cr1   Cr    Cr6+3 0.417550 0.169090 0.500530 1.040263
Cr2   Cr    Cr6+3 0.669180 0.913420 0.499920 1.032446
Cr3   Cr    Cr6+3 0.413260 0.917540 0.499520 1.039938
Cr4   Cr    Cr6+3 0.909170 0.177380 0.020380 1.063471
Cr5   Cr    Cr6+3 0.912710 0.429210 0.018220 1.081165
Cr6   Cr    Cr6+3 0.657170 0.432570 0.019030 1.064477
H1    H     H_    0.234665 0.292280 0.736077 0.122697
H2    H     H_    0.023164 0.356085 0.782404 0.134811
H3    H     H_    0.457407 0.282645 0.795880 0.116815
H4    H     H_    0.557311 0.363403 0.726457 0.123344
H5    H     H_    0.746778 0.979939 0.798035 0.126260
H6    H     H_    0.846386 0.060743 0.728695 0.161622
H7    H     H_    0.865173 0.591279 0.141388 0.161697
H8    H     H_    0.780926 0.490382 0.716889 0.142076
H9    H     H_    0.801596 0.692153 0.380265 0.122207
H10   H     H_    0.945850 0.603563 0.219121 0.168755
H11   H     H_    0.923838 0.635405 0.307222 0.130450
H12   H     H_    0.504059 0.710356 0.128573 0.147584
H13   H     H_    0.047568 0.086953 0.145059 0.155123
H14   H     H_    0.180707 0.016719 0.379971 0.121912
H15   H     H_    0.062075 0.989801 0.220155 0.160834
H16   H     H_    0.741658 0.802478 0.736254 0.115124
H17   H     H_    0.295764 0.332201 0.202564 0.198330
H18   H     H_    0.328858 0.316758 0.288931 0.155163
H19   H     H_    0.314582 0.246557 0.366062 0.151210
H20   H     H_    0.550528 0.388458 0.147215 0.189805
H21   H     H_    0.506928 0.304368 0.387158 0.173651
H22   H     H_    0.797848 0.033638 0.131629 0.190551
H23   H     H_    0.555945 0.860798 0.800849 0.107843
H24   H     H_    0.858125 0.883646 0.290100 0.143083
H25   H     H_    0.467941 0.760756 0.734176 0.119043
H26   H     H_    0.594142 0.549472 0.781451 0.152370
H27   H     H_    0.990919 0.208746 0.717108 0.156641
H28   H     H_    0.314772 0.963633 0.737879 0.119608
O1    O     O_R   0.301710 0.195650 0.554160 -0.503239
O2    O     O_R   0.658900 0.818120 0.449760 -0.502896
O3    O     O_R   0.503220 0.801620 0.445520 -0.513404
O4    O     O_R   0.319370 0.022040 0.450020 -0.502211
O5    O     O_3   0.499990 0.000010 0.499990 -0.255680
O6    O     O_R   0.818720 0.150820 0.967160 -0.490513
O7    O     O_R   0.006410 0.181720 0.970200 -0.482556
O8    O     O_R   0.027890 0.334070 0.964920 -0.498040
O9    O     O_R   0.809600 0.521790 0.967960 -0.494050
O10   O     O_R   0.635520 0.542770 0.964420 -0.499041
O11   O     O_R   0.665950 0.325030 0.970100 -0.490365
O12   O     O_R   0.522390 0.158990 0.550460 -0.492490
O13   O     O_R   0.816620 0.158530 0.074540 -0.517394
O14   O     O_R   0.004460 0.188870 0.069750 -0.515036
O15   O     O_R   0.025800 0.341780 0.072300 -0.458006
O16   O     O_R   0.807650 0.528950 0.067500 -0.501919
O17   O     O_R   0.633420 0.550490 0.071810 -0.509184
O18   O     O_R   0.664000 0.332180 0.069640 -0.493840
O19   O     O_3   0.826350 0.346390 0.019210 -0.264805
O20   O     O_R   0.694390 0.003530 0.554040 -0.503043
O21   O     O_R   0.657700 0.819660 0.549320 -0.494015
O22   O     O_R   0.501930 0.803280 0.552920 -0.500918
O23   O     O_R   0.318170 0.023580 0.549580 -0.492899
O24   O     O_R   0.303010 0.193990 0.446760 -0.515420
O25   O     O_R   0.523600 0.157450 0.450900 -0.502579
O26   O     O_R   0.695690 0.001860 0.446640 -0.517833
H29   H     H_    0.869342 0.589123 0.783728 0.114474
H30   H     H_    0.348167 0.110339 0.802848 0.109162
H31   H     H_    0.543557 0.075000 0.742079 0.114724
Br1   Br    Br    0.795593 0.299408 0.790217 -0.599723
H32   H     H_    0.379169 0.790272 0.198830 0.152148
H33   H     H_    0.359380 0.812283 0.287091 0.142748
H34   H     H_    0.444662 0.792707 0.365395 0.150308
H35   H     H_    0.106017 0.967603 0.307088 0.131780
Br2   Br    Br    0.235977 0.323965 0.109779 -0.476355
Br3   Br    Br    0.403895 0.530368 0.215228 -0.474171
Br4   Br    Br    0.398610 0.495816 0.333391 -0.503756
Br5   Br    Br    0.914265 0.848427 0.187745 -0.555768
H36   H     H_    0.779189 0.958011 0.367603 0.137098
Br6   Br    Br    0.081775 0.983534 0.792086 -0.512204

loop_
_geom_bond_atom_site_label_1
_geom_bond_atom_site_label_2
_ccdc_geom_bond_type
C66   C68   A    
C4    C9    S    
C41   C42   A    
C12   O22   A    
C83   C87   A    
C33   H5    S    
C74   C83   A    
C88   H22   S    
C93   O6    A    
C2    C12   S    
C81   C82   A    
Cr5   O9    S    
C8    H16   S    
C7    C8    S    
C47   C49   A    
C34   O25   A    
C67   C78   S    
C11   C19   S    
C19   C21   S    
C73   C90   A    
C68   H17   S    
C38   C39   A    
C33   C35   S    
C86   C88   A    
C55   H14   S    
C65   C70   A    
C17   C20   S    
Cr3   O3    S    
C18   C19   S    
C73   C74   A    
C69   C71   A    
C23   O23   A    
C1    O12   A    
C67   H8    S    
Cr6   O18   S    
C91   O7    A    
C44   C53   A    
C16   H2    S    
C40   C43   A    
C31   C32   S    
C16   C17   S    
C56   C72   S    
C41   H10   S    
C30   C36   S    
C61   H13   S    
C1    C28   S    
C31   C33   S    
C76   Br3   S    
Cr6   O11   S    
C81   H36   S    
C29   Br1   S    
C58   C61   A    
C55   C72   A    
C94   O15   A    
C15   C23   S    
C59   C60   A    
C59   H15   S    
C66   H18   S    
C50   H32   S    
C8    C78   S    
C12   O21   A    
C5    H25   S    
C61   C62   A    
C95   O16   A    
C4    C7    S    
C11   H27   S    
C26   H3    S    
C63   H19   S    
C25   H4    S    
C39   C42   A    
Cr2   O21   S    
C25   C29   S    
C96   O18   A    
C79   H20   S    
Cr2   O26   S    
Cr5   O16   S    
C23   O1    A    
C51   C52   A    
C32   C35   S    
C95   O17   A    
C84   C85   A    
Cr1   O1    S    
C56   O24   A    
Cr4   O14   S    
C9    C89   T    
C5    C7    S    
C3    H26   S    
C58   C70   A    
C57   C60   A    
C6    C8    S    
C73   H21   S    
C58   C59   A    
C85   C86   A    
Cr2   O5    S    
C74   C77   A    
C7    H23   S    
C63   C64   A    
Cr3   O4    S    
Cr1   O12   S    
C51   C53   A    
C64   C66   A    
C75   C76   A    
C34   C90   S    
C4    C78   S    
C29   C30   S    
Cr6   O17   S    
C91   O8    A    
C11   C16   S    
C42   H11   S    
C47   C48   A    
C38   C54   A    
Cr5   O15   S    
C46   C54   A    
C50   C51   A    
Cr3   O5    S    
C1    O20   A    
C16   C18   S    
Cr6   O10   S    
C32   C37   S    
C76   C77   A    
C89   C92   S    
C49   H33   S    
C81   C90   A    
C75   C87   A    
C15   C24   T    
C45   C54   S    
C26   C30   S    
C82   C84   A    
C46   H34   S    
C55   C57   A    
C43   C44   A    
Cr4   O19   S    
C49   C50   A    
C14   C91   S    
C27   C93   S    
C80   C96   S    
Cr1   O5    S    
C3    C4    S    
C92   O10   A    
C31   H6    S    
C6    C67   S    
C78   H29   S    
C93   O11   A    
C53   H12   S    
Cr2   O20   S    
C46   C47   A    
C40   C41   A    
C30   C33   S    
C20   C21   S    
C86   C87   A    
C85   Br5   S    
C68   C69   A    
C3    C67   S    
C57   C65   A    
C3    C5    S    
Cr4   O13   S    
Cr1   O24   S    
C6    C10   S    
C56   O4    A    
Cr5   O8    S    
C13   Br6   S    
C34   O26   A    
C27   C36   T    
C77   Br4   S    
Cr3   O22   S    
C45   O3    A    
C17   C22   S    
C13   C17   S    
C94   O14   A    
C64   C65   A    
C14   C22   T    
C84   H24   S    
C62   C94   S    
C19   C24   S    
C25   C26   S    
C80   C88   A    
C44   C95   S    
C40   C52   A    
C13   C21   S    
C96   O13   A    
C11   C13   S    
C5    C6    S    
C28   C37   T    
C25   C32   S    
Cr3   O23   S    
Cr5   O19   S    
C60   H35   S    
C62   C71   A    
C18   C20   S    
C18   H1    S    
Cr1   O25   S    
C69   C70   A    
C35   H31   S    
C21   H28   S    
Cr4   O7    S    
Cr6   O19   S    
C79   C80   A    
C26   C35   S    
C48   C52   A    
C63   C72   A    
C45   O2    A    
C29   C31   S    
C82   C83   A    
C71   Br2   S    
Cr2   O2    S    
C20   H30   S    
C43   H7    S    
C38   H9    S    
C92   O9    A    
C75   C79   A    
Cr4   O6    S    
C39   C48   A    
C2    C10   T    
