data_mof_unit_66683.cif
_audit_creation_date              2013-03-05T15:58:39-0500
_audit_creation_method            fapswitch 2.2
_symmetry_space_group_name_H-M    P1
_symmetry_Int_Tables_number       1
_space_group_crystal_system       triclinic
_cell_length_a                    8.390024
_cell_length_b                    12.673992
_cell_length_c                    14.90546
_cell_angle_alpha                 96.62608
_cell_angle_beta                  97.430953
_cell_angle_gamma                 98.707318
_cell_volume                      1538.74912381

loop_
_atom_site_label
_atom_site_type_symbol
_atom_site_description
_atom_site_fract_x
_atom_site_fract_y
_atom_site_fract_z
_atom_type_partial_charge
P1    P     P_3+3 0.998770 0.403620 0.291990 0.471892
O1    O     O_2   0.827930 0.435360 0.277760 -0.366986
O2    O     O_3   0.100310 0.439010 0.391180 -0.395890
O3    O     O_3   0.625610 0.634200 0.333270 -0.336311
O4    O     O_2   0.659637 0.519392 0.177026 -0.346568
O5    O     O_3   0.980543 0.264708 0.262627 -0.592533
O6    O     O_3   0.673279 0.719532 0.166247 -0.483073
C1    C     C_3   0.613169 0.865183 0.086394 -1.049215
H1    H     H_    0.560483 0.940277 0.092108 0.229736
H2    H     H_    0.744989 0.888521 0.085917 0.266904
P2    P     P_3+3 0.687370 0.751000 0.571300 0.456188
P3    P     P_3+3 0.112341 0.830605 0.388125 0.551103
O7    O     O_2   0.857120 0.766320 0.543890 -0.382600
O8    O     O_3   0.056570 0.691100 0.379020 -0.328292
O9    O     O_2   0.997857 0.882126 0.446515 -0.336431
O10   O     O_3   0.716731 0.784050 0.689423 -0.594113
O11   O     O_3   0.056706 0.869539 0.281654 -0.466760
C2    C     C_3   0.174582 0.858757 0.224261 0.199973
H3    H     H_    0.239077 0.790100 0.236611 0.095586
H4    H     H_    0.262483 0.935546 0.235136 0.096492
C3    C     C_3   0.085310 0.839984 0.125494 0.303400
H5    H     H_    0.009642 0.903978 0.118933 0.108020
C4    C     C_3   0.281958 0.783289 0.657124 0.365000
H6    H     H_    0.416108 0.792607 0.664868 0.108472
H7    H     H_    0.227454 0.735986 0.589937 0.111593
C5    C     C_3   0.233042 0.894110 0.659403 -0.928102
H8    H     H_    0.234492 0.930913 0.730620 0.280902
H9    H     H_    0.316170 0.947619 0.625608 0.226404
H10   H     H_    0.108027 0.887017 0.623443 0.273768
Ba1   Ba    Ba6+2 0.843760 0.550230 0.455610 1.602548
C6    C     C_3   0.860160 0.206115 0.301698 0.625716
H11   H     H_    0.792501 0.256807 0.343381 0.096322
C7    C     C_3   0.741889 0.136660 0.223264 -0.827040
H12   H     H_    0.685185 0.189430 0.178832 0.219342
H13   H     H_    0.644811 0.085022 0.249354 0.277418
H14   H     H_    0.807688 0.085002 0.180985 0.250736
C8    C     C_3   0.807389 0.714783 0.730677 0.346306
H15   H     H_    0.929354 0.723028 0.709128 0.119644
H16   H     H_    0.742583 0.630336 0.712708 0.071807
C9    C     C_3   0.826626 0.745648 0.834016 -0.340551
H17   H     H_    0.922460 0.704906 0.866425 0.196233
H18   H     H_    0.709617 0.717080 0.858131 0.214427
P4    P     P_3+3 0.190950 0.596470 0.708020 0.454294
O12   O     O_2   0.361790 0.564680 0.722290 -0.363324
O13   O     O_3   0.089410 0.561080 0.608830 -0.402202
O14   O     O_3   0.564100 0.365890 0.666740 -0.391882
O15   O     O_3   0.230810 0.737125 0.731575 -0.578084
P5    P     P_3+3 0.082623 0.169501 0.621521 0.423399
O16   O     O_3   0.601940 0.368260 0.453780 -0.395383
O17   O     O_3   0.133140 0.308990 0.620990 -0.378304
O18   O     O_2   0.189575 0.116402 0.558940 -0.399012
O19   O     O_3   0.150629 0.134749 0.729444 -0.556385
Ba2   Ba    Ba6+2 0.346080 0.449860 0.544400 1.544535
P6    P     P_3+3 0.575076 0.611794 0.213113 0.529299
C10   C     C_3   0.581988 0.803310 0.166390 0.948811
H19   H     H_    0.449987 0.773350 0.158530 -0.137357
H20   H     H_    0.558833 0.815005 0.020436 0.247940
O20   O     O_3   0.587770 0.631830 0.546230 -0.386531
C11   C     C_3   0.407631 0.284626 0.267932 0.432169
H21   H     H_    0.316003 0.318781 0.304707 0.120119
H22   H     H_    0.514035 0.348673 0.268540 0.112455
C12   C     C_3   0.328874 0.245671 0.169409 -1.010492
H23   H     H_    0.218904 0.183953 0.167552 0.278501
H24   H     H_    0.292492 0.314175 0.136382 0.219855
H25   H     H_    0.415476 0.209779 0.129957 0.260804
P7    P     P_3+3 0.504963 0.233042 0.425574 0.416631
O21   O     O_2   0.332600 0.233710 0.456170 -0.364671
O22   O     O_3   0.459035 0.197498 0.307123 -0.586955
C13   C     C_3   0.131480 0.213253 0.800817 0.753121
H26   H     H_    0.194149 0.294577 0.792345 0.130697
C14   C     C_3   0.208565 0.184906 0.891986 -0.951682
H27   H     H_    0.340157 0.184882 0.893456 0.281969
H28   H     H_    0.194714 0.245432 0.949420 0.228515
H29   H     H_    0.150102 0.103799 0.903419 0.253574
P8    P     P_3+3 0.610197 0.382091 0.785719 0.437519
C15   C     C_3   0.551461 0.173554 0.750064 0.467657
H30   H     H_    0.649429 0.184487 0.707377 0.060290
O23   O     O_2   0.485235 0.444306 0.825786 -0.387914
O24   O     O_3   0.572004 0.256570 0.823815 -0.542796
H31   H     H_    0.434775 0.170637 0.705241 0.165598
H32   H     H_    0.655335 0.074153 0.844137 0.273361
C16   C     C_3   0.552599 0.066945 0.787775 -1.054235
H33   H     H_    0.564482 0.002651 0.733049 0.237804
H34   H     H_    0.439460 0.044316 0.816759 0.278499
C17   C     C_R   0.356146 0.564162 0.170472 0.094345
H35   H     H_    0.316997 0.534838 0.305378 0.157062
H36   H     H_    0.506383 0.623914 0.028822 0.196585
C18   C     C_R   0.104861 0.471567 0.207607 0.379153
C19   C     C_R   0.920503 0.483428 0.766946 -0.538737
C20   C     C_R   0.820413 0.449309 0.829123 0.269791
C21   C     C_R   0.883229 0.457602 0.921798 -0.250143
C22   C     C_R   0.049480 0.499891 0.954240 0.073415
C23   C     C_R   0.147060 0.543023 0.890439 -0.011845
C24   C     C_R   0.120739 0.503610 0.048305 0.093424
C25   C     C_R   0.286648 0.553036 0.076897 0.017601
C26   C     C_R   0.378575 0.591500 0.011804 -0.237079
C27   C     C_R   0.308482 0.592015 0.922517 -0.089337
C28   C     C_R   0.034895 0.457836 0.114900 -0.224475
C29   C     C_R   0.262351 0.527314 0.234569 -0.456494
C30   C     C_R   0.081056 0.534339 0.795898 0.229262
H37   H     H_    0.913913 0.411351 0.097052 0.142745
H38   H     H_    0.870464 0.473431 0.695254 0.182053
H39   H     H_    0.800140 0.428586 0.966373 0.165449
H40   H     H_    0.385340 0.630761 0.879176 0.175990
C31   C     C_R   0.767932 0.182724 0.536965 -0.512565
C32   C     C_R   0.422994 0.810140 0.469728 -0.423517
C33   C     C_R   0.385079 0.989875 0.445428 -0.113572
C34   C     C_R   0.323668 0.880901 0.439024 0.179310
C35   C     C_R   0.580405 0.848848 0.515989 0.316586
C36   C     C_R   0.643388 0.961487 0.527057 -0.048326
C37   C     C_R   0.545838 0.031626 0.487159 -0.017966
C38   C     C_R   0.611421 0.141506 0.489809 0.234579
C39   C     C_R   0.865150 0.115288 0.576612 0.251135
C40   C     C_R   0.801310 0.005996 0.574005 -0.201902
H41   H     H_    0.305895 0.039681 0.415013 0.173494
H42   H     H_    0.877355 0.956892 0.607540 0.175350
H43   H     H_    0.818737 0.266618 0.537630 0.181522
H44   H     H_    0.374142 0.724948 0.461481 0.144936
N1    N     N_R   0.631857 0.875009 0.251395 0.218281
O25   O     O_R   0.526370 0.894962 0.303945 -0.533037
O26   O     O_R   0.782783 0.918593 0.276245 -0.365543
C41   C     C_3   0.944547 0.136513 0.362677 -0.746499
H45   H     H_    0.021992 0.189659 0.421256 0.237996
H46   H     H_    0.854103 0.079746 0.388775 0.245714
H47   H     H_    0.023464 0.090323 0.324929 0.266131
C42   C     C_3   0.873913 0.867639 0.862997 -0.789309
H48   H     H_    0.993856 0.897582 0.842872 0.243717
H49   H     H_    0.780848 0.911057 0.831368 0.272418
H50   H     H_    0.880168 0.886558 0.937979 0.249868
C43   C     C_3   0.201502 0.851420 0.055153 -1.145886
H51   H     H_    0.289475 0.927725 0.074157 0.259559
H52   H     H_    0.263601 0.781020 0.047397 0.284611
H53   H     H_    0.133760 0.854426 0.987212 0.292018
C44   C     C_3   0.951668 0.214356 0.804808 -1.009178
H54   H     H_    0.904705 0.260919 0.751968 0.216448
H55   H     H_    0.886063 0.130205 0.791167 0.261338
H56   H     H_    0.930724 0.251913 0.872304 0.250577
N2    N     N_R   0.979808 0.734321 0.105637 0.281407
O27   O     O_R   0.972674 0.669370 0.166985 -0.333944
O28   O     O_R   0.880572 0.708285 0.029171 -0.426184

loop_
_geom_bond_atom_site_label_1
_geom_bond_atom_site_label_2
_geom_bond_distance
_ccdc_geom_bond_type
P7    O22   1.748290 S    
C10   H19   1.101491 S    
C13   C44   1.519570 S    
Ba2   O20   2.826096 S    
C19   H38   1.082046 S    
P2    C35   1.845140 S    
C2    C3    1.537816 S    
C17   C25   1.422890 A    
Ba1   O13   2.847222 S    
C37   C38   1.411871 A    
C15   O24   1.405115 S    
O6    C10   1.400071 S    
C44   H56   1.109115 S    
H32   C16   1.108247 S    
C10   N1    1.445070 S    
C5    H8    1.106905 S    
C42   H48   1.111487 S    
C31   C39   1.395697 A    
P1    O1    1.541732 D    
C8    C9    1.526153 S    
C11   O22   1.405179 S    
C24   C28   1.425461 A    
C7    H14   1.111195 S    
C2    H3    1.112488 S    
C4    C5    1.519682 S    
C13   C14   1.532865 S    
C36   C37   1.424833 A    
P1    Ba1   3.405621 S    
C12   H24   1.108750 S    
O19   C13   1.412748 S    
P8    C20   1.837866 S    
O12   Ba2   2.850741 S    
P4    Ba2   3.406179 S    
P5    O18   1.543598 D    
C25   C26   1.400988 A    
P2    Ba1   3.428344 S    
C1    H1    1.107642 S    
P3    O11   1.743216 S    
C4    H6    1.103209 S    
C6    C7    1.524557 S    
P2    O20   1.589329 S    
P4    O15   1.748618 S    
C36   C40   1.416406 A    
O10   C8    1.390369 S    
P1    C18   1.850220 S    
P5    O17   1.755663 S    
P7    O21   1.572503 D    
O13   Ba2   2.947590 S    
C11   H21   1.110784 S    
C3    H5    1.108400 S    
C32   H44   1.082240 S    
C31   H43   1.082405 S    
C13   H26   1.112606 S    
C3    N2    1.465042 S    
O8    Ba1   2.776914 S    
C1    C10   1.529547 S    
O14   P8    1.746804 S    
C7    H12   1.108724 S    
N1    O26   1.290527 A    
Ba1   Ba2   4.584174 S    
C11   H22   1.110300 S    
O17   Ba2   2.777566 S    
C4    O15   1.398210 S    
O16   P7    1.760327 S    
C19   C30   1.392595 A    
P1    O5    1.742952 S    
C18   C29   1.386036 A    
O4    P6    1.539181 D    
P4    C30   1.875241 S    
C15   C16   1.522986 S    
C21   C22   1.416359 A    
P3    C34   1.823140 S    
C44   H55   1.106820 S    
C42   H50   1.108408 S    
P1    O2    1.586917 S    
O2    Ba1   2.946742 S    
C43   H52   1.101568 S    
P4    O12   1.542026 D    
C8    H15   1.105268 S    
C17   C29   1.391524 A    
C1    H20   1.109429 S    
C14   H29   1.111627 S    
P2    O10   1.738535 S    
O7    Ba1   2.877822 S    
C6    H11   1.109306 S    
P3    O9    1.543200 D    
C33   C34   1.386917 A    
C9    C42   1.533064 S    
C26   C27   1.384847 A    
C12   H23   1.110757 S    
C22   C24   1.443905 A    
O11   C2    1.400481 S    
C15   H30   1.104886 S    
H35   C29   1.082423 S    
P4    O13   1.586918 S    
C23   C30   1.431240 A    
C33   H41   1.077241 S    
N2    O28   1.298346 A    
C9    H17   1.108738 S    
Ba1   O16   2.826744 S    
P3    O8    1.743901 S    
C16   H34   1.105521 S    
C43   H53   1.102994 S    
C41   H46   1.104725 S    
C23   C27   1.399197 A    
C14   H28   1.111762 S    
C39   C40   1.401655 A    
C11   C12   1.523104 S    
C42   H49   1.108831 S    
C12   H25   1.108844 S    
O3    P6    1.765736 S    
C33   C37   1.406075 A    
C31   C38   1.400029 A    
C15   H31   1.104683 S    
C6    C41   1.520940 S    
C21   H39   1.077605 S    
P6    C17   1.848271 S    
C40   H42   1.074126 S    
N1    O25   1.289243 A    
H36   C26   1.074791 S    
C44   H54   1.105096 S    
C28   H37   1.077543 S    
C5    H9    1.107509 S    
O1    Ba1   2.850326 S    
C41   H47   1.111482 S    
C43   H51   1.107637 S    
C19   C20   1.391027 A    
C14   H27   1.101491 S    
C8    H16   1.110339 S    
C35   C36   1.427985 A    
P2    O7    1.522524 D    
O2    Ba2   2.847840 S    
C20   C21   1.399414 A    
C32   C34   1.389444 A    
O16   Ba2   2.932927 S    
Ba1   O20   2.933849 S    
O14   Ba2   2.824589 S    
C9    H18   1.112536 S    
C22   C23   1.435038 A    
C7    H13   1.105538 S    
O5    C6    1.391258 S    
C2    H4    1.110265 S    
C4    H7    1.109698 S    
C24   C25   1.425687 A    
Ba2   O21   2.878084 S    
P8    O23   1.543122 D    
O3    Ba1   2.825265 S    
C3    C43   1.525551 S    
C27   H40   1.076751 S    
N2    O27   1.300133 A    
P5    O19   1.763357 S    
C5    H10   1.100200 S    
C1    H2    1.101907 S    
C16   H33   1.109769 S    
O6    P6    1.749204 S    
P7    C38   1.846423 S    
C41   H45   1.106016 S    
P8    O24   1.748461 S    
C18   C28   1.410007 A    
P5    C39   1.856805 S    
C32   C35   1.396623 A    
