data_mof_unit_52274.cif
_audit_creation_date              2012-12-11T15:53:35-0500
_audit_creation_method            fapswitch 2.2
_symmetry_space_group_name_H-M    P1
_symmetry_Int_Tables_number       1
_space_group_crystal_system       triclinic
_cell_length_a                    6.928776
_cell_length_b                    14.553539
_cell_length_c                    15.949224
_cell_angle_alpha                 90.509923
_cell_angle_beta                  90.115371
_cell_angle_gamma                 90.096341
_cell_volume                      1608.22195041

loop_
_atom_site_label
_atom_site_type_symbol
_atom_type_description
_atom_site_fract_x
_atom_site_fract_y
_atom_site_fract_z
_atom_type_partial_charge
O1    O     O_R   0.361600 0.167310 0.164620 -0.499746
O2    O     O_R   0.638400 0.832690 0.835380 -0.494402
O3    O     O_R   0.691080 0.157570 0.338750 -0.552275
O4    O     O_R   0.308920 0.842430 0.661250 -0.549902
O5    O     O_R   0.861410 0.336420 0.339360 -0.548665
O6    O     O_R   0.138590 0.663580 0.660640 -0.546383
C1    C     C_R   0.522041 0.135184 0.367470 0.657873
C2    C     C_R   0.477960 0.864821 0.632535 0.664688
O7    O     O_R   0.691320 0.156280 0.165240 -0.527010
O8    O     O_R   0.308680 0.843720 0.834760 -0.536878
O9    O     O_R   0.861640 0.335130 0.164600 -0.541665
O10   O     O_R   0.138360 0.664870 0.835400 -0.548520
C3    C     C_R   0.522063 0.136302 0.134250 0.826659
C4    C     C_R   0.477819 0.863707 0.865762 0.816285
O11   O     O_R   0.361370 0.168600 0.339370 -0.550346
O12   O     O_R   0.638630 0.831400 0.660630 -0.548891
O13   O     O_3   0.527990 0.310540 0.251980 -0.384302
O14   O     O_3   0.472010 0.689460 0.748020 -0.381895
V1    V     V_3+5 0.802830 0.240980 0.251990 1.499735
V2    V     V_3+5 0.197170 0.759020 0.748010 1.470095
O15   O     O_R   0.191360 0.346160 0.165220 -0.525981
O16   O     O_R   0.808640 0.653840 0.834780 -0.521375
C5    C     C_R   0.022240 0.368373 0.136149 0.788725
C6    C     C_R   0.977780 0.631449 0.863704 0.748982
O17   O     O_R   0.191130 0.347440 0.338740 -0.552014
O18   O     O_R   0.808870 0.652560 0.661260 -0.550776
C7    C     C_R   0.022206 0.369649 0.367658 0.646739
C8    C     C_R   0.977795 0.630344 0.632348 0.652851
V3    V     V_3+5 0.302840 0.262750 0.251990 1.511804
V4    V     V_3+5 0.697160 0.737250 0.748010 1.506117
O19   O     O_3   0.027820 0.193180 0.251990 -0.357185
O20   O     O_3   0.972180 0.806820 0.748010 -0.353965
C9    C     C_3   0.821480 0.472444 0.478779 -0.114161
C10   C     C_3   0.178522 0.527541 0.521235 -0.115294
C11   C     C_3   0.914560 0.461288 0.566497 -0.142521
C12   C     C_3   0.085443 0.538698 0.433517 -0.138808
H1    H     H_    0.843845 0.429798 0.621656 0.109194
H2    H     H_    0.156161 0.570188 0.378360 0.115072
H3    H     H_    0.673779 0.449632 0.461092 0.111114
H4    H     H_    0.326223 0.550353 0.538923 0.111640
C13   C     C_3   0.989200 0.560748 0.562108 -0.004581
C14   C     C_3   0.010802 0.439238 0.437905 -0.002106
C15   C     C_3   0.896246 0.572705 0.475171 -0.138560
C16   C     C_3   0.103756 0.427280 0.524842 -0.141644
H5    H     H_    0.810238 0.632977 0.455166 0.110538
H6    H     H_    0.189763 0.367008 0.544848 0.107140
C17   C     C_R   0.821165 0.522088 0.964809 -0.074903
C18   C     C_R   0.178884 0.477654 0.034969 -0.078321
H7    H     H_    0.680841 0.538041 0.938780 0.129722
H8    H     H_    0.319212 0.461691 0.060989 0.130866
C19   C     C_R   0.832105 0.459128 0.030586 -0.137533
C20   C     C_R   0.167939 0.540627 0.969202 -0.147127
H9    H     H_    0.699702 0.428361 0.052992 0.135669
H10   H     H_    0.300334 0.571409 0.946804 0.135505
C21   C     C_R   0.011123 0.436029 0.066650 -0.055603
C22   C     C_R   0.988916 0.563739 0.933152 -0.056524
C23   C     C_R   0.679440 0.025735 0.467734 -0.148524
C24   C     C_R   0.320562 0.974281 0.532280 -0.148413
H11   H     H_    0.820145 0.044424 0.443821 0.116971
H12   H     H_    0.179857 0.955593 0.556195 0.117391
C25   C     C_R   0.668530 0.960593 0.531535 -0.147114
C26   C     C_R   0.331472 0.039423 0.468480 -0.147064
H13   H     H_    0.801347 0.931050 0.554817 0.117710
H14   H     H_    0.198656 0.068967 0.445198 0.117008
C27   C     C_R   0.488947 0.934010 0.564683 -0.038602
C28   C     C_R   0.511055 0.066002 0.435328 -0.036802
C29   C     C_R   0.632527 0.991943 0.065353 -0.242909
C30   C     C_R   0.366430 0.007903 0.934884 -0.250409
H15   H     H_    0.734086 0.985024 0.116617 0.189563
H16   H     H_    0.264943 0.014904 0.883620 0.198672
C31   C     C_R   0.622324 0.922815 0.003483 0.489004
C32   C     C_R   0.375903 0.076751 0.997015 0.493182
C33   C     C_R   0.489436 0.931440 0.936139 -0.257603
C34   C     C_R   0.509808 0.068437 0.064031 -0.245363
S1    S     S_3+6 0.770924 0.824889 0.015923 -0.009244
O21   O     O_2   0.840452 0.818761 0.105090 -0.345345
O22   O     O_2   0.659796 0.739158 0.994124 -0.361114
O23   O     O_3   0.962405 0.834453 0.952010 -0.496251
H17   H     H_    0.061963 0.793672 0.976191 0.349539
S2    S     S_3+6 0.225522 0.174134 0.985150 -0.019614
O24   O     O_2   0.058700 0.167046 0.044828 -0.338710
O25   O     O_2   0.338625 0.260126 0.003956 -0.369657
O26   O     O_3   0.139574 0.179280 0.886594 -0.515379
H18   H     H_    0.055018 0.234102 0.886171 0.361927

loop_
_geom_bond_atom_site_label_1
_geom_bond_atom_site_label_2
_ccdc_geom_bond_type
C24   C26   A    
C18   C21   A    
V4    O20   S    
O13   V3    S    
C12   C14   S    
C23   C28   A    
O4    C2    A    
V1    O19   S    
C17   H7    S    
O9    V1    S    
C9    H3    S    
C10   H4    S    
C9    C14   S    
C11   H1    S    
O3    C1    A    
C23   H11   S    
O12   V4    S    
C8    C13   S    
O9    C5    A    
C25   H13   S    
O7    C3    A    
C26   H14   S    
O13   V1    S    
O5    C7    A    
O7    V1    S    
O6    C8    A    
O8    V2    S    
O3    V1    S    
O14   V4    S    
O14   V2    S    
C20   H10   S    
C18   H8    S    
C2    C27   S    
C2    O12   A    
C13   C15   S    
C10   C13   S    
C14   C16   S    
S2    O26   S    
O2    C4    A    
C16   H6    S    
O11   V3    S    
O17   V3    S    
C26   C28   A    
C9    C15   S    
C4    C33   S    
C10   C16   S    
S2    O25   D    
O8    C4    A    
C31   C33   A    
O23   H17   S    
C17   C19   A    
C19   C21   A    
C30   C33   A    
O15   V3    S    
C32   S2    S    
C29   H15   S    
S1    O21   D    
C15   H5    S    
C24   C27   A    
O26   H18   S    
C30   C32   A    
O10   V2    S    
O1    V3    S    
C29   C34   A    
C23   C25   A    
C11   C16   S    
S1    O22   D    
C32   C34   A    
O18   V4    S    
O15   C5    A    
O16   C6    A    
C6    C22   S    
V2    O20   S    
O16   V4    S    
S2    O24   D    
C5    C21   S    
O5    V1    S    
O17   C7    A    
O6    V2    S    
O10   C6    A    
O18   C8    A    
O2    V4    S    
C12   H2    S    
V3    O19   S    
C1    C28   S    
C31   S1    S    
C7    C14   S    
C1    O11   A    
C9    C11   S    
C10   C12   S    
C29   C31   A    
C11   C13   S    
S1    O23   S    
O4    V2    S    
C25   C27   A    
C18   C20   A    
O1    C3    A    
C3    C34   S    
C30   H16   S    
C12   C15   S    
C19   H9    S    
C24   H12   S    
C20   C22   A    
C17   C22   A    
