data_mof_unit_33573.cif
_audit_creation_date              2012-12-10T18:09:54-0500
_audit_creation_method            fapswitch 2.2
_symmetry_space_group_name_H-M    P1
_symmetry_Int_Tables_number       1
_space_group_crystal_system       triclinic
_cell_length_a                    10.626753
_cell_length_b                    12.596751
_cell_length_c                    13.129136
_cell_angle_alpha                 82.321722
_cell_angle_beta                  90.434496
_cell_angle_gamma                 102.419177
_cell_volume                      1700.57951123

loop_
_atom_site_label
_atom_site_type_symbol
_atom_type_description
_atom_site_fract_x
_atom_site_fract_y
_atom_site_fract_z
_atom_type_partial_charge
C1    C     C_R   0.480428 0.438787 0.691161 0.849365
C2    C     C_R   0.467448 0.447091 0.973521 0.084002
C3    C     C_R   0.434949 0.467107 0.869665 0.086555
C4    C     C_R   0.741945 0.500586 0.500335 0.829002
C5    C     C_R   0.465836 0.529487 0.036371 0.077719
C6    C     C_R   0.412223 0.621254 0.000436 0.177495
C7    C     C_R   0.363135 0.631060 0.901829 -0.254361
C8    C     C_R   0.374313 0.554971 0.837017 -0.207339
C9    C     C_R   0.518413 0.523897 0.133681 -0.261553
C10   C     C_R   0.448975 0.687435 0.165297 -0.212515
C11   C     C_R   0.466021 0.399459 0.800765 -0.116874
C12   C     C_3   0.121390 0.500388 0.500291 0.182369
C13   C     C_R   0.322406 0.088310 0.346139 -0.314961
C14   C     C_R   0.651512 0.798904 0.630513 -0.001598
C15   C     C_R   0.682654 0.903484 0.660100 0.173101
C16   C     C_R   0.512908 0.561076 0.308781 0.858498
C17   C     C_R   0.624636 0.985149 0.610403 -0.226618
C18   C     C_R   0.535860 0.962445 0.531242 -0.030502
C19   C     C_R   0.508131 0.854750 0.504527 0.223004
C20   C     C_R   0.473518 0.041791 0.477821 0.003188
C21   C     C_R   0.384931 0.011602 0.399526 0.204562
C22   C     C_R   0.359854 0.905302 0.374904 -0.308606
C23   C     C_3   0.065837 0.479595 0.393665 -0.404773
C24   C     C_R   0.420999 0.828326 0.426523 -0.210862
C25   C     C_R   0.495354 0.150680 0.498347 -0.059278
C26   C     C_R   0.348301 0.194410 0.370270 0.004660
C27   C     C_R   0.258045 0.499762 0.500040 0.809803
C28   C     C_3   0.905448 0.410231 0.584260 -0.403211
C29   C     C_3   0.049840 0.409688 0.584095 -0.398380
C30   C     C_3   0.921580 0.480581 0.393713 -0.398120
C31   C     C_3   0.957626 0.614011 0.523997 -0.394174
C32   C     C_3   0.878810 0.501508 0.500614 0.180659
C33   C     C_3   0.776463 0.928635 0.744144 -0.943739
C34   C     C_3   0.100387 0.613554 0.523518 -0.382878
C35   C     C_R   0.406563 0.700818 0.064624 -0.203364
C36   C     C_R   0.501522 0.596679 0.200179 -0.051524
C37   C     C_R   0.501098 0.300468 0.838026 -0.198444
C38   C     C_R   0.513706 0.272189 0.942800 -0.150560
C39   C     C_R   0.500252 0.345563 0.010176 -0.195874
H1    H     H_    0.849565 0.328395 0.569653 0.176811
H2    H     H_    0.512844 0.319559 0.090571 0.134461
H3    H     H_    0.539477 0.195225 0.971549 0.141373
H4    H     H_    0.874745 0.424304 0.661337 0.156433
H5    H     H_    0.333575 0.564944 0.761451 0.164674
H6    H     H_    0.301397 0.255219 0.329652 0.133721
H7    H     H_    0.292775 0.881442 0.315163 0.146748
H8    H     H_    0.254682 0.066489 0.286299 0.143657
H9    H     H_    0.561002 0.181682 0.555626 0.121833
H10   H     H_    0.694816 0.734068 0.667937 0.141957
H11   H     H_    0.650720 0.064915 0.635443 0.141301
H12   H     H_    0.150822 0.680479 0.464216 0.178460
H13   H     H_    0.398198 0.748487 0.403589 0.207837
H14   H     H_    0.089717 0.423814 0.661008 0.153475
H15   H     H_    0.063024 0.327678 0.569452 0.182405
H16   H     H_    0.865828 0.400496 0.374645 0.182160
H17   H     H_    0.079093 0.398946 0.375091 0.178560
H18   H     H_    0.939774 0.681260 0.465216 0.180647
H19   H     H_    0.928625 0.631033 0.600537 0.173936
H20   H     H_    0.140315 0.631108 0.599703 0.177487
H21   H     H_    0.814065 0.855562 0.775936 0.236864
H22   H     H_    0.859118 0.995079 0.713502 0.246135
H23   H     H_    0.902849 0.545695 0.333064 0.155267
H24   H     H_    0.728092 0.955952 0.807477 0.248402
H25   H     H_    0.117479 0.544068 0.332839 0.155311
H26   H     H_    0.434788 0.744367 0.216757 0.147918
H27   H     H_    0.318098 0.698592 0.874114 0.147099
H28   H     H_    0.364685 0.770595 0.038359 0.134256
H29   H     H_    0.568856 0.460411 0.161659 0.146399
H30   H     H_    0.522891 0.246656 0.785966 0.150621
N1    N     N_R   0.433240 0.222190 0.444680 -0.101443
N2    N     N_R   0.566070 0.776970 0.554790 -0.149936
O1    O     O_R   0.468120 0.366740 0.627160 -0.613164
O2    O     O_R   0.510770 0.544830 0.662520 -0.613986
O3    O     O_R   0.663880 0.410950 0.482330 -0.626077
O4    O     O_R   0.706530 0.589040 0.517700 -0.625846
O5    O     O_R   0.489230 0.455170 0.337480 -0.613078
O6    O     O_R   0.531880 0.633260 0.372840 -0.630717
O7    O     O_R   0.293470 0.410960 0.482300 -0.619634
O8    O     O_R   0.336120 0.589050 0.517670 -0.649868
Zn1   Zn    Zn3+2 0.471520 0.381090 0.476390 0.928086
Zn2   Zn    Zn3+2 0.528480 0.618910 0.523610 0.915576

loop_
_geom_bond_atom_site_label_1
_geom_bond_atom_site_label_2
_ccdc_geom_bond_type
C24   H13   S    
C37   H30   S    
C12   C29   S    
C14   N2    A    
C19   N2    A    
C1    C11   S    
C27   O7    A    
C7    C8    A    
C39   H2    S    
C12   C23   S    
C34   H12   S    
C31   H19   S    
C28   C29   S    
C38   H3    S    
C27   O8    A    
C5    C6    A    
O7    Zn1   S    
C14   H10   S    
C20   C25   A    
C28   H1    S    
C6    C35   A    
C18   C19   A    
C11   C37   A    
C4    O4    A    
C26   H6    S    
C2    C39   A    
C9    C36   A    
C10   C35   A    
O6    Zn2   S    
C4    O3    A    
O3    Zn1   S    
C21   C22   A    
C28   C32   S    
O2    Zn2   S    
C1    O1    A    
C12   C27   S    
N1    Zn1   S    
C23   C30   S    
O5    Zn1   S    
C23   H17   S    
C3    C8    A    
C13   H8    S    
O4    Zn2   S    
C5    C9    A    
C37   C38   A    
C31   C32   S    
C35   H28   S    
C33   H24   S    
C17   C18   A    
C31   C34   S    
C13   C21   A    
C25   H9    S    
C4    C32   S    
C23   H25   S    
C22   H7    S    
C33   H21   S    
C30   H23   S    
C34   H20   S    
C26   N1    A    
C22   C24   A    
C13   C26   A    
C2    C5    A    
C12   C34   S    
O8    Zn2   S    
C10   H26   S    
C15   C17   A    
C16   O5    A    
C8    H5    S    
C17   H11   S    
C6    C7    A    
C30   H16   S    
C28   H4    S    
C1    O2    A    
C31   H18   S    
C19   C24   A    
C9    H29   S    
O1    Zn1   S    
C16   C36   S    
C7    H27   S    
C30   C32   S    
C38   C39   A    
C29   H14   S    
C2    C3    A    
C18   C20   A    
C3    C11   A    
C20   C21   A    
C33   H22   S    
C29   H15   S    
C14   C15   A    
C16   O6    A    
C10   C36   A    
C25   N1    A    
C15   C33   S    
N2    Zn2   S    
