data_mof_unit_53375.cif
_audit_creation_date              2012-12-10T17:12:00-0500
_audit_creation_method            fapswitch 2.2
_symmetry_space_group_name_H-M    P1
_symmetry_Int_Tables_number       1
_space_group_crystal_system       triclinic
_cell_length_a                    11.674484
_cell_length_b                    12.99305
_cell_length_c                    15.86816
_cell_angle_alpha                 92.325436
_cell_angle_beta                  74.37101
_cell_angle_gamma                 99.836363
_cell_volume                      2283.88765573

loop_
_atom_site_label
_atom_site_type_symbol
_atom_type_description
_atom_site_fract_x
_atom_site_fract_y
_atom_site_fract_z
_atom_type_partial_charge
C1    C     C_R   0.521098 0.700840 0.500753 0.777110
C2    C     C_R   0.479333 0.299141 0.498449 0.808996
C3    C     C_R   0.352158 0.463814 0.085831 -0.243222
C4    C     C_R   0.640823 0.470056 0.912559 -0.235825
C5    C     C_R   0.274091 0.480222 0.037714 -0.208229
C6    C     C_R   0.722831 0.469994 0.961687 -0.191105
C7    C     C_R   0.468064 0.185728 0.496314 -0.050653
C8    C     C_R   0.533512 0.814234 0.501083 -0.045180
C9    C     C_R   0.647401 0.984368 0.517349 -0.216158
C10   C     C_R   0.354949 0.015568 0.478836 -0.214584
C11   C     C_R   0.637301 0.876252 0.515512 -0.208928
C12   C     C_R   0.364239 0.123628 0.481978 -0.192721
C13   C     C_R   0.440486 0.860969 0.487463 -0.276981
C14   C     C_R   0.562389 0.139081 0.507915 -0.269761
C15   C     C_R   0.449177 0.968909 0.490325 0.178497
C16   C     C_R   0.553549 0.031104 0.505246 0.175735
C17   C     C_R   0.949286 0.612175 0.566059 -0.345830
C18   C     C_R   0.052029 0.390235 0.430687 -0.340437
C19   C     C_R   0.828792 0.598884 0.562469 0.078341
C20   C     C_R   0.171977 0.402434 0.435855 0.080605
C21   C     C_R   0.854942 0.449908 0.472587 0.016697
C22   C     C_R   0.145313 0.550831 0.526196 0.046185
C23   C     C_R   0.427760 0.498908 0.668131 0.838821
C24   C     C_R   0.572906 0.504137 0.331779 0.843720
C25   C     C_R   0.976610 0.459661 0.475082 0.061923
C26   C     C_R   0.024073 0.541675 0.522887 0.068135
C27   C     C_R   0.387247 0.503854 0.764432 -0.222607
C28   C     C_R   0.615670 0.499525 0.235480 -0.230956
C29   C     C_R   0.240712 0.530916 0.901496 0.360838
C30   C     C_R   0.772830 0.485675 0.101665 0.365518
C31   C     C_R   0.277515 0.536147 0.809552 0.357699
C32   C     C_R   0.738888 0.507841 0.191248 0.338195
C33   C     C_R   0.464769 0.479774 0.811851 -0.328061
C34   C     C_R   0.529845 0.483063 0.187499 -0.330695
C35   C     C_R   0.433997 0.482447 0.903617 0.028021
C36   C     C_R   0.562705 0.473508 0.095920 0.033840
C37   C     C_R   0.315667 0.497826 0.947789 -0.008660
C38   C     C_R   0.686353 0.474817 0.052898 -0.024842
C39   C     C_R   0.517288 0.471448 0.952871 0.114064
C40   C     C_R   0.476845 0.468275 0.045948 0.119960
Cu1   Cu    Cu3+1 0.386820 0.492450 0.493500 0.942704
Cu2   Cu    Cu3+1 0.613180 0.507550 0.506500 0.936994
H1    H     H_    0.180840 0.481513 0.071958 0.186371
H2    H     H_    0.816862 0.471544 0.927249 0.193244
H3    H     H_    0.229163 0.348195 0.401808 0.121819
H4    H     H_    0.772001 0.653715 0.595878 0.126478
H5    H     H_    0.983557 0.677627 0.601651 0.140993
H6    H     H_    0.018536 0.326791 0.392636 0.138391
H7    H     H_    0.437461 0.481449 0.223484 0.185731
H8    H     H_    0.547837 0.455685 0.775547 0.186448
H9    H     H_    0.311410 0.450361 0.154686 0.141505
H10   H     H_    0.678790 0.473540 0.842716 0.146863
H11   H     H_    0.642731 0.186554 0.519221 0.151838
H12   H     H_    0.360975 0.813500 0.474912 0.147403
H13   H     H_    0.290542 0.158470 0.472735 0.153711
H14   H     H_    0.710318 0.841324 0.525868 0.152866
H15   H     H_    0.727950 0.031248 0.528727 0.135839
H16   H     H_    0.274331 0.968624 0.467611 0.134401
H17   H     H_    0.182334 0.613334 0.562991 0.122043
H18   H     H_    0.817976 0.388142 0.434811 0.131810
N1    N     N_R   0.216750 0.481110 0.483710 -0.179888
N2    N     N_R   0.783250 0.518890 0.516290 -0.185674
O1    O     O_R   0.419950 0.645670 0.495380 -0.604815
O2    O     O_R   0.580050 0.354330 0.504620 -0.592521
O3    O     O_R   0.611110 0.658410 0.506370 -0.598643
O4    O     O_R   0.388890 0.341590 0.493630 -0.593348
O5    O     O_R   0.350820 0.490050 0.621260 -0.547491
O6    O     O_R   0.649180 0.509950 0.378740 -0.545297
O7    O     O_R   0.541970 0.502800 0.632250 -0.590323
O8    O     O_R   0.458030 0.497200 0.367750 -0.593193
O9    O     O_3   0.827333 0.533125 0.235206 -0.599954
C41   C     C_3   0.849563 0.642921 0.244445 0.091674
H19   H     H_    0.765104 0.673267 0.277900 0.135818
H20   H     H_    0.887907 0.681428 0.179166 0.142003
C42   C     C_3   0.939514 0.671596 0.299431 -0.301922
H21   H     H_    0.908118 0.624636 0.360598 0.244512
H22   H     H_    0.028952 0.653145 0.262645 0.205491
C43   C     C_3   0.952207 0.787074 0.323654 -0.941341
H23   H     H_    0.979554 0.836704 0.263942 0.257694
H24   H     H_    0.021821 0.806022 0.360266 0.254516
H25   H     H_    0.865227 0.804832 0.365901 0.261135
O10   O     O_3   0.201884 0.568057 0.765625 -0.577253
C44   C     C_3   0.248036 0.671023 0.732572 0.056682
H26   H     H_    0.298729 0.667239 0.662970 0.172646
H27   H     H_    0.310978 0.717377 0.767315 0.089838
C45   C     C_3   0.142556 0.729190 0.739072 -0.338732
H28   H     H_    0.071042 0.677892 0.716013 0.227789
H29   H     H_    0.103138 0.748863 0.808289 0.201159
C46   C     C_3   0.181863 0.829699 0.684980 -0.936192
H30   H     H_    0.257831 0.880149 0.703835 0.267877
H31   H     H_    0.105073 0.873145 0.696256 0.256115
H32   H     H_    0.209964 0.811026 0.614368 0.248990
O11   O     O_3   0.129110 0.554951 0.946041 -0.582853
C47   C     C_3   0.137422 0.663941 0.961320 0.138045
H33   H     H_    0.051325 0.686061 0.957101 0.174303
H34   H     H_    0.211258 0.712291 0.912247 0.097087
C48   C     C_3   0.153046 0.691541 0.052702 -0.383326
H35   H     H_    0.085116 0.638872 0.101904 0.250885
H36   H     H_    0.244566 0.681407 0.055162 0.216016
C49   C     C_3   0.139023 0.804717 0.075513 -0.939317
H37   H     H_    0.205116 0.858500 0.026031 0.259834
H38   H     H_    0.156031 0.823403 0.140390 0.264798
H39   H     H_    0.046265 0.816986 0.078188 0.252356
O12   O     O_3   0.893165 0.483238 0.061294 -0.583656
C50   C     C_3   0.913005 0.378214 0.054098 0.089887
H40   H     H_    0.995699 0.375148 0.000111 0.203256
H41   H     H_    0.839223 0.323708 0.035270 0.107485
C51   C     C_3   0.932555 0.340433 0.138869 -0.335195
H42   H     H_    0.994397 0.401406 0.163509 0.243424
H43   H     H_    0.844929 0.325814 0.189678 0.220152
C52   C     C_3   0.985833 0.239762 0.124440 -0.947996
H44   H     H_    0.925217 0.177359 0.100057 0.259723
H45   H     H_    0.996359 0.213568 0.187282 0.258144
H46   H     H_    0.075943 0.253070 0.076377 0.264680

loop_
_geom_bond_atom_site_label_1
_geom_bond_atom_site_label_2
_ccdc_geom_bond_type
C29   O11   S    
O11   C47   S    
C5    C37   A    
C1    C8    S    
Cu1   Cu2   S    
C23   O7    A    
C52   H44   S    
Cu1   N1    S    
C48   H35   S    
C19   H4    S    
C24   O8    A    
Cu1   O5    S    
C27   C33   A    
C50   H41   S    
C8    C13   A    
C31   O10   S    
C4    H10   S    
C17   C26   A    
C10   H16   S    
C9    C16   A    
C10   C15   A    
C43   H24   S    
C19   N2    A    
C15   C16   A    
C51   H42   S    
C30   C38   A    
C23   O5    A    
C20   N1    A    
C9    H15   S    
C33   C35   A    
C7    C14   A    
C2    C7    S    
Cu2   O3    S    
C1    O3    A    
C6    C38   A    
C23   C27   S    
C46   H31   S    
Cu2   N2    S    
C34   C36   A    
C20   H3    S    
C5    H1    S    
C28   C34   A    
C6    H2    S    
Cu2   O6    S    
C18   C25   A    
C41   C42   S    
C1    O1    A    
O12   C50   S    
C48   H36   S    
C2    O2    A    
C32   O9    S    
C7    C12   A    
C50   C51   S    
C45   H29   S    
C27   C31   A    
C24   C28   S    
C28   C32   A    
C21   H18   S    
C4    C6    A    
C22   H17   S    
C3    H9    S    
C43   H23   S    
C47   C48   S    
C3    C5    A    
C33   H8    S    
C49   H39   S    
C35   C39   A    
C42   H21   S    
C9    C11   A    
C44   H26   S    
C4    C39   A    
C36   C40   A    
C14   H11   S    
C49   H38   S    
C52   H45   S    
C46   H32   S    
C47   H34   S    
C42   H22   S    
C21   N2    A    
C10   C12   A    
C41   H20   S    
C44   H27   S    
C3    C40   A    
C13   C15   A    
C14   C16   A    
Cu1   O1    S    
C29   C37   A    
Cu2   O2    S    
C39   C40   A    
C48   C49   S    
C13   H12   S    
C21   C25   A    
C34   H7    S    
C35   C37   A    
C45   H28   S    
C17   H5    S    
C41   H19   S    
C2    O4    A    
C45   C46   S    
C18   H6    S    
Cu1   O4    S    
C50   H40   S    
C51   C52   S    
C36   C38   A    
C25   C26   A    
O9    C41   S    
C29   C31   A    
C22   N1    A    
C30   C32   A    
C43   H25   S    
C8    C11   A    
C49   H37   S    
C17   C19   A    
C51   H43   S    
C52   H46   S    
C18   C20   A    
Cu2   O7    S    
C47   H33   S    
C42   C43   S    
C12   H13   S    
C24   O6    A    
C44   C45   S    
O10   C44   S    
C22   C26   A    
C30   O12   S    
C46   H30   S    
C11   H14   S    
Cu1   O8    S    
