data_mof_unit_53322.cif
_audit_creation_date              2012-12-11T15:26:45-0500
_audit_creation_method            fapswitch 2.2
_symmetry_space_group_name_H-M    P1
_symmetry_Int_Tables_number       1
_space_group_crystal_system       triclinic
_cell_length_a                    7.329625
_cell_length_b                    11.721154
_cell_length_c                    29.753711
_cell_angle_alpha                 89.999964
_cell_angle_beta                  89.99928
_cell_angle_gamma                 90.124164
_cell_volume                      2556.18480157

loop_
_atom_site_label
_atom_site_type_symbol
_atom_type_description
_atom_site_fract_x
_atom_site_fract_y
_atom_site_fract_z
_atom_type_partial_charge
O1    O     O_R   0.647170 0.849180 0.201220 -0.530687
O2    O     O_R   0.352830 0.150820 0.798780 -0.548393
O3    O     O_R   0.352830 0.150820 0.701220 -0.530682
O4    O     O_R   0.647170 0.849180 0.298780 -0.548395
O5    O     O_R   0.147170 0.650820 0.298780 -0.534213
O6    O     O_R   0.852830 0.349180 0.701220 -0.553354
O7    O     O_R   0.852830 0.349180 0.798780 -0.534210
O8    O     O_R   0.147170 0.650820 0.201220 -0.553354
O9    O     O_R   0.317430 0.862210 0.298450 -0.533533
O10   O     O_R   0.682570 0.137790 0.701550 -0.548433
O11   O     O_R   0.682570 0.137790 0.798450 -0.533528
O12   O     O_R   0.317430 0.862210 0.201550 -0.548435
O13   O     O_R   0.817430 0.637790 0.201550 -0.539488
O14   O     O_R   0.182570 0.362210 0.798450 -0.555366
O15   O     O_R   0.182570 0.362210 0.701550 -0.539491
O16   O     O_R   0.817430 0.637790 0.298450 -0.555361
H1    H     H_    0.051760 0.222604 0.451698 0.136895
H2    H     H_    0.992625 0.780808 0.548614 0.135553
H3    H     H_    0.948483 0.777428 0.951694 0.136888
H4    H     H_    0.007183 0.219202 0.048610 0.135552
H5    H     H_    0.406893 0.279325 0.047629 0.140316
H6    H     H_    0.384860 0.723341 0.951531 0.140296
H7    H     H_    0.593063 0.720677 0.547627 0.140318
H8    H     H_    0.615162 0.276661 0.451529 0.140293
C1    C     C_R   0.485685 0.883884 0.314290 0.676048
C2    C     C_R   0.515345 0.116716 0.685507 0.672515
C3    C     C_R   0.514314 0.116118 0.814290 0.676049
C4    C     C_R   0.484656 0.883285 0.185507 0.672515
C5    C     C_R   0.984990 0.615888 0.185882 0.713804
C6    C     C_R   0.015118 0.384381 0.814099 0.700692
C7    C     C_R   0.015012 0.384113 0.685882 0.713814
C8    C     C_R   0.984880 0.615621 0.314100 0.700659
H9    H     H_    0.943457 0.603662 0.687151 0.124097
H10   H     H_    0.935012 0.393946 0.314297 0.124479
H11   H     H_    0.056521 0.396337 0.187145 0.124097
H12   H     H_    0.065033 0.606053 0.814290 0.124480
H13   H     H_    0.460315 0.896414 0.811892 0.123730
H14   H     H_    0.452442 0.104104 0.187475 0.123705
H15   H     H_    0.539697 0.103588 0.311890 0.123731
H16   H     H_    0.547544 0.895898 0.687473 0.123704
H17   H     H_    0.967967 0.261877 0.376352 0.133666
H18   H     H_    0.948120 0.737217 0.625095 0.133575
H19   H     H_    0.032149 0.738131 0.876345 0.133666
H20   H     H_    0.051809 0.262789 0.125088 0.133575
H21   H     H_    0.426635 0.237761 0.125854 0.132609
H22   H     H_    0.414985 0.764028 0.873367 0.133778
H23   H     H_    0.573331 0.762240 0.625852 0.132608
H24   H     H_    0.585038 0.235973 0.373365 0.133781
O17   O     O_3   0.480630 0.680630 0.250000 -0.390531
O18   O     O_3   0.519370 0.319370 0.750000 -0.390536
O19   O     O_3   0.980630 0.819370 0.250000 -0.377319
O20   O     O_3   0.019370 0.180630 0.750000 -0.377314
V1    V     V_3+5 0.205800 0.762860 0.250000 1.380182
V2    V     V_3+5 0.794200 0.237140 0.750000 1.380200
V3    V     V_3+5 0.705800 0.737140 0.250000 1.369942
V4    V     V_3+5 0.294200 0.262860 0.750000 1.369948
H25   H     H_    0.104617 0.277380 0.525341 0.211320
H26   H     H_    0.018395 0.729891 0.474080 0.190736
H27   H     H_    0.895698 0.722682 0.025339 0.211248
H28   H     H_    0.981317 0.270118 0.974078 0.190828
H29   H     H_    0.401135 0.223231 0.971435 0.173865
H30   H     H_    0.382051 0.779294 0.027785 0.173906
H31   H     H_    0.598845 0.776771 0.471434 0.173859
H32   H     H_    0.617955 0.220709 0.527783 0.173914
C9    C     C_R   0.988201 0.543766 0.354203 -0.105095
C10   C     C_R   0.006883 0.457370 0.646303 -0.104407
C11   C     C_R   0.011793 0.456244 0.854199 -0.105074
C12   C     C_R   0.993126 0.542640 0.146300 -0.104410
C13   C     C_R   0.484444 0.955665 0.145347 -0.127125
C14   C     C_R   0.500051 0.043717 0.854254 -0.129551
C15   C     C_R   0.515557 0.044339 0.645346 -0.127113
C16   C     C_R   0.499946 0.956287 0.354252 -0.129558
C17   C     C_R   0.979857 0.352583 0.382999 -0.178889
C18   C     C_R   0.972585 0.647689 0.618166 -0.176200
C19   C     C_R   0.020214 0.647427 0.882992 -0.178887
C20   C     C_R   0.027377 0.352321 0.118160 -0.176206
C21   C     C_R   0.442462 0.147845 0.118222 -0.178437
C22   C     C_R   0.437999 0.853336 0.881085 -0.177893
C23   C     C_R   0.557515 0.852157 0.618220 -0.178439
C24   C     C_R   0.562014 0.146666 0.381083 -0.177893
C25   C     C_R   0.961191 0.427531 0.347638 -0.243202
C26   C     C_R   0.969290 0.571948 0.653522 -0.245718
C27   C     C_R   0.038840 0.572475 0.847632 -0.243218
C28   C     C_R   0.030699 0.428058 0.153517 -0.245713
C29   C     C_R   0.458710 0.071738 0.153364 -0.221980
C30   C     C_R   0.465190 0.928632 0.846038 -0.224190
C31   C     C_R   0.541278 0.928264 0.653362 -0.221977
C32   C     C_R   0.534817 0.071370 0.346036 -0.224195
C33   C     C_R   0.019210 0.589261 0.397999 0.318907
C34   C     C_R   0.039528 0.414303 0.602348 0.319277
C35   C     C_R   0.980764 0.410756 0.897995 0.318918
C36   C     C_R   0.960502 0.585717 0.102346 0.319275
C37   C     C_R   0.488509 0.912353 0.100149 0.311314
C38   C     C_R   0.501996 0.087167 0.899378 0.312100
C39   C     C_R   0.511493 0.087652 0.600148 0.311308
C40   C     C_R   0.497997 0.912838 0.399376 0.312105
C41   C     C_R   0.024803 0.511878 0.435848 -0.012731
C42   C     C_R   0.035089 0.491974 0.564567 -0.015916
C43   C     C_R   0.975189 0.488140 0.935843 -0.012757
C44   C     C_R   0.964932 0.508050 0.064564 -0.015909
C45   C     C_R   0.459887 0.991270 0.063689 0.003735
C46   C     C_R   0.464453 0.009305 0.935731 0.003000
C47   C     C_R   0.540105 0.008734 0.563688 0.003740
C48   C     C_R   0.535544 0.990700 0.435729 0.003002
C49   C     C_R   0.015112 0.392902 0.426290 0.101744
C50   C     C_R   0.005659 0.609630 0.574430 0.102175
C51   C     C_R   0.984953 0.607116 0.926285 0.101757
C52   C     C_R   0.994304 0.390388 0.074427 0.102179
C53   C     C_R   0.443611 0.109392 0.073886 0.082936
C54   C     C_R   0.438652 0.891813 0.925441 0.080723
C55   C     C_R   0.556367 0.890612 0.573885 0.082941
C56   C     C_R   0.561355 0.108190 0.425439 0.080715
C57   C     C_R   0.036165 0.545230 0.482712 0.059402
C58   C     C_R   0.050352 0.459904 0.517569 0.053817
C59   C     C_R   0.963799 0.454793 0.982708 0.059380
C60   C     C_R   0.949698 0.540125 0.017566 0.053849
C61   C     C_R   0.449059 0.958095 0.017090 0.056259
C62   C     C_R   0.453529 0.042788 0.982284 0.059843
C63   C     C_R   0.550937 0.041909 0.517088 0.056250
C64   C     C_R   0.546462 0.957216 0.482282 0.059864
C65   C     C_R   0.071075 0.345864 0.503690 -0.185427
C66   C     C_R   0.023964 0.659824 0.496320 -0.169198
C67   C     C_R   0.929099 0.654176 0.003688 -0.185382
C68   C     C_R   0.975881 0.340193 0.996315 -0.169269
C69   C     C_R   0.430138 0.157238 0.995137 -0.135080
C70   C     C_R   0.416709 0.844463 0.004142 -0.138450
C71   C     C_R   0.569841 0.842765 0.495135 -0.135071
C72   C     C_R   0.583296 0.155540 0.504140 -0.138482
C73   C     C_R   0.045978 0.312896 0.459700 -0.207458
C74   C     C_R   0.008464 0.690936 0.540703 -0.206446
C75   C     C_R   0.954178 0.687133 0.959696 -0.207470
C76   C     C_R   0.991415 0.309080 0.040700 -0.206451
C77   C     C_R   0.425618 0.189721 0.039761 -0.206820
C78   C     C_R   0.411039 0.812223 0.959484 -0.204390
C79   C     C_R   0.574350 0.810282 0.539759 -0.206836
C80   C     C_R   0.588974 0.187779 0.459482 -0.204387
O21   O     O_3   0.108926 0.304470 0.598422 -0.552862
C81   C     C_3   0.969163 0.221594 0.602074 0.064193
H33   H     H_    0.857704 0.239612 0.577971 0.103658
H34   H     H_    0.917592 0.216476 0.636811 0.138799
C82   C     C_3   0.042651 0.103082 0.591493 -0.645995
H35   H     H_    0.138908 0.076057 0.618161 0.233538
H36   H     H_    0.928313 0.040841 0.590689 0.158579
H37   H     H_    0.112445 0.101276 0.558425 0.225584
O22   O     O_3   0.086859 0.699987 0.401755 -0.547067
C83   C     C_3   0.949704 0.783008 0.394578 0.074157
H38   H     H_    0.831650 0.767473 0.416962 0.091483
H39   H     H_    0.905487 0.786126 0.359193 0.136530
C84   C     C_3   0.023276 0.901582 0.405310 -0.645941
H40   H     H_    0.125465 0.927013 0.379750 0.233158
H41   H     H_    0.910521 0.964546 0.404323 0.160121
H42   H     H_    0.086610 0.903913 0.439182 0.227500
O23   O     O_3   0.891099 0.695550 0.098422 -0.552842
C85   C     C_3   0.030850 0.778431 0.102088 0.064185
H43   H     H_    0.142328 0.760435 0.077986 0.103615
H44   H     H_    0.082405 0.783532 0.136826 0.138815
C86   C     C_3   0.957351 0.896946 0.091515 -0.646006
H45   H     H_    0.861087 0.923953 0.118185 0.233534
H46   H     H_    0.071683 0.959193 0.090717 0.158583
H47   H     H_    0.887562 0.898765 0.058447 0.225602
O24   O     O_3   0.913107 0.300032 0.901749 -0.547083
C87   C     C_3   0.050278 0.217012 0.894588 0.074108
H48   H     H_    0.168298 0.232559 0.916981 0.091515
H49   H     H_    0.094540 0.213888 0.859207 0.136527
C88   C     C_3   0.976697 0.098439 0.905317 -0.645937
H50   H     H_    0.874537 0.073005 0.879751 0.233170
H51   H     H_    0.089460 0.035478 0.904338 0.160116
H52   H     H_    0.913329 0.096106 0.939187 0.227481
O25   O     O_3   0.577485 0.193628 0.910094 -0.548495
C89   C     C_3   0.515171 0.286548 0.883724 0.170040
H53   H     H_    0.383308 0.271448 0.867209 0.066402
H54   H     H_    0.616914 0.305087 0.857306 0.187738
C90   C     C_3   0.495912 0.393623 0.912569 -0.725066
H55   H     H_    0.612556 0.402027 0.936024 0.260707
H56   H     H_    0.490754 0.470266 0.890654 0.183727
H57   H     H_    0.368137 0.390816 0.932479 0.178266
O26   O     O_3   0.558708 0.804584 0.089486 -0.551102
C91   C     C_3   0.493228 0.712636 0.115919 0.170584
H58   H     H_    0.361421 0.729164 0.132052 0.059795
H59   H     H_    0.593573 0.693623 0.142520 0.192165
C92   C     C_3   0.472704 0.605176 0.087305 -0.728425
H60   H     H_    0.593668 0.593031 0.065516 0.257354
H61   H     H_    0.457469 0.529507 0.109475 0.183131
H62   H     H_    0.349959 0.610208 0.065670 0.182770
O27   O     O_3   0.422498 0.806380 0.410093 -0.548485
C93   C     C_3   0.484798 0.713455 0.383723 0.170017
H63   H     H_    0.616658 0.728549 0.367203 0.066411
H64   H     H_    0.383045 0.694917 0.357309 0.187744
C94   C     C_3   0.504058 0.606384 0.412571 -0.725058
H65   H     H_    0.387434 0.597998 0.436034 0.260718
H66   H     H_    0.509174 0.529735 0.390657 0.183729
H67   H     H_    0.631854 0.609184 0.432472 0.178256
O28   O     O_3   0.441307 0.195425 0.589486 -0.551118
C95   C     C_3   0.506789 0.287369 0.615920 0.170572
H68   H     H_    0.638594 0.270836 0.632052 0.059804
H69   H     H_    0.406445 0.306380 0.642521 0.192166
C96   C     C_3   0.527319 0.394832 0.587308 -0.728451
H70   H     H_    0.406346 0.406992 0.565523 0.257336
H71   H     H_    0.542579 0.470496 0.609480 0.183138
H72   H     H_    0.650050 0.389797 0.565668 0.182780

loop_
_geom_bond_atom_site_label_1
_geom_bond_atom_site_label_2
_ccdc_geom_bond_type
C7    C10   S    
C95   H69   S    
C19   C51   A    
C88   H50   S    
C60   C67   A    
C96   H72   S    
O25   C89   S    
O14   V4    S    
C4    C13   S    
C44   C60   A    
H23   C23   S    
C19   C27   A    
C20   C28   A    
H17   C17   S    
C23   C31   A    
O4    C1    A    
C64   C71   A    
O9    C1    A    
C10   C34   A    
C92   H60   S    
C9    C33   A    
O28   C95   S    
O23   C85   S    
C86   H45   S    
H6    C78   S    
O8    C5    A    
H16   C31   S    
O13   C5    A    
C14   C38   A    
C18   C26   A    
C83   H38   S    
C13   C37   A    
C84   H41   S    
C38   O25   S    
C43   C59   A    
C42   C58   A    
C95   C96   S    
C15   C39   A    
C89   H53   S    
H12   C27   S    
C45   C53   A    
C59   C60   A    
C5    C12   S    
C68   C76   A    
H20   C20   S    
H5    C77   S    
C96   H71   S    
C57   C58   A    
C58   C65   A    
C9    C25   A    
C57   C66   A    
C39   C47   A    
H32   C72   S    
O1    C4    A    
C36   O23   S    
C62   C69   A    
C61   C70   A    
C87   H49   S    
C6    C11   S    
C46   C62   A    
O5    C8    A    
C41   C49   A    
C63   C72   A    
H8    C80   S    
C90   H56   S    
C95   H68   S    
C21   C29   A    
C20   C52   A    
O7    C6    A    
H27   C67   S    
C2    C15   S    
C96   H70   S    
H15   C32   S    
H4    C76   S    
C17   C25   A    
C16   C32   A    
O20   V2    S    
O24   C87   S    
C83   H39   S    
C92   H61   S    
H3    C75   S    
C44   C52   A    
H26   C66   S    
C56   C80   A    
H14   C29   S    
C53   C77   A    
C12   C28   A    
C91   H58   S    
H13   C30   S    
C85   C86   S    
C51   C75   A    
C84   H42   S    
C37   C45   A    
H30   C70   S    
C37   O26   S    
C49   C73   A    
C90   H55   S    
H1    C73   S    
O18   V4    S    
C33   C41   A    
C48   C56   A    
O19   V1    S    
C82   H36   S    
C86   H46   S    
C94   H67   S    
C33   O22   S    
C18   C50   A    
C83   C84   S    
O3    V4    S    
C17   C49   A    
O11   C3    A    
H11   C28   S    
C69   C77   A    
C24   C56   A    
C11   C35   A    
O10   C2    A    
H7    C79   S    
C22   C54   A    
C1    C16   S    
C11   C27   A    
C21   C53   A    
O11   V2    S    
C38   C46   A    
C85   H43   S    
O2    C3    A    
H18   C18   S    
C81   H34   S    
O2    V4    S    
C15   C31   A    
C88   H52   S    
H10   C25   S    
O12   C4    A    
O6    V2    S    
C86   H47   S    
C40   C48   A    
O4    V3    S    
C46   C54   A    
O9    V1    S    
C39   O28   S    
C93   H64   S    
C14   C30   A    
O22   C83   S    
C34   O21   S    
C13   C29   A    
C36   C44   A    
H19   C19   S    
H22   C22   S    
C87   H48   S    
H9    C26   S    
C90   H57   S    
O5    V1    S    
C50   C74   A    
C54   C78   A    
C65   C73   A    
C59   C68   A    
C92   H62   S    
C67   C75   A    
C8    C9    S    
C87   C88   S    
C85   H44   S    
C40   O27   S    
O3    C2    A    
C47   C63   A    
O12   V1    S    
C71   C79   A    
C81   C82   S    
O8    V1    S    
C91   H59   S    
C63   C64   A    
O15   C7    A    
C82   H37   S    
C47   C55   A    
C3    C14   S    
O16   C8    A    
C43   C51   A    
O21   C81   S    
C61   C62   A    
C42   C50   A    
C23   C55   A    
C45   C61   A    
O15   V4    S    
H24   C24   S    
C93   C94   S    
C72   C80   A    
O1    V3    S    
O16   V3    S    
O14   C6    A    
C24   C32   A    
O17   V3    S    
C82   H35   S    
C55   C79   A    
O27   C93   S    
C89   H54   S    
C12   C36   A    
C34   C42   A    
O6    C7    A    
C94   H65   S    
O10   V2    S    
O13   V3    S    
C52   C76   A    
C91   C92   S    
H2    C74   S    
C81   H33   S    
O26   C91   S    
H25   C65   S    
C16   C40   A    
H29   C69   S    
C70   C78   A    
C88   H51   S    
C22   C30   A    
H28   C68   S    
C35   O24   S    
H21   C21   S    
O7    V2    S    
C35   C43   A    
C93   H63   S    
C84   H40   S    
C41   C57   A    
C66   C74   A    
H31   C71   S    
C10   C26   A    
C94   H66   S    
C48   C64   A    
C89   C90   S    
