data_mof_unit_25279.cif
_audit_creation_date              2012-12-11T14:56:22-0500
_audit_creation_method            fapswitch 2.2
_symmetry_space_group_name_H-M    P1
_symmetry_Int_Tables_number       1
_space_group_crystal_system       triclinic
_cell_length_a                    10.502674
_cell_length_b                    10.708849
_cell_length_c                    17.091158
_cell_angle_alpha                 79.989226
_cell_angle_beta                  89.940013
_cell_angle_gamma                 119.343148
_cell_volume                      1641.78456661

loop_
_atom_site_label
_atom_site_type_symbol
_atom_type_description
_atom_site_fract_x
_atom_site_fract_y
_atom_site_fract_z
_atom_type_partial_charge
C1    C     C_R   0.278150 0.887999 0.132731 0.526021
C2    C     C_1   0.651648 0.344170 0.707435 0.005043
C3    C     C_R   0.629877 0.709975 0.808332 0.236184
C4    C     C_R   0.610275 0.208304 0.102519 0.565703
C5    C     C_R   0.598792 0.694186 0.730753 0.198777
C6    C     C_R   0.666640 0.819182 0.667721 -0.009123
C7    C     C_R   0.753237 0.959107 0.685324 0.167817
C8    C     C_R   0.765697 0.973947 0.764226 -0.161327
C9    C     C_R   0.697806 0.850051 0.825696 -0.046720
C10   C     C_R   0.223737 0.967940 0.756120 0.047955
C11   C     C_R   0.233023 0.959057 0.677013 0.106838
C12   C     C_R   0.705157 0.229504 0.314411 0.222646
C13   C     C_R   0.177795 0.822084 0.656887 0.009044
C14   C     C_R   0.152542 0.699427 0.715678 0.093186
C15   C     C_R   0.158855 0.710291 0.795528 0.105550
C16   C     C_R   0.643878 0.855257 0.124116 0.553562
C17   C     C_R   0.191568 0.844133 0.816982 -0.016209
C18   C     C_R   0.711844 0.772206 0.353677 0.554770
C19   C     C_R   0.679458 0.380659 0.400800 0.582496
C20   C     C_R   0.108167 0.812710 0.359895 0.538043
C21   C     C_R   0.677444 0.797896 0.586850 0.610154
C22   C     C_R   0.678335 0.381588 0.624411 0.556916
C23   C     C_R   0.709090 0.211223 0.235898 0.215927
C24   C     C_R   0.105054 0.803348 0.584056 0.553189
C25   C     C_R   0.225894 0.865722 0.897835 0.547949
C26   C     C_R   0.637723 0.284891 0.860834 0.608083
C27   C     C_R   0.649701 0.866240 0.900638 0.576796
C28   C     C_R   0.511552 0.266139 0.214458 -0.145646
C29   C     C_R   0.519902 0.301707 0.289381 0.171259
C30   C     C_R   0.626128 0.294777 0.337633 -0.007275
C31   C     C_R   0.612536 0.231371 0.184765 -0.071770
C32   C     C_1   0.685444 0.829752 0.201598 0.043226
C33   C     C_1   0.704090 0.805791 0.270391 0.036774
C34   C     C_1   0.227160 0.853560 0.215504 -0.013277
C35   C     C_1   0.178782 0.834877 0.283037 -0.001315
C36   C     C_1   0.644711 0.322904 0.778004 0.013255
Cl1   Cl    Cl    0.397176 0.357711 0.317684 -0.502667
Cl2   Cl    Cl    0.801212 0.170400 0.382715 -0.413630
Cl3   Cl    Cl    0.845017 0.175120 0.202687 -0.491428
Cl4   Cl    Cl    0.572222 0.553442 0.885350 -0.519251
Cl5   Cl    Cl    0.465390 0.517313 0.717616 -0.523966
Cl6   Cl    Cl    0.837310 0.119798 0.610779 -0.514469
Cr1   Cr    Cr6+3 0.402240 0.783890 0.019450 1.090920
Cr2   Cr    Cr6+3 0.382360 0.097900 0.991800 1.088137
Cr3   Cr    Cr6+3 0.715380 0.118170 0.988700 1.087899
Cr4   Cr    Cr6+3 0.936650 0.882420 0.465510 1.178823
Cr5   Cr    Cr6+3 0.605770 0.565620 0.493360 1.130918
Cr6   Cr    Cr6+3 0.921340 0.550490 0.496380 1.110642
H1    H     H_    0.430859 0.274257 0.177771 0.204061
H2    H     H_    0.151234 0.084118 0.807075 0.275950
H3    H     H_    0.818956 0.082898 0.777273 0.187002
H4    H     H_    0.227186 0.139604 0.619939 0.299921
H5    H     H_    0.397260 0.160266 0.626025 0.247338
H6    H     H_    0.190645 0.581449 0.646590 0.271972
H7    H     H_    0.011387 0.505248 0.685431 0.274476
H8    H     H_    0.217609 0.588560 0.876514 0.287857
H9    H     H_    0.048057 0.567235 0.899668 0.247556
H10   H     H_    0.340033 0.159059 0.796216 0.290615
N1    N     N_3   0.289965 0.089144 0.615781 -0.546587
N2    N     N_3   0.121144 0.562465 0.696456 -0.520117
N3    N     N_3   0.122140 0.580413 0.853760 -0.540928
N4    N     N_3   0.242289 0.103452 0.771239 -0.581221
O1    O     O_R   0.521780 0.757110 0.108900 -0.491903
O2    O     O_R   0.805020 0.410040 0.421340 -0.441165
O3    O     O_R   0.049240 0.685450 0.403290 -0.489687
O4    O     O_R   0.275160 0.783810 0.101120 -0.463160
O5    O     O_R   0.077520 0.903010 0.551800 -0.462160
O6    O     O_R   0.802980 0.872780 0.546830 -0.437194
O7    O     O_R   0.578090 0.681300 0.569920 -0.463179
O8    O     O_R   0.608530 0.436370 0.586530 -0.473612
O9    O     O_R   0.798770 0.401880 0.597100 -0.477064
O10   O     O_R   0.043450 0.677890 0.566230 -0.533141
O11   O     O_3   0.821250 0.666180 0.485090 -0.335495
O12   O     O_R   0.513330 0.228330 0.898660 -0.464243
O13   O     O_R   0.237900 0.972600 0.090980 -0.493863
O14   O     O_R   0.511190 0.220540 0.061620 -0.492691
O15   O     O_R   0.736920 0.257720 0.063840 -0.431748
O16   O     O_R   0.710450 0.984050 0.081720 -0.475716
O17   O     O_R   0.524090 0.765520 0.933110 -0.456784
O18   O     O_R   0.277300 0.791600 0.938160 -0.506245
O19   O     O_R   0.240210 0.981010 0.915190 -0.517804
O20   O     O_R   0.739230 0.266130 0.888050 -0.505292
O21   O     O_R   0.712580 0.991850 0.918770 -0.518473
O22   O     O_3   0.499990 0.999980 0.999980 -0.328030
O23   O     O_R   0.083770 0.911170 0.376030 -0.474607
O24   O     O_R   0.808770 0.880340 0.383890 -0.422106
O25   O     O_R   0.584340 0.689460 0.394160 -0.465805
O26   O     O_R   0.614320 0.443940 0.423590 -0.473156

loop_
_geom_bond_atom_site_label_1
_geom_bond_atom_site_label_2
_ccdc_geom_bond_type
H10   N4    S    
C25   O18   A    
Cr3   O20   S    
H5    N1    S    
Cr1   O1    S    
C7    C8    A    
Cr3   O21   S    
C12   C23   A    
C24   O10   A    
C18   O24   A    
C28   C29   A    
C27   O17   A    
C5    C6    A    
Cr6   O2    S    
C10   C17   A    
Cr1   O17   S    
C34   C35   T    
C7    Cl6   S    
Cr2   O14   S    
Cr5   O7    S    
C24   O5    A    
C20   C35   S    
C8    C9    A    
C2    C22   S    
Cr3   O16   S    
C16   O1    A    
Cr6   O3    S    
Cr4   O23   S    
C26   O20   A    
C13   C14   A    
C25   O19   A    
Cr1   O22   S    
C10   N4    S    
Cr6   O10   S    
C11   N1    S    
C1    C34   S    
C1    O13   A    
C20   O3    A    
Cr5   O11   S    
Cr2   O19   S    
H6    N2    S    
C3    C5    A    
Cr1   O18   S    
C6    C21   S    
C13   C24   S    
C21   O7    A    
C23   C31   A    
Cr2   O13   S    
Cr5   O8    S    
Cr4   O6    S    
C29   C30   A    
C3    C9    A    
H4    N1    S    
C28   H1    S    
C19   O2    A    
C20   O23   A    
C1    O4    A    
C15   N3    S    
Cr2   O12   S    
C8    H3    S    
C26   C36   S    
C3    Cl4   S    
C19   O26   A    
C21   O6    A    
H2    N4    S    
Cr3   O22   S    
Cr6   O9    S    
C22   O9    A    
C9    C27   S    
C2    C36   T    
C15   C17   A    
C5    Cl5   S    
C12   C30   A    
C14   C15   A    
Cr6   O11   S    
C28   C31   A    
Cr2   O22   S    
H9    N3    S    
C6    C7    A    
C16   C32   S    
C14   N2    S    
C18   O25   A    
C17   C25   S    
Cr5   O26   S    
C27   O21   A    
C4    O15   A    
C32   C33   T    
C11   C13   A    
Cr1   O4    S    
C23   Cl3   S    
C26   O12   A    
C16   O16   A    
C12   Cl2   S    
C18   C33   S    
C4    O14   A    
C4    C31   S    
C10   C11   A    
Cr4   O5    S    
C29   Cl1   S    
H8    N3    S    
Cr3   O15   S    
H7    N2    S    
C19   C30   S    
C22   O8    A    
Cr4   O11   S    
Cr5   O25   S    
Cr4   O24   S    
