data_mof_unit_35572.cif
_audit_creation_date              2012-12-11T15:17:58-0500
_audit_creation_method            fapswitch 2.2
_symmetry_space_group_name_H-M    P1
_symmetry_Int_Tables_number       1
_space_group_crystal_system       triclinic
_cell_length_a                    15.709576
_cell_length_b                    15.709586
_cell_length_c                    34.546512
_cell_angle_alpha                 90.019662
_cell_angle_beta                  90.020153
_cell_angle_gamma                 120.048269
_cell_volume                      7379.93426364

loop_
_atom_site_label
_atom_site_type_symbol
_atom_type_description
_atom_site_fract_x
_atom_site_fract_y
_atom_site_fract_z
_atom_type_partial_charge
C1    C     C_R   0.577896 0.441753 0.554874 0.563150
C2    C     C_R   0.558169 0.136124 0.554878 0.562778
C3    C     C_R   0.863928 0.422218 0.554859 0.558454
C4    C     C_R   0.441753 0.577896 0.054874 0.563149
C5    C     C_R   0.136124 0.558169 0.054878 0.562782
C6    C     C_R   0.422218 0.863927 0.054859 0.558454
C7    C     C_R   0.978795 0.504458 0.712642 0.365915
C8    C     C_R   0.498634 0.477186 0.712711 0.365613
C9    C     C_R   0.508730 0.013050 0.711832 0.365152
C10   C     C_R   0.504472 0.978769 0.212645 0.365919
C11   C     C_R   0.477187 0.498634 0.212711 0.365614
C12   C     C_R   0.013054 0.508733 0.211833 0.365152
C13   C     C_R   0.007132 0.439830 0.850592 0.215366
C14   C     C_R   0.562297 0.563984 0.851882 0.212657
C15   C     C_R   0.430511 0.996701 0.852957 0.279019
C16   C     C_R   0.439843 0.007155 0.350586 0.215363
C17   C     C_R   0.563981 0.562298 0.351883 0.212655
C18   C     C_R   0.996706 0.430516 0.352958 0.279021
C19   C     C_R   0.044370 0.449408 0.888626 0.191449
C20   C     C_R   0.552193 0.590797 0.890015 0.185875
C21   C     C_R   0.416007 0.971789 0.892564 0.194238
C22   C     C_R   0.449420 0.044403 0.388618 0.191441
C23   C     C_R   0.590794 0.552194 0.390016 0.185871
C24   C     C_R   0.971792 0.416012 0.392565 0.194245
C25   C     C_R   0.065222 0.614543 0.892477 0.189823
C26   C     C_R   0.382541 0.453404 0.891388 0.188968
C27   C     C_R   0.536786 0.916680 0.888587 0.203018
C28   C     C_R   0.614520 0.065180 0.392486 0.189802
C29   C     C_R   0.453403 0.382541 0.391388 0.188969
C30   C     C_R   0.916675 0.536784 0.388586 0.203017
C31   C     C_R   0.037154 0.607869 0.853254 0.024276
C32   C     C_R   0.390447 0.433180 0.852171 0.026555
C33   C     C_R   0.555479 0.947808 0.849701 0.024664
C34   C     C_R   0.607854 0.037106 0.353265 0.024298
C35   C     C_R   0.433179 0.390446 0.352171 0.026552
C36   C     C_R   0.947805 0.555479 0.349700 0.024667
C37   C     C_R   0.012166 0.521872 0.832300 0.014772
C38   C     C_R   0.479116 0.491562 0.832352 0.016906
C39   C     C_R   0.497247 0.980759 0.831558 0.003338
C40   C     C_R   0.521875 0.012147 0.332303 0.014767
C41   C     C_R   0.491561 0.479117 0.332352 0.016908
C42   C     C_R   0.980760 0.497250 0.331558 0.003336
C43   C     C_R   0.077170 0.538617 0.909062 0.045303
C44   C     C_R   0.460646 0.537876 0.909160 0.046993
C45   C     C_R   0.462312 0.922985 0.909387 -0.002269
C46   C     C_R   0.538612 0.077169 0.409062 0.045289
C47   C     C_R   0.537875 0.460647 0.409160 0.046994
C48   C     C_R   0.922985 0.462313 0.409386 -0.002274
C49   C     C_R   0.577465 0.442019 0.445313 0.617205
C50   C     C_R   0.557842 0.135482 0.445274 0.616626
C51   C     C_R   0.864986 0.422815 0.445518 0.571808
C52   C     C_R   0.442019 0.577465 0.945313 0.617205
C53   C     C_R   0.135481 0.557843 0.945274 0.616633
C54   C     C_R   0.422815 0.864987 0.945518 0.571813
C55   C     C_R   0.916446 0.454726 0.592212 -0.022762
C56   C     C_R   0.545991 0.461955 0.592296 -0.021084
C57   C     C_R   0.536318 0.082089 0.591939 -0.022240
C58   C     C_R   0.454726 0.916439 0.092213 -0.022760
C59   C     C_R   0.461956 0.545991 0.092296 -0.021083
C60   C     C_R   0.082091 0.536318 0.091939 -0.022239
C61   C     C_R   0.917378 0.382562 0.615815 -0.125951
C62   C     C_R   0.618548 0.535800 0.615625 -0.125168
C63   C     C_R   0.456899 0.073860 0.613598 -0.124164
C64   C     C_R   0.382561 0.917357 0.115820 -0.125954
C65   C     C_R   0.535801 0.618548 0.115625 -0.125169
C66   C     C_R   0.073867 0.456903 0.113599 -0.124163
C67   C     C_R   0.942903 0.400642 0.654575 0.071298
C68   C     C_R   0.601353 0.543835 0.654412 0.070322
C69   C     C_R   0.444772 0.045976 0.652119 0.069980
C70   C     C_R   0.400644 0.942875 0.154580 0.071300
C71   C     C_R   0.543836 0.601353 0.154412 0.070321
C72   C     C_R   0.045985 0.444776 0.152121 0.069980
C73   C     C_R   0.968298 0.492379 0.670649 0.013025
C74   C     C_R   0.510067 0.477534 0.670761 0.013505
C75   C     C_R   0.512259 0.024911 0.669883 0.013575
C76   C     C_R   0.492386 0.968274 0.170652 0.013022
C77   C     C_R   0.477535 0.510067 0.170761 0.013506
C78   C     C_R   0.024915 0.512261 0.169883 0.013575
C79   C     C_R   0.977260 0.569284 0.646723 0.088235
C80   C     C_R   0.432826 0.408559 0.647176 0.087895
C81   C     C_R   0.586993 0.023031 0.647875 0.088483
C82   C     C_R   0.569291 0.977249 0.146723 0.088234
C83   C     C_R   0.408560 0.432826 0.147176 0.087895
C84   C     C_R   0.023030 0.586991 0.147874 0.088483
C85   C     C_R   0.952740 0.550989 0.607049 0.080220
C86   C     C_R   0.450212 0.401607 0.607478 0.081033
C87   C     C_R   0.598479 0.050395 0.608418 0.080296
C88   C     C_R   0.550992 0.952738 0.107048 0.080222
C89   C     C_R   0.401607 0.450212 0.107478 0.081032
C90   C     C_R   0.050393 0.598476 0.108417 0.080295
C91   C     C_R   0.998431 0.519015 0.790376 0.413722
C92   C     C_R   0.483811 0.482725 0.790387 0.413666
C93   C     C_R   0.501654 0.992885 0.789512 0.406986
C94   C     C_R   0.519031 0.998406 0.290379 0.413722
C95   C     C_R   0.482725 0.483812 0.290387 0.413668
C96   C     C_R   0.992888 0.501657 0.289512 0.406985
Cr1   Cr    Cr6+3 0.522350 0.263930 0.500020 1.139642
Cr2   Cr    Cr6+3 0.736070 0.258420 0.500020 1.126628
Cr3   Cr    Cr6+3 0.741580 0.477650 0.500020 1.138396
Cr4   Cr    Cr6+3 0.263930 0.522350 0.000020 1.139640
Cr5   Cr    Cr6+3 0.258420 0.736070 0.000020 1.126623
Cr6   Cr    Cr6+3 0.477650 0.741580 0.000020 1.138396
H1    H     H_    0.892555 0.309244 0.604792 0.182817
H2    H     H_    0.691560 0.584458 0.604374 0.182277
H3    H     H_    0.406539 0.094740 0.601318 0.183946
H4    H     H_    0.309241 0.892530 0.104799 0.182812
H5    H     H_    0.584459 0.691560 0.104374 0.182275
H6    H     H_    0.094751 0.406544 0.101320 0.183946
N1    N     N_R   0.910710 0.454832 0.774214 -0.130603
N2    N     N_R   0.546672 0.457305 0.774388 -0.127423
N3    N     N_R   0.523847 0.080215 0.773400 -0.124910
N4    N     N_R   0.454841 0.910688 0.274218 -0.130618
N5    N     N_R   0.457302 0.546671 0.274387 -0.127423
N6    N     N_R   0.080218 0.523852 0.273400 -0.124910
N7    N     N_R   0.901007 0.448010 0.735919 -0.168399
N8    N     N_R   0.553698 0.454299 0.736108 -0.168878
N9    N     N_R   0.527493 0.090124 0.735116 -0.169592
N10   N     N_R   0.448018 0.900983 0.235923 -0.168394
N11   N     N_R   0.454297 0.553697 0.236108 -0.168879
N12   N     N_R   0.090128 0.527498 0.235117 -0.169591
N13   N     N_R   0.066599 0.568433 0.728818 -0.160268
N14   N     N_R   0.436206 0.503154 0.728712 -0.160317
N15   N     N_R   0.485445 0.925426 0.727919 -0.160082
N16   N     N_R   0.568455 0.066570 0.228821 -0.160268
N17   N     N_R   0.503157 0.436208 0.228712 -0.160316
N18   N     N_R   0.925429 0.485445 0.227919 -0.160082
N19   N     N_R   0.076204 0.575548 0.767118 -0.167414
N20   N     N_R   0.428977 0.505886 0.766985 -0.169549
N21   N     N_R   0.482022 0.915584 0.766199 -0.171789
N22   N     N_R   0.575571 0.076175 0.267121 -0.167404
N23   N     N_R   0.505889 0.428980 0.266985 -0.169548
N24   N     N_R   0.915586 0.482022 0.266199 -0.171790
O1    O     O_R   0.498680 0.159540 0.541860 -0.508792
O2    O     O_R   0.840460 0.339140 0.541860 -0.510084
O3    O     O_R   0.660860 0.501320 0.541860 -0.506758
O4    O     O_R   0.159540 0.498680 0.041860 -0.508788
O5    O     O_R   0.339140 0.840460 0.041860 -0.510080
O6    O     O_R   0.501320 0.660860 0.041860 -0.506759
O7    O     O_R   0.532760 0.358060 0.540030 -0.483247
O8    O     O_R   0.641940 0.174700 0.540030 -0.480776
O9    O     O_R   0.825300 0.467240 0.540030 -0.482813
O10   O     O_R   0.358060 0.532760 0.040030 -0.483247
O11   O     O_R   0.174700 0.641940 0.040030 -0.480779
O12   O     O_R   0.467240 0.825300 0.040030 -0.482815
O13   O     O_R   0.498590 0.161190 0.456930 -0.434894
O14   O     O_R   0.838810 0.337400 0.456930 -0.480743
O15   O     O_R   0.662600 0.501410 0.456930 -0.437295
O16   O     O_R   0.161190 0.498590 0.956930 -0.434902
O17   O     O_R   0.337400 0.838810 0.956930 -0.480744
O18   O     O_R   0.501410 0.662600 0.956930 -0.437296
O19   O     O_R   0.532680 0.359580 0.461300 -0.448236
O20   O     O_R   0.640420 0.173100 0.461300 -0.446078
O21   O     O_R   0.826900 0.467320 0.461300 -0.435337
O22   O     O_R   0.359580 0.532680 0.961300 -0.448240
O23   O     O_R   0.173100 0.640420 0.961300 -0.446075
O24   O     O_R   0.467320 0.826900 0.961300 -0.435336
O25   O     O_3   0.666667 0.333333 0.499990 -0.307311
O26   O     O_3   0.333333 0.666667 0.999990 -0.307312
I1    I     I_    0.973822 0.669402 0.569974 -0.185935
I2    I     I_    0.331161 0.302519 0.570942 -0.187114
I3    I     I_    0.707548 0.040813 0.574422 -0.185530
I4    I     I_    0.669404 0.973842 0.069968 -0.185927
I5    I     I_    0.302520 0.331161 0.070942 -0.187112
I6    I     I_    0.040804 0.707539 0.074420 -0.185520
O27   O     O_3   0.053478 0.374751 0.905640 -0.639787
H7    H     H_    0.065703 0.337909 0.885208 0.358938
O28   O     O_3   0.628857 0.670309 0.908485 -0.649906
H8    H     H_    0.671214 0.719118 0.888852 0.349138
O29   O     O_3   0.354421 0.993236 0.913653 -0.658282
H9    H     H_    0.376927 0.004576 0.940940 0.347768
O30   O     O_3   0.374778 0.053556 0.405621 -0.639773
H10   H     H_    0.337969 0.065808 0.385184 0.358940
O31   O     O_3   0.670305 0.628858 0.408486 -0.649911
H11   H     H_    0.719113 0.671218 0.388853 0.349139
O32   O     O_3   0.993242 0.354427 0.413654 -0.658264
H12   H     H_    0.004580 0.376933 0.440941 0.347765
I7    I     I_    0.938209 0.283930 0.687473 -0.126743
I8    I     I_    0.718758 0.656327 0.686993 -0.132634
I9    I     I_    0.324511 0.041373 0.682277 -0.129500
I10   I     I_    0.283932 0.938167 0.187482 -0.126745
I11   I     I_    0.656327 0.718758 0.186993 -0.132640
I12   I     I_    0.041388 0.324520 0.182280 -0.129502
I13   I     I_    0.019847 0.710047 0.671588 -0.113741
I14   I     I_    0.293084 0.309931 0.672675 -0.113587
I15   I     I_    0.686740 0.986620 0.675551 -0.111984
I16   I     I_    0.710060 0.019839 0.171583 -0.113744
I17   I     I_    0.309933 0.293084 0.172675 -0.113585
I18   I     I_    0.986612 0.686735 0.175549 -0.111985
O33   O     O_3   0.970559 0.353216 0.829870 -0.637647
H13   H     H_    0.941187 0.297336 0.848236 0.356618
O34   O     O_3   0.650805 0.610675 0.832283 -0.641712
H14   H     H_    0.704887 0.631487 0.851287 0.353880
O35   O     O_3   0.379196 0.034687 0.833982 -0.622172
H15   H     H_    0.332480 0.039065 0.851940 0.395468
O36   O     O_3   0.353242 0.970614 0.329857 -0.637645
H16   H     H_    0.297353 0.941269 0.348219 0.356627
O37   O     O_3   0.610670 0.650807 0.332284 -0.641713
H17   H     H_    0.631480 0.704888 0.351288 0.353876
O38   O     O_3   0.034696 0.379205 0.333984 -0.622169
H18   H     H_    0.039077 0.332491 0.351943 0.395472
O39   O     O_3   0.086793 0.696256 0.914613 -0.633868
H19   H     H_    0.054869 0.730992 0.903352 0.363735
O40   O     O_3   0.297650 0.395866 0.912296 -0.636114
H20   H     H_    0.260879 0.329710 0.900621 0.360545
O41   O     O_3   0.588302 0.877973 0.906775 -0.628727
H21   H     H_    0.617038 0.853653 0.887323 0.356855
O42   O     O_3   0.696216 0.086721 0.414627 -0.633849
H22   H     H_    0.730867 0.054682 0.403390 0.363704
O43   O     O_3   0.395866 0.297649 0.412295 -0.636106
H23   H     H_    0.329711 0.260877 0.400621 0.360544
O44   O     O_3   0.877962 0.588296 0.406772 -0.628725
H24   H     H_    0.853637 0.617026 0.387320 0.356853
I19   I     I_    0.037091 0.728848 0.824426 -0.167821
I20   I     I_    0.267397 0.317919 0.821748 -0.176193
I21   I     I_    0.674863 0.950574 0.818283 -0.174600
I22   I     I_    0.728828 0.037004 0.324453 -0.167796
I23   I     I_    0.317921 0.267396 0.321747 -0.176214
I24   I     I_    0.950567 0.674861 0.318282 -0.174593

loop_
_geom_bond_atom_site_label_1
_geom_bond_atom_site_label_2
_ccdc_geom_bond_type
C25   C31   A    
C5    O4    A    
N4    N10   A    
O30   H10   S    
C26   C32   A    
O27   H7    S    
N2    N8    A    
C61   H1    S    
C9    N9    A    
O39   H19   S    
C71   I11   S    
C36   C42   A    
C3    O9    A    
Cr1   O1    S    
O40   H20   S    
C11   N11   A    
Cr6   O26   S    
C33   I21   S    
C2    C57   S    
C26   C44   A    
C7    C73   S    
Cr2   O20   S    
O41   H21   S    
C27   C33   A    
C24   O32   S    
C10   N16   A    
C28   C46   A    
C33   C39   A    
C91   N19   A    
C29   C47   A    
C18   C24   A    
C30   C48   A    
C11   N17   A    
C1    C56   S    
Cr4   O16   S    
N13   N19   A    
C25   O39   S    
C18   C42   A    
C54   O24   A    
C88   I4    S    
C5    O11   A    
C12   N18   A    
C27   C45   A    
Cr5   O23   S    
C68   C74   A    
C30   O44   S    
C38   C92   S    
C13   O33   S    
N17   N23   A    
C49   O15   A    
Cr6   O6    S    
C7    N7    A    
C6    C58   S    
C39   C93   S    
C72   C78   A    
C11   C77   S    
N5    N11   A    
C82   C88   A    
C10   C76   S    
C43   C53   S    
C48   C51   S    
C66   C72   A    
C63   C69   A    
C79   I13   S    
C12   C78   S    
C80   C86   A    
C17   O37   S    
C67   C73   A    
C32   C38   A    
C63   H3    S    
C68   I8    S    
C13   C37   A    
C22   O30   S    
C1    O7    A    
C96   N24   A    
C32   I20   S    
C44   C52   S    
C80   I14   S    
C60   C66   A    
O38   H18   S    
C12   N12   A    
N15   N21   A    
C95   N23   A    
C9    C75   S    
C96   N6    A    
O33   H13   S    
Cr6   O12   S    
C7    N13   A    
C93   N21   A    
C35   I23   S    
C81   I15   S    
C20   C44   A    
C19   C43   A    
C46   C50   S    
C57   C63   A    
C54   O17   A    
C21   C45   A    
C31   C37   A    
C58   C64   A    
C83   C89   A    
C2    O1    A    
C23   C47   A    
C49   O19   A    
N16   N22   A    
O42   H22   S    
C24   C48   A    
O29   H9    S    
C14   C20   A    
C47   C49   S    
C67   I7    S    
C76   C82   A    
O28   H8    S    
Cr5   O5    S    
C91   N1    A    
C75   C81   A    
C13   C19   A    
Cr2   O14   S    
C51   O14   A    
C65   C71   A    
C4    O6    A    
C62   H2    S    
C57   C87   A    
C90   I6    S    
C59   C89   A    
C27   O41   S    
Cr1   O25   S    
C55   C85   A    
C10   N10   A    
Cr4   O26   S    
C14   C38   A    
C61   C67   A    
C56   C86   A    
O44   H24   S    
Cr2   O25   S    
N18   N24   A    
C66   H6    S    
C6    O12   A    
C8    C74   S    
O43   H23   S    
Cr1   O19   S    
Cr3   O3    S    
C17   C23   A    
C29   O43   S    
C15   C39   A    
C81   C87   A    
C16   C40   A    
C23   O31   S    
C14   O34   S    
C50   O13   A    
C25   C43   A    
C83   I17   S    
Cr6   O18   S    
C45   C54   S    
C53   O23   A    
C64   C70   A    
Cr3   O25   S    
C70   C76   A    
C42   C96   S    
C84   I18   S    
C55   C61   A    
C36   I24   S    
C94   N22   A    
Cr6   O24   S    
C71   C77   A    
Cr1   O7    S    
C84   C90   A    
Cr4   O22   S    
O34   H14   S    
C20   O28   S    
C29   C35   A    
C92   N20   A    
C16   C22   A    
C5    C60   S    
C22   C46   A    
C59   C65   A    
Cr1   O13   S    
Cr3   O9    S    
C40   C94   S    
C73   C79   A    
C58   C88   A    
Cr5   O26   S    
C64   H4    S    
C31   I19   S    
C60   C90   A    
C19   O27   S    
Cr2   O2    S    
C8    N8    A    
C3    C55   S    
C30   C36   A    
N3    N9    A    
C3    O2    A    
C2    O8    A    
C82   I16   S    
C6    O5    A    
C26   O40   S    
C92   N2    A    
Cr3   O15   S    
C93   N3    A    
O32   H12   S    
Cr4   O10   S    
C69   I9    S    
C4    O10   A    
C34   I22   S    
Cr5   O11   S    
C8    N14   A    
C41   C95   S    
C86   I2    S    
C95   N5    A    
C21   O29   S    
Cr3   O21   S    
C4    C59   S    
Cr5   O17   S    
C9    N15   A    
C79   C85   A    
C65   H5    S    
C69   C75   A    
C56   C62   A    
C62   C68   A    
C53   O16   A    
N14   N20   A    
O37   H17   S    
C35   C41   A    
C17   C41   A    
C78   C84   A    
N1    N7    A    
C28   C34   A    
O36   H16   S    
C15   O35   S    
C50   O20   A    
C15   C21   A    
C87   I3    S    
C52   O18   A    
O35   H15   S    
Cr2   O8    S    
C18   O38   S    
C16   O36   S    
C28   O42   S    
C77   C83   A    
C34   C40   A    
C74   C80   A    
C85   I1    S    
C70   I10   S    
C51   O21   A    
C1    O3    A    
O31   H11   S    
C52   O22   A    
C89   I5    S    
C94   N4    A    
N6    N12   A    
Cr4   O4    S    
C37   C91   S    
C72   I12   S    
