data_mof_unit_35579.cif
_audit_creation_date              2012-12-10T20:57:48-0500
_audit_creation_method            fapswitch 2.2
_symmetry_space_group_name_H-M    P1
_symmetry_Int_Tables_number       1
_space_group_crystal_system       triclinic
_cell_length_a                    18.223394
_cell_length_b                    18.285267
_cell_length_c                    18.356197
_cell_angle_alpha                 120.089066
_cell_angle_beta                  89.900004
_cell_angle_gamma                 119.920899
_cell_volume                      4328.22146219

loop_
_atom_site_label
_atom_site_type_symbol
_atom_type_description
_atom_site_fract_x
_atom_site_fract_y
_atom_site_fract_z
_atom_type_partial_charge
C1    C     C_R   0.359127 0.219903 0.360609 0.808536
C2    C     C_3   0.762833 0.941003 0.654331 -0.454057
C3    C     C_3   0.698261 0.897368 0.698916 0.178442
C4    C     C_R   0.640812 0.780957 0.639848 0.751228
C5    C     C_3   0.799375 0.102388 0.803317 0.186336
C6    C     C_3   0.814065 0.058345 0.852095 -0.098214
C7    C     C_3   0.821462 0.061469 0.714551 -0.045220
C8    C     C_3   0.679040 0.390359 0.240687 -0.045683
C9    C     C_3   0.740130 0.391359 0.181513 -0.450050
C10   C     C_3   0.678851 0.528774 0.241763 -0.471165
C11   C     C_3   0.799372 0.581399 0.360175 -0.392214
C12   C     C_3   0.278348 0.578291 0.359479 -0.480733
C13   C     C_3   0.698420 0.499904 0.302142 0.203010
C14   C     C_3   0.799996 0.500138 0.200690 0.201042
C15   C     C_3   0.739049 0.529384 0.182358 -0.402089
C16   C     C_R   0.359301 0.500585 0.640726 0.785826
C17   C     C_3   0.858675 0.579408 0.300911 -0.400043
C18   C     C_R   0.465843 0.181096 0.552776 -0.131097
C19   C     C_R   0.423951 0.136683 0.464010 -0.123156
C20   C     C_R   0.333589 0.098797 0.434730 0.168914
C21   C     C_R   0.285544 0.105167 0.494954 -0.133649
C22   C     C_R   0.327810 0.150053 0.583755 -0.139788
C23   C     C_3   0.299142 0.497826 0.300034 0.135442
C24   C     C_R   0.417832 0.187841 0.612609 -0.116032
C25   C     C_R   0.232861 0.944228 0.285754 -0.271303
C26   C     C_R   0.193784 0.891853 0.194613 -0.076705
C27   C     C_R   0.209136 0.947036 0.156532 -0.050702
C28   C     C_R   0.640670 0.500262 0.359458 0.779122
C29   C     C_R   0.259428 0.054617 0.212324 0.041716
C30   C     C_R   0.301764 0.107218 0.304244 -0.069527
C31   C     C_R   0.288756 0.050785 0.340587 -0.053425
C32   C     C_R   0.234049 0.879157 0.009402 -0.187521
C33   C     C_R   0.207278 0.833730 0.917817 -0.122429
C34   C     C_3   0.196761 0.499627 0.200288 0.136008
C35   C     C_R   0.124987 0.805214 0.874706 0.176914
C36   C     C_R   0.068952 0.821513 0.923772 -0.178762
C37   C     C_R   0.095531 0.866676 0.015443 -0.163275
C38   C     C_R   0.178437 0.896058 0.058751 0.165696
C39   C     C_R   0.914116 0.636507 0.575478 -0.195960
C40   C     C_R   0.641839 0.500303 0.640230 0.796996
C41   C     C_R   0.863961 0.577116 0.606087 -0.152774
C42   C     C_R   0.842742 0.620698 0.683257 0.128625
C43   C     C_R   0.872643 0.724461 0.729955 -0.162305
C44   C     C_R   0.922502 0.784160 0.698784 0.169271
C45   C     C_3   0.143595 0.394300 0.187353 -0.395933
C46   C     C_R   0.942838 0.739383 0.621261 -0.123396
C47   C     C_R   0.841574 0.555839 0.771437 -0.272653
C48   C     C_R   0.799302 0.497729 0.805240 -0.044893
C49   C     C_R   0.705023 0.440122 0.784119 -0.019467
C50   C     C_R   0.655970 0.444415 0.731226 -0.277919
C51   C     C_R   0.698249 0.502014 0.696899 -0.046000
C52   C     C_R   0.357465 0.499313 0.358984 0.735583
C53   C     C_R   0.792420 0.558741 0.717301 -0.005419
C54   C     C_R   0.629479 0.271551 0.765898 -0.120601
C55   C     C_R   0.581655 0.208678 0.794365 -0.134877
C56   C     C_3   0.225277 0.585402 0.300917 -0.406854
C57   C     C_R   0.558089 0.247134 0.870727 -0.107139
C58   C     C_R   0.582010 0.348390 0.918550 -0.146640
C59   C     C_R   0.630108 0.411661 0.890491 -0.149628
C60   C     C_R   0.654491 0.373664 0.814271 0.154326
C61   C     C_R   0.411611 0.831950 0.764205 -0.157953
C62   C     C_R   0.383714 0.755672 0.779163 -0.163851
C63   C     C_R   0.310216 0.653738 0.714924 0.158648
C64   C     C_3   0.348950 0.534526 0.242511 -0.063295
C65   C     C_R   0.264148 0.629240 0.636230 -0.094444
C66   C     C_R   0.292625 0.705654 0.621310 -0.119212
C67   C     C_3   0.639448 0.939606 0.716819 -0.394745
C68   C     C_R   0.366407 0.806875 0.685164 -0.101441
C69   C     C_R   0.226485 0.570758 0.785338 -0.261537
C70   C     C_R   0.194796 0.497950 0.805108 -0.054926
C71   C     C_R   0.217406 0.425891 0.770288 -0.013373
C72   C     C_R   0.270674 0.428638 0.716451 -0.261858
C73   C     C_R   0.302490 0.501591 0.696759 -0.055664
C74   C     C_R   0.279758 0.573556 0.731557 -0.014590
C75   C     C_R   0.233986 0.370922 0.865919 -0.107073
C76   C     C_3   0.281963 0.516492 0.173708 -0.373847
C77   C     C_R   0.204559 0.295566 0.882369 -0.124370
C78   C     C_3   0.697913 0.058656 0.779648 -0.452571
C79   C     C_R   0.128910 0.195039 0.820289 -0.100567
C80   C     C_R   0.082715 0.169617 0.741541 -0.150470
C81   C     C_R   0.111502 0.244905 0.725108 -0.146478
C82   C     C_R   0.187027 0.346131 0.787500 0.152613
C83   C     C_R   0.857233 0.500190 0.142943 0.748633
C84   C     C_R   0.138331 0.499320 0.861420 0.788261
C85   C     C_R   0.856840 0.219042 0.862572 0.790597
C86   C     C_R   0.138130 0.779835 0.140968 0.799930
C87   C     C_R   0.855871 0.499553 0.861876 0.795100
C88   C     C_3   0.204027 0.389778 0.242056 -0.047280
C89   C     C_3   0.754747 0.937844 0.789932 -0.446763
C90   C     C_R   0.139708 0.500174 0.142910 0.761240
H1    H     H_    0.165279 0.577576 0.320507 0.185954
H2    H     H_    0.399898 0.619887 0.288292 0.138662
H3    H     H_    0.723365 0.909500 0.587407 0.151527
H4    H     H_    0.893003 0.089535 0.731570 0.158243
H5    H     H_    0.796610 0.907605 0.778889 0.172912
H6    H     H_    0.607939 0.335299 0.195673 0.153321
H7    H     H_    0.783197 0.368994 0.193275 0.148532
H8    H     H_    0.697210 0.332904 0.110015 0.166802
H9    H     H_    0.607112 0.472435 0.198634 0.177304
H10   H     H_    0.314766 0.584408 0.170336 0.133124
H11   H     H_    0.696054 0.473688 0.111004 0.182601
H12   H     H_    0.084188 0.383013 0.209534 0.136613
H13   H     H_    0.813986 0.660089 0.401442 0.171232
H14   H     H_    0.816684 0.566817 0.407193 0.185697
H15   H     H_    0.901559 0.558735 0.316541 0.170065
H16   H     H_    0.904019 0.658199 0.316504 0.178378
H17   H     H_    0.691341 0.606334 0.283546 0.160748
H18   H     H_    0.781037 0.607424 0.195926 0.156634
H19   H     H_    0.450333 0.222313 0.681306 0.134618
H20   H     H_    0.535524 0.210345 0.575189 0.122488
H21   H     H_    0.461689 0.131866 0.418163 0.104297
H22   H     H_    0.262690 0.447878 0.106062 0.185809
H23   H     H_    0.591388 0.908374 0.747647 0.185522
H24   H     H_    0.215735 0.075951 0.473192 0.117380
H25   H     H_    0.290745 0.155402 0.630162 0.130677
H26   H     H_    0.222609 0.901888 0.314493 0.176728
H27   H     H_    0.298237 0.901608 0.042088 0.121707
H28   H     H_    0.250849 0.821371 0.880470 0.138912
H29   H     H_    0.005250 0.799905 0.891050 0.127896
H30   H     H_    0.052085 0.879431 0.052765 0.116760
H31   H     H_    0.981633 0.784661 0.596868 0.127158
H32   H     H_    0.931036 0.602839 0.516315 0.127331
H33   H     H_    0.842165 0.497510 0.570142 0.123602
H34   H     H_    0.599415 0.913677 0.652742 0.174154
H35   H     H_    0.857074 0.758309 0.790186 0.106202
H36   H     H_    0.913645 0.598939 0.786479 0.171102
H37   H     H_    0.583894 0.401652 0.716623 0.178584
H38   H     H_    0.647419 0.241104 0.706640 0.106704
H39   H     H_    0.562712 0.130122 0.757181 0.112400
H40   H     H_    0.521052 0.198381 0.892675 0.114784
H41   H     H_    0.563187 0.377789 0.977309 0.119071
H42   H     H_    0.648517 0.490061 0.928064 0.115864
H43   H     H_    0.388335 0.865964 0.673581 0.113886
H44   H     H_    0.468273 0.910517 0.813888 0.116076
H45   H     H_    0.682473 0.089800 0.747935 0.187653
H46   H     H_    0.419197 0.775852 0.840592 0.115771
H47   H     H_    0.206779 0.551099 0.586507 0.102865
H48   H     H_    0.257360 0.686532 0.560419 0.112315
H49   H     H_    0.209788 0.626422 0.811864 0.175067
H50   H     H_    0.287359 0.372966 0.689945 0.174017
H51   H     H_    0.240445 0.315022 0.943146 0.114684
H52   H     H_    0.238779 0.555751 0.399648 0.179064
H53   H     H_    0.106258 0.136762 0.833044 0.128246
H54   H     H_    0.024606 0.091548 0.693246 0.111977
H55   H     H_    0.074973 0.224583 0.664125 0.115839
H56   H     H_    0.679820 0.083431 0.841647 0.167561
H57   H     H_    0.341357 0.656333 0.407667 0.185075
H58   H     H_    0.459657 0.529875 0.246307 0.182755
H59   H     H_    0.363872 0.413116 0.173505 0.212430
H60   H     H_    0.171271 0.375997 0.289360 0.132999
H61   H     H_    0.839607 0.086678 0.616820 0.174344
H62   H     H_    0.742849 0.064303 0.635581 0.189668
H63   H     H_    0.915875 0.079923 0.926918 0.174747
H64   H     H_    0.929170 0.066212 0.831411 0.189167
H65   H     H_    0.757330 0.393659 0.325795 0.188041
H66   H     H_    0.664672 0.275920 0.248329 0.175567
H67   H     H_    0.709234 0.907360 0.822866 0.144549
H68   H     H_    0.202706 0.085859 0.146288 0.176473
H69   H     H_    0.297724 0.095791 0.126968 0.190394
H70   H     H_    0.088258 0.807241 0.772606 0.195836
H71   H     H_    0.039044 0.688013 0.749173 0.185130
H72   H     H_    0.225323 0.299323 0.129008 0.193174
H73   H     H_    0.242753 0.290805 0.215904 0.220959
H74   H     H_    0.921253 0.896645 0.705093 0.169398
H75   H     H_    0.937324 0.913705 0.803940 0.161647
H76   H     H_    0.116878 0.330460 0.115135 0.185019
H77   H     H_    0.292594 0.448617 0.914440 0.108890
H78   H     H_    0.791958 0.082759 0.911583 0.132614
H79   H     H_    0.267555 0.662820 0.313290 0.178453
H80   H     H_    0.807564 0.914383 0.643040 0.158137
N1    N     N_3   0.398407 0.490929 0.199162 -0.475437
N2    N     N_3   0.810857 0.102547 0.667187 -0.483725
N3    N     N_3   0.908990 0.100202 0.884545 -0.447289
N4    N     N_3   0.689361 0.353851 0.292691 -0.481754
N5    N     N_3   0.266907 0.110602 0.175591 -0.425931
N6    N     N_3   0.099585 0.761037 0.781368 -0.471749
N7    N     N_3   0.204967 0.299179 0.182088 -0.484215
N8    N     N_3   0.954581 0.890614 0.745880 -0.491996
O1    O     O_3   0.500000 0.500000 0.500000 -0.474975
O2    O     O_R   0.113800 0.731630 0.056520 -0.632910
O3    O     O_R   0.819390 0.439310 0.886160 -0.633550
O4    O     O_R   0.383400 0.268380 0.323710 -0.618701
O5    O     O_R   0.115110 0.560720 0.179280 -0.652572
O6    O     O_R   0.941380 0.560750 0.885620 -0.646524
O7    O     O_R   0.115110 0.439270 0.057830 -0.644536
O8    O     O_R   0.942690 0.268390 0.886930 -0.617167
O9    O     O_R   0.114340 0.731630 0.178520 -0.652636
O10   O     O_R   0.820160 0.439310 0.057830 -0.642520
O11   O     O_R   0.113800 0.560730 0.885620 -0.645874
O12   O     O_R   0.383400 0.560740 0.616060 -0.635808
O13   O     O_R   0.555060 0.731630 0.615290 -0.643551
O14   O     O_R   0.383950 0.439280 0.616600 -0.646443
O15   O     O_R   0.677590 0.560710 0.444390 -0.643741
O16   O     O_R   0.556370 0.439260 0.616600 -0.644346
O17   O     O_R   0.382640 0.439290 0.322940 -0.662139
O18   O     O_R   0.678360 0.560700 0.616060 -0.634850
O19   O     O_R   0.382640 0.560750 0.444390 -0.645272
O20   O     O_R   0.555060 0.439270 0.322940 -0.655935
O21   O     O_R   0.383950 0.268380 0.445700 -0.639776
O22   O     O_R   0.677590 0.731610 0.615290 -0.647715
O23   O     O_3   0.997750 0.500010 0.002220 -0.477840
O24   O     O_R   0.942690 0.560750 0.179280 -0.654267
O25   O     O_R   0.114340 0.439270 0.886160 -0.634192
O26   O     O_R   0.820160 0.268410 0.886930 -0.652364
Zn1   Zn    Zn3+2 0.456040 0.586770 0.543190 0.955469
Zn2   Zn    Zn3+2 0.456820 0.413240 0.543960 0.969333
Zn3   Zn    Zn3+2 0.631110 0.586750 0.543190 0.961431
Zn4   Zn    Zn3+2 0.456040 0.413240 0.369660 0.945937
Zn5   Zn    Zn3+2 0.041710 0.413240 0.959030 0.977392
Zn6   Zn    Zn3+2 0.866640 0.413270 0.959030 0.965068
Zn7   Zn    Zn3+2 0.040930 0.586780 0.958260 0.968099
Zn8   Zn    Zn3+2 0.041710 0.586770 0.132560 0.938537

loop_
_geom_bond_atom_site_label_1
_geom_bond_atom_site_label_2
_ccdc_geom_bond_type
C69   H49   S    
C66   C68   A    
O1    Zn1   S    
C34   C56   S    
C8    C13   S    
O15   Zn3   S    
C56   H79   S    
C27   C29   A    
C41   C42   A    
O19   Zn1   S    
C35   C36   A    
C8    H6    S    
C32   H27   S    
C43   C44   A    
C67   H34   S    
C43   H35   S    
C63   C65   A    
C81   C82   A    
C23   C52   S    
C88   N7    S    
C39   C41   A    
C54   C60   A    
C67   C78   S    
C12   C23   S    
H66   N4    S    
C26   C27   A    
C9    H8    S    
C49   C60   S    
O6    Zn7   S    
C18   C24   A    
C35   N6    S    
C12   H57   S    
C36   C37   A    
C10   C15   S    
C42   C53   S    
C30   C31   A    
H62   N2    S    
C8    N4    S    
C27   C38   S    
H63   N3    S    
C39   H32   S    
H58   N1    S    
C18   C19   A    
O13   Zn1   S    
C62   H46   S    
C36   H29   S    
H72   N7    S    
C16   O14   A    
C85   O26   A    
C54   C55   A    
O10   Zn6   S    
C56   H1    S    
C79   H53   S    
O17   Zn4   S    
C2    C7    S    
C90   O5    A    
C8    C9    S    
C80   H54   S    
H73   N7    S    
C46   H31   S    
C11   H14   S    
C32   C38   A    
C29   C30   A    
C70   C84   S    
C45   H76   S    
O23   Zn8   S    
O4    Zn4   S    
C26   C86   S    
C47   C53   A    
C71   C82   S    
C65   H47   S    
O1    Zn2   S    
C59   C60   A    
H69   N5    S    
C7    N2    S    
H75   N8    S    
H70   N6    S    
C4    O13   A    
C10   H17   S    
C1    O21   A    
C52   O17   A    
C88   H60   S    
C14   C83   S    
C29   N5    S    
C83   O24   A    
O23   Zn5   S    
C44   C46   A    
C61   H44   S    
C28   O15   A    
C6    H78   S    
C77   C79   A    
C73   C74   A    
O16   Zn2   S    
O1    Zn3   S    
C59   H42   S    
O20   Zn4   S    
C16   C73   S    
C57   H40   S    
C69   C74   A    
C45   C88   S    
C72   C73   A    
O11   Zn7   S    
C25   H26   S    
C44   N8    S    
C87   O6    A    
C5    C7    S    
H71   N6    S    
C21   H24   S    
C40   O16   A    
C15   H11   S    
C55   H39   S    
C25   C26   A    
C54   H38   S    
O21   Zn2   S    
C28   O20   A    
H61   N2    S    
O3    Zn6   S    
C51   C53   A    
C63   C74   S    
C15   H18   S    
C89   H5    S    
O2    Zn7   S    
C9    C14   S    
C34   C90   S    
C22   H25   S    
C37   C38   A    
C17   H15   S    
O12   Zn1   S    
C47   C48   A    
C66   H48   S    
C4    O22   A    
C58   H41   S    
C76   H22   S    
C62   C63   A    
C86   O2    A    
C50   C51   A    
C64   C76   S    
C48   C87   S    
C84   O11   A    
C13   C28   S    
C34   C45   S    
C20   C21   A    
C75   C77   A    
C12   C56   S    
C16   O12   A    
C2    H80   S    
C39   C46   A    
C84   O25   A    
C23   C64   S    
C6    N3    S    
C49   C50   A    
O22   Zn3   S    
C81   H55   S    
C23   C88   S    
C55   C57   A    
C78   H45   S    
O7    Zn5   S    
C83   O10   A    
C42   C43   A    
C64   H2    S    
C72   H50   S    
C33   H28   S    
C3    C4    S    
C6    C89   S    
O23   Zn6   S    
C70   C71   A    
H74   N8    S    
H65   N4    S    
C47   H36   S    
C40   O18   A    
C85   O8    A    
C7    H4    S    
O1    Zn4   S    
C68   H43   S    
C9    H7    S    
H64   N3    S    
H59   N1    S    
O14   Zn2   S    
C25   C31   A    
C2    H3    S    
C3    C67   S    
C24   H19   S    
C18   H20   S    
O24   Zn8   S    
C80   C81   A    
O5    Zn8   S    
C10   C13   S    
C11   C17   S    
C87   O3    A    
C75   H77   S    
C1    O4    A    
C75   C82   A    
C89   H67   S    
C50   H37   S    
C90   O7    A    
C19   H21   S    
C76   H10   S    
C40   C51   S    
C3    C89   S    
C32   C33   A    
C41   H33   S    
C19   C20   A    
C2    C3    S    
C58   C59   A    
C5    C85   S    
C71   C72   A    
C17   H16   S    
C11   C13   S    
C61   C68   A    
C57   C58   A    
C5    C6    S    
C37   H30   S    
C64   N1    S    
C48   C49   A    
C1    C30   S    
C33   C35   A    
C12   H52   S    
C10   H9    S    
C22   C24   A    
O18   Zn3   S    
C67   H23   S    
C61   C62   A    
C69   C70   A    
C45   H12   S    
C78   H56   S    
C79   C80   A    
H68   N5    S    
C86   O9    A    
O9    Zn8   S    
C77   H51   S    
C65   C66   A    
O8    Zn5   S    
O26   Zn6   S    
C14   C15   S    
O25   Zn5   S    
C11   H13   S    
C52   O19   A    
C5    C78   S    
C21   C22   A    
O23   Zn7   S    
C34   C76   S    
C20   C31   S    
C14   C17   S    
