data_mof_unit_13510.cif
_audit_creation_date              2012-12-10T17:51:29-0500
_audit_creation_method            fapswitch 2.2
_symmetry_space_group_name_H-M    P1
_symmetry_Int_Tables_number       1
_space_group_crystal_system       triclinic
_cell_length_a                    9.923045
_cell_length_b                    10.647793
_cell_length_c                    16.708944
_cell_angle_alpha                 91.970334
_cell_angle_beta                  84.573119
_cell_angle_gamma                 90.620793
_cell_volume                      1756.43907466

loop_
_atom_site_label
_atom_site_type_symbol
_atom_type_description
_atom_site_fract_x
_atom_site_fract_y
_atom_site_fract_z
_atom_type_partial_charge
C1    C     C_R   0.500339 0.740698 0.495964 0.970787
C2    C     C_R   0.463843 0.638286 0.771938 0.416218
C3    C     C_R   0.496521 0.666613 0.156925 -0.244776
C4    C     C_R   0.482426 0.638748 0.237882 0.406335
C5    C     C_R   0.610250 0.443908 0.206440 0.077404
C6    C     C_R   0.624446 0.473461 0.124109 0.243576
C7    C     C_R   0.562600 0.583681 0.100510 0.113927
C8    C     C_2   0.421901 0.572070 0.990559 0.533152
C9    C     C_2   0.542159 0.601583 0.016692 -0.256444
C10   C     C_R   0.535801 0.526088 0.261968 -0.126502
C11   C     C_R   0.259495 0.889399 0.459930 -0.135705
C12   C     C_R   0.480073 0.500341 0.652641 0.952155
C13   C     C_R   0.133223 0.947949 0.472658 0.224355
C14   C     C_R   0.121310 0.059815 0.518544 -0.110853
C15   C     C_R   0.236603 0.118224 0.544273 -0.170494
C16   C     C_R   0.366104 0.064662 0.524988 0.060972
C17   C     C_R   0.374465 0.941592 0.493665 0.044992
C18   C     C_R   0.497244 0.876080 0.498493 -0.182709
C19   C     C_R   0.611460 0.938395 0.523498 -0.206421
C20   C     C_R   0.608869 0.065324 0.540775 0.438924
C21   C     C_R   0.488616 0.131072 0.532962 -0.258724
C22   C     C_R   0.846800 0.671095 0.602054 -0.146571
C23   C     C_R   0.496732 0.262661 0.513105 0.879790
C24   C     C_R   0.910715 0.758120 0.650819 0.189020
C25   C     C_R   0.050388 0.754642 0.651922 -0.187283
C26   C     C_R   0.126246 0.667410 0.603656 -0.156132
C27   C     C_R   0.065557 0.583103 0.550838 0.078294
C28   C     C_R   0.921173 0.583839 0.550472 0.088411
C29   C     C_R   0.933631 0.419870 0.452139 -0.079345
C30   C     C_R   0.075930 0.419148 0.451402 0.450710
C31   C     C_R   0.519829 0.501184 0.347092 0.962910
C32   C     C_R   0.462502 0.515487 0.738952 -0.111639
C33   C     C_R   0.432698 0.410751 0.787218 0.006248
C34   C     C_R   0.405218 0.431528 0.871057 0.468946
C35   C     C_R   0.417562 0.553809 0.903926 -0.110397
C36   C     C_R   0.444237 0.656363 0.855084 -0.399294
H1    H     H_    0.703070 0.888256 0.531688 0.181956
H2    H     H_    0.266375 0.804584 0.422586 0.208720
H3    H     H_    0.023563 0.103893 0.532167 0.187245
H4    H     H_    0.223491 0.204986 0.579694 0.164992
H5    H     H_    0.884073 0.354592 0.413139 0.173691
H6    H     H_    0.739347 0.674422 0.605944 0.226451
H7    H     H_    0.101141 0.820040 0.690388 0.163600
H8    H     H_    0.232111 0.669020 0.609440 0.227254
H9    H     H_    0.629938 0.619652 0.974449 0.118882
H10   H     H_    0.452062 0.749842 0.882158 0.163550
H11   H     H_    0.450169 0.750389 0.136996 0.154487
N1    N     N_R   0.857140 0.501200 0.500750 -0.154951
N2    N     N_R   0.142740 0.501280 0.500770 -0.181938
O1    O     O_R   0.385310 0.683220 0.500000 -0.636895
O2    O     O_R   0.614640 0.683250 0.500010 -0.642490
O3    O     O_R   0.371780 0.500010 0.615800 -0.643886
O4    O     O_R   0.601110 0.500030 0.615800 -0.634647
O5    O     O_R   0.385360 0.316750 0.499990 -0.646600
O6    O     O_R   0.614690 0.316780 0.500000 -0.596121
O7    O     O_R   0.398890 0.499970 0.384200 -0.594576
O8    O     O_R   0.628220 0.499990 0.384200 -0.620446
Zn1   Zn    Zn3+2 0.346870 0.499980 0.499990 0.945425
Zn2   Zn    Zn3+2 0.653130 0.500020 0.500010 0.945712
C37   C     C_3   0.437334 0.279641 0.748844 -0.923323
H12   H     H_    0.441710 0.204561 0.792754 0.259507
H13   H     H_    0.347689 0.263837 0.714647 0.235899
H14   H     H_    0.530341 0.269051 0.706893 0.225536
C38   C     C_3   0.699745 0.385879 0.062230 -0.846773
H15   H     H_    0.708616 0.421576 0.000490 0.234313
H16   H     H_    0.804650 0.372562 0.078165 0.236525
H17   H     H_    0.646409 0.293776 0.060298 0.258509
C39   C     C_3   0.010675 0.890303 0.439533 -0.863179
H18   H     H_    0.035303 0.801290 0.404868 0.235904
H19   H     H_    0.933760 0.869385 0.489794 0.246817
H20   H     H_    0.967539 0.956974 0.399311 0.257333
O9    O     O_3   0.724889 0.121105 0.565289 -0.777100
H21   H     H_    0.698248 0.194767 0.600857 0.337653
C40   C     C_3   0.831129 0.855669 0.701631 -0.887467
H22   H     H_    0.722142 0.851503 0.691984 0.265768
H23   H     H_    0.841890 0.841165 0.766192 0.243384
H24   H     H_    0.869778 0.950758 0.685718 0.256611
O10   O     O_3   0.416658 0.719824 0.294704 -0.789142
H25   H     H_    0.386305 0.794726 0.267833 0.332041
O11   O     O_3   0.142589 0.332663 0.399425 -0.770225
H26   H     H_    0.239959 0.342023 0.402836 0.392433
C41   C     C_3   0.668354 0.324640 0.236281 -0.851355
H27   H     H_    0.748904 0.349189 0.275991 0.252033
H28   H     H_    0.587089 0.271045 0.270829 0.229612
H29   H     H_    0.713325 0.260181 0.187962 0.249279
O12   O     O_3   0.485252 0.738417 0.721627 -0.812654
H30   H     H_    0.479966 0.817950 0.754418 0.332715
O13   O     O_3   0.313057 0.539670 0.044036 -0.722278
H31   H     H_    0.234706 0.521201 0.012706 0.344682
O14   O     O_3   0.372758 0.335009 0.922700 -0.752761
H32   H     H_    0.314433 0.274024 0.895792 0.336450

loop_
_geom_bond_atom_site_label_1
_geom_bond_atom_site_label_2
_ccdc_geom_bond_type
C9    H9    S    
C16   C21   A    
O6    Zn2   S    
C19   C20   A    
C25   H7    S    
O4    Zn2   S    
C26   H8    S    
C22   H6    S    
C1    C18   S    
C40   H23   S    
N1    Zn2   S    
C37   H14   S    
C37   H13   S    
C18   C19   A    
C3    C7    A    
C5    C6    A    
O8    Zn2   S    
C15   C16   A    
C2    C32   A    
C34   C35   A    
C6    C38   S    
C19   H1    S    
C14   H3    S    
C39   H18   S    
C10   C31   S    
C11   C17   A    
C35   C36   A    
C8    C9    D    
C40   H24   S    
C36   H10   S    
C31   O7    A    
C1    O1    A    
C12   O4    A    
C30   O11   S    
C22   C28   A    
C13   C14   A    
C12   C32   S    
C12   O3    A    
C33   C34   A    
C40   H22   S    
C29   N1    A    
O1    Zn1   S    
C38   H17   S    
C24   C25   A    
O12   H30   S    
O11   H26   S    
C25   C26   A    
N2    Zn1   S    
C37   H12   S    
C8    O13   S    
C8    C35   S    
C38   H16   S    
C11   H2    S    
C34   O14   S    
C4    O10   S    
C29   C30   A    
C17   C18   A    
C26   C27   A    
C20   C21   A    
C1    O2    A    
O3    Zn1   S    
C30   N2    A    
C33   C37   S    
C41   H28   S    
C21   C23   S    
C22   C24   A    
O2    Zn2   S    
C4    C10   A    
C3    C4    A    
C23   O5    A    
O5    Zn1   S    
C2    C36   A    
C7    C9    S    
C28   N1    A    
C29   H5    S    
O10   H25   S    
O9    H21   S    
C23   O6    A    
C6    C7    A    
C41   H29   S    
C38   H15   S    
C31   O8    A    
C5    C10   A    
C32   C33   A    
C5    C41   S    
C11   C13   A    
C24   C40   S    
O14   H32   S    
C16   C17   A    
C39   H20   S    
C3    H11   S    
O7    Zn1   S    
C2    O12   S    
C15   H4    S    
O13   H31   S    
C39   H19   S    
C41   H27   S    
C27   C28   A    
C14   C15   A    
C20   O9    S    
C27   N2    A    
C13   C39   S    
