data_mof_unit_62826.cif
_audit_creation_date              2012-12-11T14:47:41-0500
_audit_creation_method            fapswitch 2.2
_symmetry_space_group_name_H-M    P1
_symmetry_Int_Tables_number       1
_space_group_crystal_system       triclinic
_cell_length_a                    19.430816
_cell_length_b                    6.959227
_cell_length_c                    19.501263
_cell_angle_alpha                 89.999559
_cell_angle_beta                  95.816157
_cell_angle_gamma                 89.999271
_cell_volume                      2623.45327651

loop_
_atom_site_label
_atom_site_type_symbol
_atom_type_description
_atom_site_fract_x
_atom_site_fract_y
_atom_site_fract_z
_atom_type_partial_charge
O1    O     O_R   0.673510 0.377480 0.186100 -0.539956
O2    O     O_R   0.326490 0.622520 0.813900 -0.539950
O3    O     O_R   0.826490 0.877480 0.313900 -0.539960
O4    O     O_R   0.173510 0.122520 0.686100 -0.539960
O5    O     O_R   0.807790 0.705750 0.184090 -0.527463
O6    O     O_R   0.192210 0.294250 0.815910 -0.527462
O7    O     O_R   0.692210 0.205750 0.315910 -0.527478
O8    O     O_R   0.307790 0.794250 0.684090 -0.527477
C1    C     C_1   0.478126 0.994561 0.521193 -0.005475
C2    C     C_1   0.521874 0.005439 0.478807 -0.005475
C3    C     C_1   0.021874 0.494561 0.978807 -0.005472
C4    C     C_1   0.978126 0.505439 0.021193 -0.005472
C5    C     C_R   0.830859 0.538209 0.166220 0.707770
C6    C     C_R   0.169141 0.461790 0.833780 0.707739
C7    C     C_R   0.669141 0.038210 0.333780 0.707724
C8    C     C_R   0.330859 0.961790 0.666220 0.707723
O9    O     O_R   0.672870 0.707110 0.178120 -0.512869
O10   O     O_R   0.327130 0.292890 0.821880 -0.512885
O11   O     O_R   0.827130 0.207110 0.321880 -0.512874
O12   O     O_R   0.172870 0.792890 0.678120 -0.512874
O13   O     O_R   0.690610 0.878650 0.307880 -0.523799
O14   O     O_R   0.309390 0.121350 0.692120 -0.523801
O15   O     O_R   0.809390 0.378650 0.192120 -0.523802
O16   O     O_R   0.190610 0.621350 0.807880 -0.523797
C9    C     C_R   0.647595 0.536560 0.161020 0.726716
C10   C     C_R   0.352404 0.463440 0.838980 0.726673
C11   C     C_R   0.852404 0.036555 0.338980 0.726651
C12   C     C_R   0.147596 0.963444 0.661020 0.726658
C13   C     C_1   0.382821 0.971908 0.614187 -0.223370
C14   C     C_1   0.617179 0.028092 0.385813 -0.223370
C15   C     C_1   0.117179 0.471909 0.885813 -0.223363
C16   C     C_1   0.882820 0.528090 0.114187 -0.223368
O17   O     O_3   0.755980 0.544260 0.292580 -0.356540
O18   O     O_3   0.244020 0.455740 0.707420 -0.356539
O19   O     O_3   0.744020 0.044260 0.207420 -0.356531
O20   O     O_3   0.255980 0.955740 0.792580 -0.356523
V1    V     V_3+5 0.748890 0.818640 0.242100 1.443517
V2    V     V_3+5 0.251110 0.181360 0.757900 1.443531
V3    V     V_3+5 0.751110 0.318640 0.257900 1.443485
V4    V     V_3+5 0.248890 0.681360 0.742100 1.443501
C17   C     C_R   0.087114 0.988598 0.607930 -0.155650
C18   C     C_R   0.912886 0.011401 0.392070 -0.155650
C19   C     C_R   0.412891 0.488573 0.892066 -0.155598
C20   C     C_R   0.587108 0.511429 0.107935 -0.155606
C21   C     C_1   0.426313 0.981878 0.571520 -0.004851
C22   C     C_1   0.573687 0.018122 0.428479 -0.004849
C23   C     C_1   0.073687 0.481879 0.928479 -0.004844
C24   C     C_1   0.926312 0.518121 0.071521 -0.004851
C25   C     C_R   0.007785 0.801859 0.438012 -0.145476
C26   C     C_R   0.992215 0.198140 0.561988 -0.145474
C27   C     C_R   0.492160 0.302004 0.062036 -0.145466
C28   C     C_R   0.507837 0.698008 0.937966 -0.145502
C29   C     C_R   0.955317 0.848990 0.386638 -0.229526
C30   C     C_R   0.044681 0.151005 0.613363 -0.229536
C31   C     C_R   0.544638 0.349118 0.113402 -0.229599
C32   C     C_R   0.455361 0.650884 0.886598 -0.229586
C33   C     C_R   0.924572 0.128771 0.451281 0.418529
C34   C     C_R   0.075430 0.871233 0.548718 0.418532
C35   C     C_R   0.575457 0.628707 0.048696 0.418587
C36   C     C_R   0.424540 0.371306 0.951308 0.418583
C37   C     C_R   0.979169 0.082871 0.503200 -0.002157
C38   C     C_R   0.020832 0.917129 0.496800 -0.002162
C39   C     C_R   0.520853 0.582824 0.996782 -0.002121
C40   C     C_R   0.479147 0.417185 0.003219 -0.002143
H1    H     H_    0.052774 0.245119 0.657712 0.148842
H2    H     H_    0.947223 0.754873 0.342290 0.148845
H3    H     H_    0.447290 0.744929 0.842227 0.148774
H4    H     H_    0.552709 0.255070 0.157773 0.148782
H5    H     H_    0.038036 0.673736 0.431363 0.169213
H6    H     H_    0.961964 0.326263 0.568637 0.169211
H7    H     H_    0.461873 0.173964 0.068714 0.169198
H8    H     H_    0.538118 0.826061 0.931290 0.169155
O21   O     O_3   0.116376 0.710970 0.541954 -0.550890
C41   C     C_3   0.174247 0.765955 0.508294 -0.236706
H9    H     H_    0.158455 0.823169 0.455758 0.122974
H10   H     H_    0.206774 0.637140 0.502491 0.162674
H11   H     H_    0.206727 0.873411 0.538930 0.114627
O22   O     O_3   0.883633 0.289049 0.458041 -0.550889
C42   C     C_3   0.825759 0.234098 0.491700 -0.236731
H12   H     H_    0.793251 0.362940 0.497519 0.162677
H13   H     H_    0.841544 0.176826 0.544227 0.122961
H14   H     H_    0.793262 0.126705 0.461054 0.114655
O23   O     O_3   0.383541 0.211178 0.958119 -0.550887
C43   C     C_3   0.325682 0.266424 0.991750 -0.236835
H15   H     H_    0.341483 0.323899 0.044241 0.123006
H16   H     H_    0.293143 0.137698 0.997646 0.162683
H17   H     H_    0.293209 0.373750 0.961047 0.114673
O24   O     O_3   0.616439 0.788880 0.041908 -0.550888
C44   C     C_3   0.674300 0.733740 0.008260 -0.236766
H18   H     H_    0.706932 0.862390 0.002576 0.162703
H19   H     H_    0.658497 0.676910 0.955682 0.123077
H20   H     H_    0.706684 0.625953 0.038827 0.114496

loop_
_geom_bond_atom_site_label_1
_geom_bond_atom_site_label_2
_ccdc_geom_bond_type
C34   C38   A    
C1    C21   S    
O5    V1    S    
O21   C41   S    
C5    C16   S    
C3    C23   S    
O10   C10   A    
C43   H17   S    
C6    C15   S    
C4    C24   S    
C31   H4    S    
C30   H1    S    
C26   C30   A    
C41   H10   S    
O18   V4    S    
O19   V1    S    
C43   H16   S    
C17   C34   A    
C18   C29   A    
O12   V4    S    
C36   O23   S    
C25   C29   A    
C20   C35   A    
O14   V2    S    
C12   C17   S    
C5    O15   A    
C6    O16   A    
C35   O24   S    
C41   H11   S    
C2    C22   S    
O6    V2    S    
C44   H19   S    
O11   C11   A    
C1    C2    T    
O5    C5    A    
O7    C7    A    
O8    C8    A    
C15   C23   T    
O1    C9    A    
C16   C24   T    
C27   H7    S    
C18   C33   A    
O4    C12   A    
C10   C19   S    
C41   H9    S    
O20   V4    S    
C9    C20   S    
C43   H15   S    
C42   H13   S    
O22   C42   S    
O9    V1    S    
O12   C12   A    
C8    C13   S    
O17   V1    S    
C42   H12   S    
C13   C21   T    
O19   V3    S    
C28   H8    S    
O6    C6    A    
O23   C43   S    
O2    C10   A    
O17   V3    S    
C44   H20   S    
C29   H2    S    
O11   V3    S    
C19   C36   A    
O4    V2    S    
C7    C14   S    
C8    O14   A    
C25   C38   A    
O18   V2    S    
C33   O22   S    
C14   C22   T    
C27   C40   A    
C28   C39   A    
C42   H14   S    
C3    C4    T    
C33   C37   A    
C32   H3    S    
C35   C39   A    
C36   C40   A    
O9    C9    A    
O3    C11   A    
O10   V2    S    
C11   C18   S    
O15   V3    S    
O20   V2    S    
O16   V4    S    
C20   C31   A    
C27   C31   A    
C26   H6    S    
C37   C38   A    
C17   C30   A    
O1    V3    S    
C39   C40   A    
O2    V4    S    
C19   C32   A    
C7    O13   A    
O13   V1    S    
O24   C44   S    
O3    V1    S    
C26   C37   A    
O7    V3    S    
C25   H5    S    
O8    V4    S    
C44   H18   S    
C28   C32   A    
C34   O21   S    
