data_mof_unit_42809.cif
_audit_creation_date              2012-12-11T15:08:52-0500
_audit_creation_method            fapswitch 2.2
_symmetry_space_group_name_H-M    P1
_symmetry_Int_Tables_number       1
_space_group_crystal_system       triclinic
_cell_length_a                    19.536575
_cell_length_b                    11.286942
_cell_length_c                    18.713234
_cell_angle_alpha                 90.0
_cell_angle_beta                  90.389554
_cell_angle_gamma                 90.000011
_cell_volume                      4126.32596344

loop_
_atom_site_label
_atom_site_type_symbol
_atom_type_description
_atom_site_fract_x
_atom_site_fract_y
_atom_site_fract_z
_atom_type_partial_charge
Br1   Br    Br    0.467480 0.559760 0.411583 -0.555125
Br2   Br    Br    0.532520 0.559760 0.588418 -0.555125
Br3   Br    Br    0.967480 0.059760 0.411583 -0.555124
Br4   Br    Br    0.032520 0.059760 0.588418 -0.555124
C1    C     C_R   0.272780 0.042478 0.854303 0.531356
C2    C     C_3   0.687478 0.525822 0.954864 -0.209091
C3    C     C_R   0.225952 0.542333 0.354699 0.540861
C4    C     C_R   0.469429 0.822171 0.645894 0.562450
C5    C     C_R   0.530572 0.822171 0.354106 0.562450
C6    C     C_R   0.969429 0.322171 0.645894 0.562450
C7    C     C_R   0.030571 0.322171 0.354106 0.562449
C8    C     C_R   0.260032 0.638339 0.644479 0.534316
C9    C     C_R   0.739968 0.638339 0.355521 0.534316
C10   C     C_R   0.760032 0.138339 0.644479 0.534316
C11   C     C_R   0.239968 0.138340 0.355521 0.534316
C12   C     C_3   0.480372 0.917712 0.035911 -0.105993
C13   C     C_3   0.812521 0.025822 0.045136 -0.209090
C14   C     C_3   0.519627 0.917712 0.964089 -0.105993
C15   C     C_3   0.980372 0.417712 0.035911 -0.105993
C16   C     C_3   0.019627 0.417712 0.964089 -0.105993
C17   C     C_3   0.432033 0.820144 0.007259 -0.162225
C18   C     C_3   0.567967 0.820145 0.992741 -0.162225
C19   C     C_3   0.932033 0.320144 0.007259 -0.162225
C20   C     C_3   0.067967 0.320145 0.992741 -0.162225
C21   C     C_3   0.471421 0.821178 0.936234 0.056315
C22   C     C_3   0.528579 0.821178 0.063766 0.056315
C23   C     C_3   0.971421 0.321178 0.936234 0.056315
C24   C     C_3   0.187478 0.025822 0.954864 -0.209091
C25   C     C_3   0.028579 0.321178 0.063766 0.056315
C26   C     C_3   0.361982 0.460015 0.924388 -0.396890
C27   C     C_3   0.638018 0.460015 0.075611 -0.396891
C28   C     C_3   0.861982 0.960015 0.924388 -0.396890
C29   C     C_3   0.138018 0.960015 0.075611 -0.396891
C30   C     C_3   0.325344 0.559605 0.965992 -0.105864
C31   C     C_3   0.674656 0.559605 0.034008 -0.105865
C32   C     C_3   0.825344 0.059605 0.965992 -0.105864
C33   C     C_3   0.174656 0.059605 0.034008 -0.105865
C34   C     C_3   0.181821 0.518130 0.025008 -0.214428
C35   C     C_3   0.818179 0.518131 0.974992 -0.214428
C36   C     C_3   0.681821 0.018130 0.025008 -0.214428
C37   C     C_R   0.727220 0.042478 0.145697 0.531355
C38   C     C_3   0.318179 0.018131 0.974992 -0.214428
C39   C     C_3   0.240314 0.703567 0.055893 -0.267294
C40   C     C_3   0.759686 0.703567 0.944107 -0.267293
C41   C     C_3   0.740314 0.203567 0.055893 -0.267294
C42   C     C_3   0.259686 0.203567 0.944107 -0.267293
C43   C     C_3   0.241488 0.571556 0.070048 0.050817
C44   C     C_3   0.758512 0.571556 0.929952 0.050817
C45   C     C_3   0.741488 0.071556 0.070048 0.050817
C46   C     C_3   0.258512 0.071556 0.929952 0.050817
C47   C     C_3   0.256823 0.607377 0.932035 0.065660
C48   C     C_R   0.772780 0.542478 0.854303 0.531356
C49   C     C_3   0.743176 0.607377 0.067965 0.065660
C50   C     C_3   0.756823 0.107377 0.932035 0.065660
C51   C     C_3   0.243176 0.107377 0.067965 0.065660
C52   C     C_3   0.198970 0.517783 0.944673 -0.252478
C53   C     C_3   0.801029 0.517783 0.055327 -0.252478
C54   C     C_3   0.698970 0.017783 0.944673 -0.252478
C55   C     C_3   0.301029 0.017783 0.055327 -0.252478
C56   C     C_3   0.237095 0.721611 0.974136 -0.236969
C57   C     C_3   0.762905 0.721611 0.025864 -0.236970
C58   C     C_3   0.737095 0.221610 0.974136 -0.236969
C59   C     C_R   0.227220 0.542478 0.145697 0.531355
C60   C     C_3   0.262905 0.221611 0.025864 -0.236970
C61   C     C_3   0.510613 0.694041 0.461828 0.053710
C62   C     C_3   0.489388 0.694041 0.538172 0.053710
C63   C     C_3   0.010613 0.194041 0.461828 0.053711
C64   C     C_3   0.989388 0.194041 0.538172 0.053710
C65   C     C_R   0.443864 0.817213 0.862420 0.533560
C66   C     C_R   0.556135 0.817213 0.137580 0.533561
C67   C     C_R   0.943864 0.317213 0.862420 0.533560
C68   C     C_R   0.056135 0.317213 0.137580 0.533560
C69   C     C_3   0.563240 0.899744 0.473146 -0.266026
C70   C     C_3   0.519308 0.724037 0.964424 -0.113162
C71   C     C_3   0.436761 0.899744 0.526855 -0.266026
C72   C     C_3   0.063239 0.399744 0.473145 -0.266026
C73   C     C_3   0.936760 0.399743 0.526855 -0.266026
C74   C     C_3   0.439739 0.876215 0.445228 -0.280994
C75   C     C_3   0.560261 0.876215 0.554772 -0.280994
C76   C     C_3   0.939739 0.376214 0.445228 -0.280995
C77   C     C_3   0.060261 0.376216 0.554772 -0.280994
C78   C     C_3   0.509982 0.822999 0.430467 0.031196
C79   C     C_3   0.490018 0.822999 0.569533 0.031195
C80   C     C_3   0.009982 0.322999 0.430467 0.031195
C81   C     C_3   0.480692 0.724037 0.035576 -0.113162
C82   C     C_3   0.990018 0.322999 0.569533 0.031195
C83   C     C_3   0.175358 0.642052 0.460358 -0.222142
C84   C     C_3   0.824642 0.642053 0.539642 -0.222143
C85   C     C_3   0.675358 0.142054 0.460358 -0.222142
C86   C     C_3   0.324642 0.142052 0.539642 -0.222142
C87   C     C_3   0.181377 0.657637 0.539775 -0.217848
C88   C     C_3   0.818623 0.657638 0.460225 -0.217849
C89   C     C_3   0.681377 0.157638 0.539775 -0.217848
C90   C     C_3   0.318623 0.157637 0.460225 -0.217848
C91   C     C_3   0.250258 0.453334 0.473450 -0.222074
C92   C     C_3   0.019308 0.224037 0.964424 -0.113162
C93   C     C_3   0.749742 0.453334 0.526550 -0.222072
C94   C     C_3   0.750257 0.953333 0.473450 -0.222072
C95   C     C_3   0.249741 0.953334 0.526550 -0.222074
C96   C     C_3   0.298200 0.650777 0.444322 -0.267842
C97   C     C_3   0.701800 0.650777 0.555678 -0.267843
C98   C     C_3   0.798200 0.150776 0.444322 -0.267843
C99   C     C_3   0.201800 0.150778 0.555678 -0.267843
C100  C     C_3   0.237206 0.571066 0.430949 0.052904
C101  C     C_3   0.762794 0.571067 0.569051 0.052905
C102  C     C_3   0.737206 0.071066 0.430949 0.052905
C103  C     C_3   0.980692 0.224037 0.035576 -0.113162
C104  C     C_3   0.262794 0.071066 0.569051 0.052905
C105  C     C_3   0.249605 0.603486 0.568766 0.054952
C106  C     C_3   0.750395 0.603486 0.431234 0.054951
C107  C     C_3   0.749604 0.103486 0.568766 0.054951
C108  C     C_3   0.250396 0.103487 0.431234 0.054952
C109  C     C_3   0.244084 0.470444 0.555345 -0.270681
C110  C     C_3   0.755916 0.470444 0.444656 -0.270682
C111  C     C_3   0.744083 0.970444 0.555345 -0.270681
C112  C     C_3   0.255915 0.970444 0.444655 -0.270681
C113  C     C_R   0.262519 0.641452 0.854889 0.529561
C114  C     C_3   0.312521 0.525822 0.045136 -0.209090
C115  C     C_R   0.737481 0.641452 0.145111 0.529562
C116  C     C_R   0.762519 0.141452 0.854889 0.529561
C117  C     C_R   0.237481 0.141452 0.145111 0.529562
C118  C     C_3   0.312520 0.646592 0.525363 -0.220702
C119  C     C_3   0.687480 0.646591 0.474637 -0.220702
C120  C     C_3   0.812520 0.146590 0.525362 -0.220702
C121  C     C_3   0.187480 0.146593 0.474638 -0.220702
C122  C     C_R   0.274048 0.042333 0.645301 0.540861
C123  C     C_R   0.725952 0.042333 0.354699 0.540861
C124  C     C_R   0.774048 0.542333 0.645301 0.540861
Cr1   Cr    Cr6+3 0.229620 0.836040 0.749110 1.021749
Cr2   Cr    Cr6+3 0.613980 0.676590 0.250790 1.030878
Cr3   Cr    Cr6+3 0.886020 0.176590 0.749210 1.030878
Cr4   Cr    Cr6+3 0.113980 0.176590 0.250790 1.030878
Cr5   Cr    Cr6+3 0.770380 0.836040 0.250890 1.021749
Cr6   Cr    Cr6+3 0.729620 0.336040 0.749110 1.021749
Cr7   Cr    Cr6+3 0.270380 0.336040 0.250890 1.021749
Cr8   Cr    Cr6+3 0.387630 0.990680 0.750730 1.007422
Cr9   Cr    Cr6+3 0.612370 0.990680 0.249270 1.007422
Cr10  Cr    Cr6+3 0.887630 0.490680 0.750730 1.007422
Cr11  Cr    Cr6+3 0.112370 0.490680 0.249270 1.007422
Cr12  Cr    Cr6+3 0.386020 0.676590 0.749210 1.030878
H1    H     H_    0.377906 0.809647 0.021015 0.088013
H2    H     H_    0.713464 0.743292 0.919578 0.104495
H3    H     H_    0.195995 0.928623 0.537171 0.151613
H4    H     H_    0.285642 0.422048 0.583797 0.122173
H5    H     H_    0.714359 0.422048 0.416203 0.122172
H6    H     H_    0.785641 0.922048 0.583797 0.122172
H7    H     H_    0.214357 0.922049 0.416203 0.122173
H8    H     H_    0.315711 0.430297 0.053492 0.138990
H9    H     H_    0.684289 0.430297 0.946508 0.138990
H10   H     H_    0.815711 0.930297 0.053492 0.138990
H11   H     H_    0.184289 0.930297 0.946508 0.138990
H12   H     H_    0.353523 0.564639 0.079334 0.106210
H13   H     H_    0.786535 0.243292 0.080422 0.104495
H14   H     H_    0.646476 0.564639 0.920666 0.106210
H15   H     H_    0.853523 0.064639 0.079334 0.106210
H16   H     H_    0.146476 0.064639 0.920666 0.106210
H17   H     H_    0.361771 0.634337 0.966059 0.137937
H18   H     H_    0.638229 0.634338 0.033940 0.137937
H19   H     H_    0.861771 0.134337 0.966059 0.137937
H20   H     H_    0.138229 0.134338 0.033940 0.137937
H21   H     H_    0.666788 0.933167 0.046987 0.097274
H22   H     H_    0.333212 0.933167 0.953013 0.097274
H23   H     H_    0.166788 0.433167 0.046987 0.097274
H24   H     H_    0.213464 0.243292 0.919578 0.104495
H25   H     H_    0.833212 0.433167 0.953013 0.097274
H26   H     H_    0.715439 0.929827 0.927216 0.117144
H27   H     H_    0.284561 0.929827 0.072784 0.117144
H28   H     H_    0.215439 0.429827 0.927216 0.117144
H29   H     H_    0.784561 0.429827 0.072784 0.117144
H30   H     H_    0.406782 0.496818 0.895594 0.162745
H31   H     H_    0.382656 0.389869 0.960035 0.104375
H32   H     H_    0.327800 0.420418 0.883496 0.146824
H33   H     H_    0.593218 0.496819 0.104406 0.162746
H34   H     H_    0.617344 0.389869 0.039965 0.104375
H35   H     H_    0.270329 0.793514 0.958447 0.107472
H36   H     H_    0.672200 0.420418 0.116504 0.146824
H37   H     H_    0.906782 0.996818 0.895594 0.162745
H38   H     H_    0.882656 0.889869 0.960035 0.104375
H39   H     H_    0.827799 0.920418 0.883496 0.146824
H40   H     H_    0.093218 0.996819 0.104406 0.162746
H41   H     H_    0.117343 0.889869 0.039965 0.104375
H42   H     H_    0.172200 0.920418 0.116504 0.146824
H43   H     H_    0.729671 0.793514 0.041552 0.107473
H44   H     H_    0.770329 0.293514 0.958447 0.107472
H45   H     H_    0.229671 0.293514 0.041552 0.107473
H46   H     H_    0.183479 0.744848 0.959741 0.134799
H47   H     H_    0.816520 0.744848 0.040259 0.134799
H48   H     H_    0.683479 0.244848 0.959741 0.134799
H49   H     H_    0.622093 0.809647 0.978984 0.088013
H50   H     H_    0.316520 0.244848 0.040259 0.134799
H51   H     H_    0.634728 0.072599 0.032104 0.137603
H52   H     H_    0.365272 0.072599 0.967896 0.137603
H53   H     H_    0.134728 0.572599 0.032104 0.137603
H54   H     H_    0.865272 0.572599 0.967896 0.137603
H55   H     H_    0.152595 0.541490 0.913046 0.123009
H56   H     H_    0.847405 0.541490 0.086953 0.123009
H57   H     H_    0.652595 0.041490 0.913046 0.123009
H58   H     H_    0.347405 0.041490 0.086953 0.123009
H59   H     H_    0.562666 0.668724 0.461393 0.168376
H60   H     H_    0.877906 0.309647 0.021015 0.088013
H61   H     H_    0.437334 0.668725 0.538607 0.168376
H62   H     H_    0.062666 0.168726 0.461393 0.168375
H63   H     H_    0.937335 0.168725 0.538607 0.168376
H64   H     H_    0.614764 0.891843 0.452310 0.115117
H65   H     H_    0.385236 0.891842 0.547691 0.115119
H66   H     H_    0.114763 0.391844 0.452308 0.115119
H67   H     H_    0.885237 0.391840 0.547691 0.115118
H68   H     H_    0.600645 0.813592 0.571715 0.139449
H69   H     H_    0.399356 0.813592 0.428286 0.139449
H70   H     H_    0.100645 0.313593 0.571713 0.139449
H71   H     H_    0.122093 0.309648 0.978984 0.088013
H72   H     H_    0.899355 0.313590 0.428286 0.139449
H73   H     H_    0.465261 0.998485 0.065635 0.115218
H74   H     H_    0.534739 0.998485 0.934365 0.115218
H75   H     H_    0.965261 0.498485 0.065635 0.115218
H76   H     H_    0.034739 0.498485 0.934365 0.115218
H77   H     H_    0.432920 0.959893 0.414897 0.120014
H78   H     H_    0.567081 0.959893 0.585104 0.120013
H79   H     H_    0.932919 0.459892 0.414897 0.120014
H80   H     H_    0.067081 0.459894 0.585103 0.120014
H81   H     H_    0.452577 0.992630 0.535222 0.138454
H82   H     H_    0.194662 0.742932 0.080758 0.135595
H83   H     H_    0.547424 0.992630 0.464778 0.138454
H84   H     H_    0.952576 0.492629 0.535222 0.138455
H85   H     H_    0.047423 0.492630 0.464777 0.138454
H86   H     H_    0.126687 0.601255 0.447227 0.142335
H87   H     H_    0.873313 0.601255 0.552772 0.142336
H88   H     H_    0.626686 0.101258 0.447227 0.142336
H89   H     H_    0.373313 0.101254 0.552773 0.142336
H90   H     H_    0.172084 0.730572 0.434357 0.130148
H91   H     H_    0.827916 0.730572 0.565643 0.130148
H92   H     H_    0.672085 0.230574 0.434357 0.130147
H93   H     H_    0.805337 0.742932 0.919242 0.135595
H94   H     H_    0.327916 0.230572 0.565643 0.130148
H95   H     H_    0.176639 0.751992 0.551733 0.152083
H96   H     H_    0.823359 0.751992 0.448267 0.152082
H97   H     H_    0.676639 0.251992 0.551734 0.152083
H98   H     H_    0.323362 0.251991 0.448266 0.152082
H99   H     H_    0.136802 0.616056 0.566358 0.125637
H100  H     H_    0.863198 0.616059 0.433642 0.125638
H101  H     H_    0.636802 0.116056 0.566357 0.125637
H102  H     H_    0.363198 0.116055 0.433642 0.125636
H103  H     H_    0.720231 0.880471 0.453349 0.110657
H104  H     H_    0.694662 0.242931 0.080758 0.135595
H105  H     H_    0.279765 0.880468 0.546651 0.110658
H106  H     H_    0.220234 0.380470 0.453349 0.110659
H107  H     H_    0.779766 0.380470 0.546652 0.110659
H108  H     H_    0.694678 0.936744 0.575227 0.112161
H109  H     H_    0.305320 0.936744 0.424774 0.112162
H110  H     H_    0.194680 0.436744 0.575226 0.112162
H111  H     H_    0.805321 0.436744 0.424774 0.112162
H112  H     H_    0.341484 0.619392 0.412947 0.187110
H113  H     H_    0.658516 0.619392 0.587053 0.187109
H114  H     H_    0.841484 0.119389 0.412947 0.187110
H115  H     H_    0.305337 0.242932 0.919242 0.135595
H116  H     H_    0.158516 0.119392 0.587053 0.187110
H117  H     H_    0.287822 0.741930 0.426165 0.106091
H118  H     H_    0.712178 0.741931 0.573835 0.106092
H119  H     H_    0.787823 0.241930 0.426165 0.106091
H120  H     H_    0.212179 0.241931 0.573836 0.106092
H121  H     H_    0.534767 0.642630 0.935524 0.124603
H122  H     H_    0.465232 0.642630 0.064476 0.124603
H123  H     H_    0.034767 0.142630 0.935524 0.124603
H124  H     H_    0.965233 0.142630 0.064476 0.124603
H125  H     H_    0.333949 0.728525 0.545634 0.098533
H126  H     H_    0.286535 0.743292 0.080422 0.104495
H127  H     H_    0.666051 0.728524 0.454365 0.098534
H128  H     H_    0.833948 0.228524 0.545634 0.098534
H129  H     H_    0.166052 0.228526 0.454366 0.098533
H130  H     H_    0.351554 0.576726 0.533853 0.169511
H131  H     H_    0.648446 0.576726 0.466147 0.169510
H132  H     H_    0.851553 0.076725 0.533853 0.169511
H133  H     H_    0.148447 0.076728 0.466147 0.169511
H134  H     H_    0.304004 0.428621 0.462829 0.151613
H135  H     H_    0.695996 0.428622 0.537171 0.151613
H136  H     H_    0.804003 0.928620 0.462828 0.151612
O1    O     O_R   0.214130 0.708570 0.829890 -0.527603
O2    O     O_R   0.542830 0.717300 0.331620 -0.463093
O3    O     O_R   0.957170 0.217300 0.668380 -0.463093
O4    O     O_R   0.042830 0.217300 0.331620 -0.463093
O5    O     O_R   0.320870 0.624890 0.673130 -0.500930
O6    O     O_R   0.679130 0.624890 0.326870 -0.500930
O7    O     O_R   0.820870 0.124890 0.673130 -0.500930
O8    O     O_R   0.179130 0.124890 0.326870 -0.500929
O9    O     O_3   0.334430 0.834430 0.749680 -0.298803
O10   O     O_3   0.665570 0.834430 0.250320 -0.298802
O11   O     O_3   0.834430 0.334430 0.749680 -0.298802
O12   O     O_R   0.785870 0.708570 0.170110 -0.527603
O13   O     O_3   0.165570 0.334430 0.250320 -0.298802
O14   O     O_R   0.236050 0.959150 0.825270 -0.511650
O15   O     O_R   0.763950 0.959150 0.174730 -0.511650
O16   O     O_R   0.736050 0.459150 0.825270 -0.511650
O17   O     O_R   0.263950 0.459150 0.174730 -0.511650
O18   O     O_R   0.332100 0.076650 0.832310 -0.532307
O19   O     O_R   0.667900 0.076650 0.167690 -0.532307
O20   O     O_R   0.832100 0.576650 0.832310 -0.532307
O21   O     O_R   0.167900 0.576650 0.167690 -0.532307
O22   O     O_R   0.446500 0.918620 0.826240 -0.503394
O23   O     O_R   0.714130 0.208570 0.829890 -0.527603
O24   O     O_R   0.553500 0.918620 0.173760 -0.503394
O25   O     O_R   0.946500 0.418620 0.826240 -0.503394
O26   O     O_R   0.053500 0.418620 0.173760 -0.503394
O27   O     O_R   0.457310 0.715830 0.831280 -0.521162
O28   O     O_R   0.542690 0.715830 0.168720 -0.521163
O29   O     O_R   0.957310 0.215830 0.831280 -0.521162
O30   O     O_R   0.042690 0.215830 0.168720 -0.521163
O31   O     O_R   0.321000 0.623520 0.824130 -0.522494
O32   O     O_R   0.679000 0.623520 0.175870 -0.522493
O33   O     O_R   0.821000 0.123520 0.824130 -0.522494
O34   O     O_R   0.285870 0.208570 0.170110 -0.527603
O35   O     O_R   0.179000 0.123520 0.175870 -0.522493
O36   O     O_R   0.213990 0.710040 0.667000 -0.525132
O37   O     O_R   0.786010 0.710040 0.333000 -0.525132
O38   O     O_R   0.713990 0.210040 0.667000 -0.525132
O39   O     O_R   0.286010 0.210040 0.333000 -0.525132
O40   O     O_R   0.235920 0.960520 0.674260 -0.492534
O41   O     O_R   0.764080 0.960520 0.325740 -0.492534
O42   O     O_R   0.735920 0.460520 0.674260 -0.492534
O43   O     O_R   0.264080 0.460520 0.325740 -0.492533
O44   O     O_R   0.331960 0.078120 0.669410 -0.530842
O45   O     O_R   0.446360 0.919990 0.675230 -0.511709
O46   O     O_R   0.668040 0.078120 0.330590 -0.530842
O47   O     O_R   0.831960 0.578120 0.669410 -0.530842
O48   O     O_R   0.168040 0.578120 0.330590 -0.530842
O49   O     O_R   0.553640 0.919990 0.324770 -0.511709
O50   O     O_R   0.946360 0.419990 0.675230 -0.511709
O51   O     O_R   0.053640 0.419990 0.324770 -0.511709
O52   O     O_R   0.457170 0.717300 0.668380 -0.463093

loop_
_geom_bond_atom_site_label_1
_geom_bond_atom_site_label_2
_ccdc_geom_bond_type
C83   C87   S    
C31   C49   S    
C116  O33   A    
C42   H115  S    
C15   C16   S    
C122  O40   A    
C55   H27   S    
C121  H133  S    
C3    O43   A    
C6    O50   A    
C33   H20   S    
C95   H3    S    
C51   C55   S    
C20   C92   S    
C91   H106  S    
C9    O6    A    
C84   H87   S    
C96   C100  S    
C2    C31   S    
C21   C70   S    
C123  O46   A    
Cr11  O26   S    
C61   H59   S    
C62   H61   S    
C117  O34   A    
C85   C102  S    
C86   H89   S    
Cr12  O9    S    
Cr6   O38   S    
C77   C82   S    
C68   O30   A    
C93   C101  S    
C29   H40   S    
C99   H116  S    
C28   H38   S    
C14   C21   S    
C37   C45   S    
C69   H64   S    
Cr1   O36   S    
C72   H66   S    
C37   O15   A    
C36   C54   S    
Cr9   O19   S    
C39   H82   S    
C39   H126  S    
C95   C112  S    
C26   C30   S    
C77   H80   S    
C102  C123  S    
C88   H96   S    
C35   H25   S    
C97   H113  S    
C106  C119  S    
C52   H55   S    
C74   C78   S    
C19   C103  S    
C48   O20   A    
Cr7   O13   S    
C108  C121  S    
Cr8   O18   S    
Cr7   O39   S    
C65   O22   A    
C7    C80   S    
C5    O2    A    
C21   C65   S    
C13   H15   S    
C7    O4    A    
Cr11  O13   S    
C23   C67   S    
C58   H48   S    
C111  H108  S    
Cr1   O40   S    
C96   H117  S    
C107  C120  S    
C93   H107  S    
C112  H7    S    
C109  H4    S    
C10   O7    A    
C94   C102  S    
C34   H53   S    
Cr10  O25   S    
Cr1   O9    S    
Cr5   O41   S    
C1    O18   A    
C71   H65   S    
C6    C82   S    
C61   C78   S    
C110  H111  S    
C19   H60   S    
C15   H75   S    
C10   O38   A    
C70   H121  S    
C36   H21   S    
Cr11  O48   S    
Cr5   O10   S    
C121  H129  S    
C29   H42   S    
Cr4   O13   S    
C104  C122  S    
C39   C43   S    
C40   C44   S    
C30   C114  S    
C75   C79   S    
C51   C117  S    
C12   C17   S    
C4    C79   S    
C99   H120  S    
Cr2   O10   S    
Cr3   O7    S    
C95   C104  S    
Cr3   O33   S    
C111  H6    S    
C30   C47   S    
C91   H134  S    
C28   C32   S    
C73   H67   S    
C74   H77   S    
C112  H109  S    
C36   C45   S    
C87   H95   S    
C41   C58   S    
C59   O17   A    
C2    H9    S    
C11   O39   A    
C89   H97   S    
Br1   C61   S    
C13   C32   S    
C6    O3    A    
C106  C110  S    
C76   H72   S    
Cr5   O12   S    
C11   O8    A    
C14   H74   S    
Cr8   O9    S    
C20   H71   S    
C27   H36   S    
C69   C75   S    
Cr4   O4    S    
Cr11  O51   S    
C69   H83   S    
C13   C45   S    
Br4   C64   S    
Cr10  O11   S    
C68   O26   A    
C44   C48   S    
C83   H86   S    
C50   C54   S    
Cr12  O52   S    
Cr8   O45   S    
C114  H12   S    
C26   H32   S    
C38   C46   S    
C37   O19   A    
C34   H23   S    
Cr1   O14   S    
C124  O42   A    
C18   C70   S    
C85   H88   S    
C108  C112  S    
C119  H131  S    
C17   C21   S    
C88   H100  S    
C65   O27   A    
Cr2   O28   S    
C72   H85   S    
C14   C18   S    
C66   O28   A    
C11   C108  S    
C110  H5    S    
Cr4   O30   S    
Br2   C62   S    
C38   C55   S    
C38   H22   S    
C40   C57   S    
C8    O5    A    
Cr7   O17   S    
C86   C104  S    
C89   H101  S    
C40   H93   S    
C84   C101  S    
Cr7   O43   S    
C94   C111  S    
Cr9   O10   S    
Cr8   O44   S    
C22   C81   S    
Cr10  O50   S    
C90   C108  S    
C47   C113  S    
Cr4   O35   S    
C85   C89   S    
C54   H26   S    
C32   C50   S    
C58   H44   S    
C33   C51   S    
C30   H17   S    
C34   C52   S    
C24   H11   S    
C25   C103  S    
C47   C56   S    
C93   C110  S    
C27   H34   S    
C54   H57   S    
C13   H10   S    
Cr5   O37   S    
C81   H122  S    
C76   C80   S    
C1    O14   A    
C72   C80   S    
C76   H79   S    
C8    O36   A    
C16   H76   S    
Cr6   O16   S    
C43   C59   S    
C55   H58   S    
C57   H47   S    
C20   C25   S    
C26   H30   S    
C32   H19   S    
C62   C79   S    
C43   C114  S    
C120  H132  S    
C103  H124  S    
C95   H105  S    
Cr3   O3    S    
C5    C78   S    
C77   H70   S    
Cr3   O29   S    
Cr10  O47   S    
Cr6   O42   S    
C23   C92   S    
C98   C120  S    
Cr9   O49   S    
C86   C90   S    
C12   C22   S    
C17   C81   S    
C59   O21   A    
C53   H56   S    
C63   C64   S    
C49   C53   S    
C50   C58   S    
C29   C33   S    
C98   H114  S    
C116  O23   A    
C73   H84   S    
C41   C45   S    
C117  O35   A    
C97   H118  S    
Cr6   O11   S    
C84   C88   S    
C18   H49   S    
C41   H104  S    
C94   H103  S    
C2    H14   S    
C89   C107  S    
Cr4   O8    S    
C92   C103  S    
C29   H41   S    
C22   C66   S    
C27   C31   S    
C1    C46   S    
C41   H13   S    
C15   C25   S    
Cr5   O15   S    
C69   C78   S    
C73   C76   S    
C3    O48   A    
C67   O25   A    
C16   C23   S    
C83   H90   S    
C124  O47   A    
C114  H8    S    
C31   H18   S    
C17   H1    S    
C4    O45   A    
C122  O44   A    
C71   C79   S    
C123  O41   A    
C36   H51   S    
C120  H128  S    
Cr6   O23   S    
C85   H92   S    
C118  H130  S    
C83   C100  S    
C119  H127  S    
C84   H91   S    
C40   H2    S    
C18   C22   S    
C56   H35   S    
C66   O24   A    
C35   C44   S    
C50   C116  S    
C64   C82   S    
C15   C19   S    
Cr12  O5    S    
C88   C106  S    
C67   O29   A    
C97   C119  S    
C2    C44   S    
C24   C33   S    
Cr11  O21   S    
C105  C118  S    
C75   H68   S    
C35   C53   S    
C98   H119  S    
C86   H94   S    
C47   C52   S    
C113  O1    A    
Cr7   O34   S    
C24   C46   S    
C90   H98   S    
C16   C20   S    
C28   H39   S    
Cr1   O1    S    
C99   C104  S    
C19   C23   S    
C60   H45   S    
C105  C109  S    
C25   C68   S    
C63   C80   S    
C70   C81   S    
C42   H24   S    
C64   H63   S    
C49   C57   S    
C48   O16   A    
C99   C121  S    
C8    C105  S    
Cr8   O22   S    
C53   H29   S    
C97   C101  S    
C10   C107  S    
C35   H54   S    
C57   H43   S    
C115  O32   A    
C113  O31   A    
Cr10  O20   S    
Cr9   O46   S    
C75   H78   S    
C109  H110  S    
C42   C60   S    
Cr2   O2    S    
C9    C106  S    
C93   H135  S    
C51   C60   S    
C52   H28   S    
C74   H69   S    
C34   C43   S    
C94   H136  S    
C39   C56   S    
Cr12  O27   S    
C5    O49   A    
C73   C82   S    
C92   H123  S    
C3    C100  S    
C7    O51   A    
C9    O37   A    
C91   C100  S    
C27   H33   S    
C56   H46   S    
C101  C124  S    
Br3   C63   S    
C96   H112  S    
C72   C77   S    
C60   H50   S    
C49   C115  S    
C42   C46   S    
C87   C105  S    
C90   H102  S    
Cr2   O6    S    
C63   H62   S    
Cr3   O11   S    
Cr2   O32   S    
C91   C109  S    
C98   C102  S    
C96   C118  S    
C12   H73   S    
C28   H37   S    
C71   C74   S    
C26   H31   S    
C4    O52   A    
C38   H52   S    
Cr12  O31   S    
C71   H81   S    
C12   C14   S    
C61   C62   S    
C87   H99   S    
C24   H16   S    
Cr9   O24   S    
C107  C111  S    
C118  H125  S    
C115  O12   A    
