data_mof_unit_15816.cif
_audit_creation_date              2012-12-10T20:32:45-0500
_audit_creation_method            fapswitch 2.2
_symmetry_space_group_name_H-M    P1
_symmetry_Int_Tables_number       1
_space_group_crystal_system       triclinic
_cell_length_a                    11.552603
_cell_length_b                    10.659025
_cell_length_c                    9.865103
_cell_angle_alpha                 89.73169
_cell_angle_beta                  88.873083
_cell_angle_gamma                 89.474024
_cell_volume                      1214.48524346

loop_
_atom_site_label
_atom_site_type_symbol
_atom_type_description
_atom_site_fract_x
_atom_site_fract_y
_atom_site_fract_z
_atom_type_partial_charge
C1    C     C_R   0.510623 0.260296 0.499883 0.896759
C2    C     C_R   0.600166 0.483393 0.069683 -0.145954
C3    C     C_R   0.600330 0.484812 0.925872 -0.137883
C4    C     C_R   0.281847 0.500103 0.501096 0.921885
C5    C     C_R   0.400982 0.524184 0.931642 0.126800
C6    C     C_3   0.288333 0.455122 0.932977 0.319810
C7    C     C_3   0.290154 0.461863 0.087289 -0.562286
C8    C     C_R   0.504219 0.740671 0.499065 0.918601
C9    C     C_R   0.718150 0.500872 0.498883 0.873764
C10   C     C_1   0.161382 0.501070 0.502802 -0.210591
C11   C     C_1   0.059269 0.502069 0.501412 -0.011448
C12   C     C_R   0.542225 0.130168 0.497214 -0.181262
C13   C     C_1   0.940706 0.502866 0.498392 -0.008223
C14   C     C_1   0.838590 0.502515 0.497049 -0.208948
C15   C     C_R   0.563872 0.062590 0.615439 -0.061480
C16   C     C_3   0.191729 0.272972 0.873411 0.103737
C17   C     C_3   0.152188 0.212894 0.008517 -0.384580
C18   C     C_3   0.043482 0.134855 0.993915 -0.992670
C19   C     C_3   0.662784 0.824956 0.221027 0.118062
C20   C     C_3   0.729326 0.904371 0.116862 -0.348818
C21   C     C_3   0.847217 0.845491 0.082622 -0.990712
C22   C     C_3   0.320711 0.936573 0.880084 0.059280
C23   C     C_R   0.549570 0.067205 0.372541 -0.271244
C24   C     C_3   0.318017 0.818000 0.967291 -0.344374
C25   C     C_3   0.257430 0.842170 0.103761 -0.902413
C26   C     C_3   0.694795 0.182860 0.818013 0.131623
C27   C     C_3   0.804106 0.119422 0.758886 -0.380671
C28   C     C_3   0.886227 0.215107 0.694930 -0.963230
C29   C     C_R   0.548627 0.936917 0.370603 0.461620
C30   C     C_R   0.529286 0.871999 0.495124 -0.195792
C31   C     C_R   0.546421 0.936697 0.615294 -0.059380
C32   C     C_3   0.493804 0.935235 0.755224 0.322451
C33   C     C_3   0.523685 0.075284 0.760683 0.227594
C34   C     C_R   0.401896 0.527932 0.073679 0.158137
H1    H     H_    0.547626 0.117491 0.276865 0.193468
H2    H     H_    0.222778 0.152699 0.048495 0.228448
H3    H     H_    0.130946 0.286653 0.083999 0.223667
H4    H     H_    0.968263 0.197742 0.976039 0.277189
H5    H     H_    0.026482 0.081816 0.089275 0.274308
H6    H     H_    0.053259 0.067228 0.909275 0.261344
H7    H     H_    0.220520 0.522961 0.130752 0.168466
H8    H     H_    0.650925 0.730094 0.177714 0.179357
H9    H     H_    0.715668 0.811610 0.313854 0.107485
H10   H     H_    0.678426 0.911603 0.022848 0.261236
H11   H     H_    0.741865 0.000286 0.157418 0.226966
H12   H     H_    0.302176 0.370431 0.140017 0.229874
H13   H     H_    0.901345 0.840973 0.174383 0.269000
H14   H     H_    0.892622 0.902913 0.004511 0.269370
H15   H     H_    0.836475 0.749337 0.042012 0.263678
H16   H     H_    0.230288 0.966765 0.862120 0.171044
H17   H     H_    0.362109 0.013547 0.937091 0.149296
H18   H     H_    0.270978 0.743839 0.912812 0.211413
H19   H     H_    0.407962 0.785607 0.985771 0.224796
H20   H     H_    0.302764 0.916720 0.159803 0.284454
H21   H     H_    0.258478 0.755144 0.165941 0.267497
H22   H     H_    0.166004 0.871304 0.088594 0.255111
H23   H     H_    0.542082 0.872418 0.825183 0.107939
H24   H     H_    0.719138 0.234277 0.910710 0.142364
H25   H     H_    0.660700 0.254339 0.747189 0.178251
H26   H     H_    0.848221 0.067290 0.840693 0.226927
H27   H     H_    0.781937 0.049965 0.680411 0.234244
H28   H     H_    0.847514 0.254440 0.601696 0.269941
H29   H     H_    0.969669 0.168652 0.666901 0.267511
H30   H     H_    0.903211 0.292648 0.766438 0.258997
H31   H     H_    0.448745 0.140037 0.776339 0.162102
H32   H     H_    0.680557 0.467961 0.121732 0.143994
H33   H     H_    0.681078 0.471215 0.870576 0.137040
H34   H     H_    0.218848 0.512311 0.885089 0.060014
H35   H     H_    0.201603 0.197779 0.796384 0.157434
H36   H     H_    0.123673 0.337953 0.834747 0.126619
N1    N     N_R   0.499240 0.499140 0.142800 -0.087919
N2    N     N_R   0.499240 0.499180 0.857150 -0.084559
O1    O     O_R   0.500010 0.316790 0.614690 -0.621855
O2    O     O_3   0.551235 0.877493 0.246113 -0.633343
O3    O     O_3   0.373345 0.913202 0.751598 -0.646421
O4    O     O_3   0.612673 0.091160 0.856655 -0.675319
O5    O     O_R   0.500000 0.316760 0.385350 -0.615858
O6    O     O_R   0.334450 0.500030 0.614670 -0.597631
O7    O     O_R   0.334440 0.500000 0.385330 -0.614152
O8    O     O_R   0.500000 0.683240 0.614650 -0.607558
O9    O     O_R   0.499990 0.683210 0.385310 -0.590880
O10   O     O_R   0.665560 0.500000 0.614670 -0.636478
O11   O     O_R   0.665550 0.499970 0.385330 -0.635462
O12   O     O_3   0.301330 0.330770 0.884826 -0.610206
Zn1   Zn    Zn3+2 0.500010 0.500020 0.653130 0.962578
Zn2   Zn    Zn3+2 0.499990 0.499980 0.346870 0.946053

loop_
_geom_bond_atom_site_label_1
_geom_bond_atom_site_label_2
_ccdc_geom_bond_type
C24   H18   S    
C1    O5    A    
C19   C20   S    
C25   H22   S    
C18   H5    S    
C32   O3    S    
C21   H15   S    
N2    Zn1   S    
C33   H31   S    
C12   C23   A    
C26   C27   S    
C29   C30   A    
C23   C29   A    
C5    N2    A    
C27   H26   S    
C5    C6    S    
C16   O12   S    
C18   H6    S    
C27   H27   S    
C16   C17   S    
C26   O4    S    
C17   H2    S    
C26   H25   S    
O9    Zn2   S    
C19   H8    S    
C9    O10   A    
C22   H16   S    
C21   H14   S    
C6    H34   S    
C13   C14   T    
C1    C12   S    
C32   H23   S    
C20   H10   S    
C19   H9    S    
C6    O12   S    
C8    O9    A    
C7    H12   S    
C16   H36   S    
C25   H20   S    
C4    O7    A    
C20   H11   S    
C29   O2    S    
C24   H19   S    
C9    C14   S    
C4    O6    A    
O8    Zn1   S    
N1    Zn2   S    
C33   O4    S    
C31   C32   S    
C12   C15   A    
C5    C34   A    
C17   C18   S    
C17   H3    S    
C24   C25   S    
C26   H24   S    
O1    Zn1   S    
C9    O11   A    
C28   H30   S    
O6    Zn1   S    
O5    Zn2   S    
C23   H1    S    
C7    C34   S    
C22   C24   S    
C22   O3    S    
C2    N1    A    
C19   O2    S    
C3    H33   S    
C16   H35   S    
C25   H21   S    
C2    H32   S    
C15   C31   A    
C6    C7    S    
O10   Zn1   S    
C1    O1    A    
C32   C33   S    
C3    N2    A    
C18   H4    S    
C8    C30   S    
C11   C13   S    
C30   C31   A    
C2    C3    A    
C7    H7    S    
C10   C11   T    
C28   H29   S    
O11   Zn2   S    
C20   C21   S    
C27   C28   S    
C8    O8    A    
C4    C10   S    
C34   N1    A    
C15   C33   S    
O7    Zn2   S    
C22   H17   S    
C21   H13   S    
C28   H28   S    
