data_mof_unit_18276.cif
_audit_creation_date              2012-10-26T21:00:17-0400
_audit_creation_method            fapswitch 2.2
_symmetry_space_group_name_H-M    P1
_symmetry_Int_Tables_number       1
_space_group_crystal_system       triclinic
_cell_length_a                    19.22506
_cell_length_b                    8.706836
_cell_length_c                    7.507917
_cell_angle_alpha                 103.175544
_cell_angle_beta                  92.575395
_cell_angle_gamma                 91.563623
_cell_volume                      1221.51767436

loop_
_atom_site_label
_atom_site_type_symbol
_atom_type_description
_atom_site_fract_x
_atom_site_fract_y
_atom_site_fract_z
_atom_type_partial_charge
C1    C     C_R   0.490786 0.200418 0.455480 0.550421
C2    C     C_R   0.815736 0.477754 0.315782 -0.004673
C3    C     C_R   0.143767 0.418286 0.512622 -0.007483
C4    C     C_R   0.854946 0.511239 0.482625 0.000129
C5    C     C_R   0.179171 0.364900 0.351336 0.021296
C6    C     C_R   0.822954 0.592913 0.638047 0.005600
C7    C     C_R   0.250841 0.396655 0.352183 0.322796
C8    C     C_R   0.749886 0.587793 0.638441 0.338544
C9    C     C_R   0.289456 0.472663 0.514044 -0.007776
C10   C     C_R   0.709401 0.505815 0.482703 0.008509
C11   C     C_R   0.930076 0.483996 0.486865 0.342170
C12   C     C_R   0.493746 0.798986 0.548157 0.549772
C13   C     C_R   0.068014 0.433234 0.496509 0.336424
C14   C     C_3   0.292861 0.615242 0.854772 -0.230741
C15   C     C_3   0.319317 0.774807 0.828728 -0.420289
C16   C     C_3   0.706106 0.344500 0.145032 -0.251543
C17   C     C_3   0.678473 0.187177 0.177566 -0.409245
C18   C     C_3   0.140821 0.529405 0.855409 -0.261273
C19   C     C_3   0.116658 0.698897 0.894825 -0.433143
C20   C     C_3   0.845764 0.539286 0.161437 -0.259351
C21   C     C_3   0.858787 0.720132 0.224105 -0.413412
C22   C     C_3   0.140701 0.271714 0.176709 -0.254199
C23   C     C_2   0.468992 0.034631 0.436715 -0.002004
C24   C     C_3   0.119023 0.106100 0.194438 -0.441412
C25   C     C_3   0.865428 0.698147 0.794705 -0.274493
C26   C     C_3   0.899180 0.842814 0.745362 -0.443895
C27   C     C_3   0.420190 0.957100 0.274167 -0.294496
C28   C     C_3   0.355062 0.053204 0.266434 -0.429967
C29   C     C_3   0.459047 0.050315 0.773326 -0.267020
C30   C     C_3   0.386287 0.119028 0.773636 -0.446177
C31   C     C_2   0.477717 0.966302 0.580274 -0.016823
C32   C     C_R   0.366955 0.493552 0.504473 0.539161
C33   C     C_R   0.632616 0.499252 0.494374 0.580087
C34   C     C_R   0.253945 0.520393 0.680998 -0.031126
C35   C     C_R   0.743311 0.446734 0.316737 -0.036847
C36   C     C_R   0.180750 0.488170 0.680175 0.004364
Cu1   Cu    Cu3+1 0.507710 0.517380 0.684380 0.955462
Cu2   Cu    Cu3+1 0.492290 0.482620 0.315620 0.936979
F1    F     F_    0.282754 0.354287 0.191408 -0.693397
F2    F     F_    0.718205 0.665558 0.789539 -0.657096
H1    H     H_    0.440419 0.396170 0.955789 0.242055
H2    H     H_    0.722261 0.120195 0.219500 0.152636
H3    H     H_    0.664117 0.408826 0.091078 0.194399
H4    H     H_    0.742343 0.312256 0.032752 0.143757
H5    H     H_    0.161557 0.784205 0.910503 0.147456
H6    H     H_    0.080559 0.716583 0.782331 0.177771
H7    H     H_    0.088663 0.723455 0.023891 0.148528
H8    H     H_    0.094767 0.448985 0.848299 0.165576
H9    H     H_    0.171366 0.507263 0.974662 0.152480
H10   H     H_    0.810238 0.781496 0.203088 0.158978
H11   H     H_    0.875067 0.761047 0.370171 0.171624
H12   H     H_    0.557960 0.610008 0.046438 0.256885
H13   H     H_    0.901923 0.760534 0.151034 0.136684
H14   H     H_    0.894896 0.480078 0.120626 0.164638
H15   H     H_    0.810289 0.515672 0.037137 0.163339
H16   H     H_    0.090992 0.041551 0.065453 0.135508
H17   H     H_    0.165795 0.040169 0.219309 0.154916
H18   H     H_    0.083769 0.111047 0.308429 0.178129
H19   H     H_    0.094057 0.334191 0.143305 0.149472
H20   H     H_    0.173505 0.258061 0.056575 0.198581
H21   H     H_    0.942414 0.810071 0.653536 0.176827
H22   H     H_    0.859745 0.906602 0.680416 0.165950
H23   H     H_    0.363899 0.816942 0.926749 0.145450
H24   H     H_    0.921450 0.924472 0.872222 0.139736
H25   H     H_    0.830237 0.746542 0.903066 0.213096
H26   H     H_    0.905891 0.629098 0.847866 0.148742
H27   H     H_    0.331200 0.081860 0.401064 0.143176
H28   H     H_    0.368601 0.163968 0.226066 0.238444
H29   H     H_    0.315069 0.986235 0.165964 0.139032
H30   H     H_    0.448695 0.945440 0.147677 0.146565
H31   H     H_    0.400424 0.838104 0.281737 0.179723
H32   H     H_    0.385310 0.221571 0.709694 0.170994
H33   H     H_    0.347409 0.030458 0.695485 0.135981
H34   H     H_    0.337335 0.769032 0.689640 0.158582
H35   H     H_    0.369765 0.157535 0.915760 0.169531
H36   H     H_    0.457848 0.966701 0.863301 0.149391
H37   H     H_    0.499315 0.140731 0.840942 0.183452
H38   H     H_    0.277406 0.861199 0.852633 0.131803
H39   H     H_    0.261923 0.642420 0.977162 0.155259
H40   H     H_    0.335372 0.546290 0.897894 0.191794
H41   H     H_    0.639908 0.203966 0.284893 0.167590
H42   H     H_    0.652740 0.115694 0.048715 0.158367
N1    N     N_R   0.042678 0.546553 0.417264 -0.248525
N2    N     N_R   0.955255 0.369130 0.564446 -0.238874
N3    N     N_R   0.974866 0.570841 0.411671 -0.259200
N4    N     N_R   0.023234 0.343714 0.568788 -0.255025
N5    N     N_2   0.480680 0.456420 0.038530 -0.276666
N6    N     N_2   0.519320 0.543580 0.961470 -0.265519
O1    O     O_R   0.505010 0.286130 0.619770 -0.518393
O2    O     O_R   0.494990 0.713870 0.380230 -0.515327
O3    O     O_R   0.491990 0.256780 0.308370 -0.511204
O4    O     O_R   0.508010 0.743220 0.691630 -0.492877
O5    O     O_R   0.406650 0.514660 0.655750 -0.538965
O6    O     O_R   0.593350 0.485340 0.344250 -0.521088
O7    O     O_R   0.393640 0.485310 0.344340 -0.442733
O8    O     O_R   0.606360 0.514690 0.655660 -0.422334

loop_
_geom_bond_atom_site_label_1
_geom_bond_atom_site_label_2
_ccdc_geom_bond_type
C2    C35   A    
N5    N6    D    
Cu1   N6    S    
C28   H29   S    
C33   O6    A    
C19   H6    S    
C29   H36   S    
C32   O7    A    
C29   C30   S    
C7    F1    S    
C12   O2    A    
C28   H28   S    
C26   H21   S    
N2    N4    A    
C18   C19   S    
C16   C35   S    
C22   H20   S    
C19   H7    S    
C6    C25   S    
C17   H42   S    
C26   H24   S    
C17   H2    S    
C9    C32   S    
C5    C22   S    
C24   H17   S    
C13   N4    A    
C10   C35   A    
C23   C27   S    
C16   H4    S    
C17   H41   S    
C3    C13   S    
C32   O5    A    
C1    O3    A    
C20   H15   S    
C21   H10   S    
H1    N5    S    
C2    C20   S    
C24   H18   S    
H12   N6    S    
C28   H27   S    
C25   H25   S    
C20   H14   S    
C22   H19   S    
C5    C7    A    
C30   H33   S    
C16   C17   S    
C6    C8    A    
C25   C26   S    
Cu2   O3    S    
Cu1   O8    S    
C23   C31   D    
Cu2   O7    S    
C2    C4    A    
Cu1   Cu2   S    
Cu2   O6    S    
Cu1   O5    S    
C14   H39   S    
C4    C11   S    
C16   H3    S    
C27   H30   S    
C4    C6    A    
N1    N3    A    
C1    C23   S    
C14   H40   S    
C12   C31   S    
C9    C34   A    
C22   C24   S    
C33   O8    A    
C21   H11   S    
C27   H31   S    
C7    C9    A    
C13   N1    A    
C1    O1    A    
Cu1   O4    S    
C12   O4    A    
C25   H26   S    
C3    C5    A    
C18   H8    S    
C14   C34   S    
C30   H32   S    
C19   H5    S    
C11   N2    A    
C24   H16   S    
Cu2   O2    S    
Cu1   O1    S    
Cu2   N5    S    
C26   H22   S    
C29   C31   S    
C21   H13   S    
C30   H35   S    
C3    C36   A    
C11   N3    A    
C10   C33   S    
C34   C36   A    
C15   H38   S    
C15   H34   S    
C29   H37   S    
C20   C21   S    
C8    C10   A    
C27   C28   S    
C15   H23   S    
C14   C15   S    
C8    F2    S    
C18   C36   S    
C18   H9    S    
