data_mof_unit_64117.cif
_audit_creation_date              2012-12-10T17:12:00-0500
_audit_creation_method            fapswitch 2.2
_symmetry_space_group_name_H-M    P1
_symmetry_Int_Tables_number       1
_space_group_crystal_system       triclinic
_cell_length_a                    21.674981
_cell_length_b                    21.662901
_cell_length_c                    22.03737
_cell_angle_alpha                 60.122268
_cell_angle_beta                  118.618653
_cell_angle_gamma                 89.660429
_cell_volume                      7458.5456686

loop_
_atom_site_label
_atom_site_type_symbol
_atom_type_description
_atom_site_fract_x
_atom_site_fract_y
_atom_site_fract_z
_atom_type_partial_charge
Br1   Br    Br    0.926558 0.312569 0.606853 -0.538837
Br2   Br    Br    0.186112 0.311006 0.618092 -0.562104
C1    C     C_R   0.620181 0.499770 0.500543 0.860952
C2    C     C_R   0.817091 0.315832 0.713309 -0.197982
C3    C     C_R   0.872563 0.301415 0.702927 -0.150911
C4    C     C_R   0.418954 0.581664 0.337447 0.889218
C5    C     C_R   0.869830 0.353903 0.630227 0.263709
C6    C     C_R   0.813800 0.425526 0.569470 0.037054
C7    C     C_R   0.752547 0.434524 0.574990 0.064715
C8    C     C_R   0.688574 0.496979 0.505950 -0.069556
C9    C     C_R   0.687406 0.554694 0.437439 -0.211476
C10   C     C_R   0.750098 0.550989 0.436262 -0.202418
C11   C     C_R   0.813765 0.487795 0.501778 -0.108391
C12   C     C_3   0.289392 0.711184 0.082188 0.203757
C13   C     C_3   0.710380 0.218342 0.029486 -0.160881
C14   C     C_3   0.696451 0.303464 0.972104 -0.161041
C15   C     C_1   0.626501 0.372921 0.751634 -0.184717
C16   C     C_R   0.380718 0.499700 0.500959 0.863165
C17   C     C_1   0.875506 0.125077 0.248365 -0.183518
C18   C     C_3   0.723896 0.204745 0.973586 -0.162810
C19   C     C_3   0.710755 0.289091 0.917790 0.203176
C20   C     C_3   0.807622 0.192791 0.027915 -0.166233
C21   C     C_3   0.793268 0.207211 0.082182 0.204137
C22   C     C_3   0.793648 0.277971 0.970449 -0.163983
C23   C     C_3   0.184493 0.735846 0.973825 -0.160927
C24   C     C_3   0.780125 0.291554 0.026360 -0.159817
C25   C     C_1   0.664718 0.334819 0.826783 -0.076557
C26   C     C_1   0.838505 0.162148 0.173203 -0.076849
C27   C     C_R   0.243497 0.607260 0.345368 -0.162117
C28   C     C_R   0.581232 0.418341 0.662546 0.887276
C29   C     C_R   0.178207 0.663740 0.271954 -0.129666
C30   C     C_R   0.114783 0.673344 0.271743 -0.160194
C31   C     C_R   0.115841 0.625375 0.344264 -0.180142
C32   C     C_R   0.181024 0.565410 0.419561 0.106359
C33   C     C_R   0.246081 0.558684 0.420038 0.097026
C34   C     C_3   0.206832 0.793106 0.917795 0.202961
C35   C     C_R   0.312666 0.503625 0.495588 -0.085308
C36   C     C_R   0.316630 0.456513 0.569665 -0.209120
C37   C     C_R   0.253549 0.461415 0.569709 -0.141347
C38   C     C_R   0.185069 0.512655 0.495183 -0.131829
C39   C     C_R   0.998396 0.881750 0.496433 0.863597
C40   C     C_3   0.284693 0.737136 0.971542 -0.162257
C41   C     C_R   0.080868 0.918588 0.662532 0.895188
C42   C     C_R   0.999630 0.119878 0.499858 0.859405
C43   C     C_R   0.919138 0.081095 0.337470 0.891008
C44   C     C_R   0.001845 0.620558 0.499485 0.859596
C45   C     C_3   0.211531 0.767150 0.028505 -0.162306
C46   C     C_R   0.879996 0.493987 0.500735 0.934797
C47   C     C_R   0.006775 0.379375 0.500470 0.982885
C48   C     C_R   0.119877 0.505799 0.498672 0.899371
C49   C     C_R   0.018062 0.875981 0.376534 -0.173668
C50   C     C_R   0.037574 0.868160 0.328333 -0.139654
C51   C     C_R   0.050612 0.799195 0.339532 -0.137672
C52   C     C_3   0.311711 0.768463 0.026150 -0.163596
C53   C     C_R   0.041326 0.738724 0.396594 -0.175603
C54   C     C_R   0.018617 0.746344 0.443496 0.100730
C55   C     C_R   0.011248 0.814257 0.437146 0.098625
C56   C     C_3   0.233032 0.825260 0.970797 -0.162541
C57   C     C_R   0.996506 0.818297 0.491245 -0.106161
C58   C     C_R   0.984276 0.758718 0.545814 -0.204924
C59   C     C_R   0.987776 0.693787 0.548810 -0.205426
C60   C     C_R   0.004288 0.687498 0.497911 -0.103701
C61   C     C_R   0.109213 0.105104 0.651895 -0.156417
C62   C     C_R   0.170739 0.099468 0.719576 -0.192060
C63   C     C_R   0.187459 0.163948 0.710943 -0.142170
C64   C     C_1   0.373679 0.627128 0.248351 -0.185706
C65   C     C_R   0.140095 0.234768 0.636677 0.270589
C66   C     C_R   0.070951 0.242230 0.572070 0.056627
C67   C     C_1   0.335448 0.665334 0.173201 -0.077597
C68   C     C_R   0.060329 0.176215 0.576720 0.073038
C69   C     C_R   0.001733 0.182891 0.505202 -0.065152
C70   C     C_R   0.948673 0.251681 0.434218 -0.204566
C71   C     C_R   0.953167 0.315429 0.433172 -0.173013
C72   C     C_R   0.012900 0.311806 0.501568 -0.093095
C73   C     C_1   0.124528 0.874872 0.751628 -0.185406
C74   C     C_3   0.263156 0.679091 0.029136 -0.160623
C75   C     C_1   0.161565 0.838028 0.826780 -0.075620
C76   C     C_R   0.755988 0.380519 0.648578 -0.166719
H1    H     H_    0.364666 0.781023 0.049216 0.135414
H2    H     H_    0.369030 0.416045 0.627903 0.145906
H3    H     H_    0.313879 0.725625 0.946597 0.138052
H4    H     H_    0.291871 0.602178 0.343130 0.130068
H5    H     H_    0.177126 0.700786 0.215422 0.132411
H6    H     H_    0.064401 0.718496 0.215112 0.133429
H7    H     H_    0.065062 0.638745 0.339031 0.158853
H8    H     H_    0.258536 0.423320 0.628531 0.201131
H9    H     H_    0.973035 0.762104 0.587193 0.160551
H10   H     H_    0.007562 0.930869 0.364874 0.151496
H11   H     H_    0.043267 0.915572 0.282739 0.135799
H12   H     H_    0.915702 0.247236 0.749569 0.167910
H13   H     H_    0.067455 0.792640 0.303531 0.139217
H14   H     H_    0.053264 0.685819 0.404794 0.129761
H15   H     H_    0.219849 0.886000 0.945174 0.134152
H16   H     H_    0.976829 0.648464 0.590432 0.159286
H17   H     H_    0.903560 0.255897 0.379578 0.143214
H18   H     H_    0.100008 0.053591 0.658863 0.134155
H19   H     H_    0.208007 0.044743 0.776852 0.150239
H20   H     H_    0.239715 0.158469 0.760440 0.165044
H21   H     H_    0.908835 0.367710 0.378772 0.168841
H22   H     H_    0.182422 0.778559 0.053578 0.129459
H23   H     H_    0.748961 0.598537 0.384140 0.167465
H24   H     H_    0.131539 0.723289 0.950753 0.136794
H25   H     H_    0.276312 0.618378 0.054653 0.138829
H26   H     H_    0.637790 0.602835 0.384843 0.146760
H27   H     H_    0.711732 0.388113 0.656671 0.138640
H28   H     H_    0.819147 0.274652 0.769347 0.153164
H29   H     H_    0.650070 0.349618 0.947621 0.137112
H30   H     H_    0.677055 0.193107 0.055293 0.138182
H31   H     H_    0.803974 0.326330 0.049602 0.135967
H32   H     H_    0.826929 0.303215 0.944575 0.135515
H33   H     H_    0.854015 0.146615 0.052453 0.133509
H34   H     H_    0.700035 0.169990 0.950319 0.137736
O1    O     O_R   0.591660 0.448290 0.500000 -0.613091
O2    O     O_R   0.034730 0.556800 0.569600 -0.624044
O3    O     O_R   0.873600 0.534810 0.430420 -0.627110
O4    O     O_R   0.591590 0.551700 0.500020 -0.621846
O5    O     O_R   0.943150 0.465220 0.569550 -0.599424
O6    O     O_R   0.965270 0.443220 0.430400 -0.636375
O7    O     O_R   0.034830 0.373630 0.569530 -0.555654
O8    O     O_R   0.056850 0.534790 0.430450 -0.647542
O9    O     O_R   0.126400 0.465210 0.569580 -0.592836
O10   O     O_R   0.438430 0.509910 0.376770 -0.611009
O11   O     O_R   0.438360 0.613320 0.376790 -0.621004
O12   O     O_R   0.948250 0.908380 0.499990 -0.620219
O13   O     O_R   0.408410 0.448300 0.499980 -0.611346
O14   O     O_R   0.408340 0.551710 0.500000 -0.620975
O15   O     O_R   0.561640 0.386680 0.623210 -0.618885
O16   O     O_R   0.561570 0.490090 0.623230 -0.614008
O17   O     O_R   0.051700 0.908270 0.500000 -0.624324
O18   O     O_R   0.113330 0.938270 0.623230 -0.613942
O19   O     O_R   0.009880 0.938380 0.623210 -0.614407
O20   O     O_R   0.051750 0.091470 0.500010 -0.614172
O21   O     O_R   0.948300 0.091580 0.500000 -0.614501
O22   O     O_R   0.990120 0.061470 0.376790 -0.624840
O23   O     O_R   0.886670 0.061580 0.376770 -0.614413
O24   O     O_R   0.965170 0.626380 0.430470 -0.633525
Zn1   Zn    Zn3+2 0.500040 0.430950 0.499990 0.978587
Zn2   Zn    Zn3+2 0.499960 0.569050 0.500010 0.963214
Zn3   Zn    Zn3+2 0.069070 0.999850 0.500010 0.966434
Zn4   Zn    Zn3+2 0.930930 1.000000 0.499990 0.969337
Zn5   Zn    Zn3+2 0.953560 0.546470 0.407100 0.951108
Zn6   Zn    Zn3+2 0.046440 0.453550 0.592900 1.022172

loop_
_geom_bond_atom_site_label_1
_geom_bond_atom_site_label_2
_ccdc_geom_bond_type
C53   C54   A    
O3    Zn5   S    
C14   C19   S    
C71   C72   A    
C34   C40   S    
O6    Zn5   S    
C5    C6    A    
O20   Zn3   S    
C48   O9    A    
O11   Zn2   S    
C43   O22   A    
C6    C11   A    
C44   C60   S    
C76   H27   S    
C32   C38   A    
O2    Zn6   S    
C39   O12   A    
C33   C35   A    
C56   H15   S    
C22   C24   S    
C63   H20   S    
C34   C56   S    
C34   C75   S    
C16   O13   A    
C36   C37   A    
C23   H24   S    
C55   C57   A    
C64   C67   T    
C66   C72   A    
C13   C14   S    
C29   H5    S    
C54   C55   A    
C42   C69   S    
C32   C33   A    
C21   C24   S    
C31   H7    S    
O16   Zn2   S    
O19   Zn4   S    
C14   H29   S    
C18   H34   S    
C70   H17   S    
C29   C30   A    
C6    C7    A    
C63   C65   A    
C51   H13   S    
C68   C69   A    
C49   C55   A    
C7    C8    A    
C23   C45   S    
C3    H12   S    
C54   C60   A    
C10   H23   S    
C74   H25   S    
C13   C21   S    
C19   C25   S    
C57   C58   A    
C47   C72   S    
C41   C73   S    
C15   C28   S    
C50   H11   S    
O23   Zn4   S    
C40   H3    S    
C4    O11   A    
O18   Zn3   S    
C58   H9    S    
O4    Zn2   S    
C51   C53   A    
C14   C24   S    
C13   C18   S    
C30   H6    S    
C28   O16   A    
C43   O23   A    
C44   O2    A    
C46   O5    A    
C65   C66   A    
C15   C25   T    
C22   H32   S    
C39   C57   S    
Br2   C65   S    
C1    O1    A    
C37   C38   A    
C3    C5    A    
C59   H16   S    
C70   C71   A    
O13   Zn1   S    
C16   O14   A    
C2    H28   S    
C61   H18   S    
C45   H22   S    
C49   C50   A    
C58   C59   A    
C12   C74   S    
C13   H30   S    
C2    C76   A    
C35   C36   A    
C47   O6    A    
O17   Zn3   S    
C61   C68   A    
C31   C32   A    
C21   C26   S    
C10   C11   A    
C17   C26   T    
C73   C75   T    
C24   H31   S    
C9    H26   S    
C46   O3    A    
C62   H19   S    
C12   C52   S    
C53   H14   S    
C18   C20   S    
C48   O8    A    
C12   C67   S    
C20   C22   S    
C4    O10   A    
O22   Zn3   S    
C50   C51   A    
C52   H1    S    
C52   C56   S    
C42   O21   A    
C71   H21   S    
C28   O15   A    
O14   Zn2   S    
Br1   C5    S    
O9    Zn6   S    
O12   Zn4   S    
C41   O18   A    
O8    Zn5   S    
O10   Zn1   S    
C16   C35   S    
C2    C3    A    
C49   H10   S    
C11   C46   S    
C9    C10   A    
C17   C43   S    
C12   C45   S    
C42   O20   A    
C27   C33   A    
C40   C74   S    
C1    O4    A    
C23   C74   S    
C30   C31   A    
C41   O19   A    
O5    Zn6   S    
C27   H4    S    
C27   C29   A    
C1    C8    S    
C62   C63   A    
C45   C56   S    
C39   O17   A    
C47   O7    A    
C36   H2    S    
C38   C48   S    
O24   Zn5   S    
O1    Zn1   S    
C7    C76   A    
C59   C60   A    
C8    C9    A    
C23   C34   S    
C44   O24   A    
C61   C62   A    
C4    C64   S    
C69   C70   A    
C18   C19   S    
O21   Zn4   S    
C66   C68   A    
C20   H33   S    
C19   C22   S    
O7    Zn6   S    
C20   C21   S    
O15   Zn1   S    
C37   H8    S    
C40   C52   S    
