data_mof_unit_57937.cif
_audit_creation_date              2013-03-05T16:08:05-0500
_audit_creation_method            fapswitch 2.2
_symmetry_space_group_name_H-M    P1
_symmetry_Int_Tables_number       1
_space_group_crystal_system       triclinic
_cell_length_a                    23.308761
_cell_length_b                    11.553207
_cell_length_c                    10.776366
_cell_angle_alpha                 90.073599
_cell_angle_beta                  89.757525
_cell_angle_gamma                 89.982317
_cell_volume                      2901.9492139

loop_
_atom_site_label
_atom_site_type_symbol
_atom_site_description
_atom_site_fract_x
_atom_site_fract_y
_atom_site_fract_z
_atom_type_partial_charge
O1    O     O_R   0.500000 0.334450 0.602530 -0.613578
O2    O     O_R   0.500000 0.665550 0.397470 -0.608521
O3    O     O_R   0.500000 0.665550 0.602530 -0.611206
O4    O     O_R   0.500000 0.334450 0.397470 -0.606012
C1    C     C_R   0.500428 0.281187 0.499909 0.886364
C2    C     C_R   0.499908 0.718812 0.500065 0.899992
O5    O     O_R   0.416150 0.500000 0.602560 -0.619858
O6    O     O_R   0.583850 0.500000 0.397440 -0.610613
O7    O     O_R   0.583850 0.500000 0.602560 -0.610359
O8    O     O_R   0.416150 0.500000 0.397440 -0.612420
C3    C     C_R   0.389042 0.500164 0.500324 0.943013
C4    C     C_R   0.610956 0.499276 0.499755 0.923458
Zn1   Zn    Zn3+2 0.500000 0.500000 0.636920 0.966528
Zn2   Zn    Zn3+2 0.500000 0.500000 0.363080 0.970336
C5    C     C_R   0.879547 0.441442 0.606506 0.539142
C6    C     C_R   0.121671 0.417365 0.394931 0.614852
C7    C     C_R   0.881647 0.428069 0.384895 0.542667
C8    C     C_R   0.119288 0.433128 0.616284 0.474109
N1    N     N_R   0.852313 0.440462 0.494298 -0.318558
N2    N     N_R   0.148757 0.429448 0.506410 -0.307228
C9    C     C_R   0.941417 0.418748 0.385386 -0.051849
C10   C     C_R   0.059464 0.428633 0.616653 -0.018235
C11   C     C_R   0.939211 0.433566 0.611634 -0.045134
C12   C     C_R   0.061811 0.413033 0.390442 -0.054547
C13   C     C_R   0.970333 0.423334 0.499852 -0.028001
C14   C     C_R   0.030576 0.420612 0.502383 -0.021229
C15   C     C_R   0.972863 0.407896 0.274608 -0.157010
C16   C     C_R   0.028022 0.436079 0.727694 -0.164261
C17   C     C_R   0.968361 0.438381 0.725211 -0.164605
C18   C     C_R   0.032585 0.404970 0.277117 -0.158807
O9    O     O_2   0.848847 0.452172 0.712418 -0.552614
O10   O     O_2   0.152679 0.411865 0.289028 -0.539417
O11   O     O_2   0.852968 0.425710 0.276388 -0.553960
O12   O     O_2   0.147906 0.443471 0.724381 -0.609934
H1    H     H_    0.951515 0.403505 0.185642 0.189011
H2    H     H_    0.049369 0.442064 0.816559 0.190276
H3    H     H_    0.945254 0.445869 0.812272 0.192158
H4    H     H_    0.055729 0.398524 0.190006 0.188974
C19   C     C_R   0.230620 0.560178 0.493328 0.423194
C20   C     C_R   0.756428 0.363976 0.533304 0.452687
C21   C     C_R   0.245903 0.351911 0.518465 0.435341
C22   C     C_R   0.767950 0.560381 0.452577 0.449463
C23   C     C_R   0.290163 0.579132 0.490083 0.001220
C24   C     C_R   0.696984 0.379705 0.540753 -0.012597
C25   C     C_R   0.305472 0.368903 0.513381 -0.012856
C26   C     C_R   0.708207 0.575320 0.452239 -0.012751
C27   C     C_R   0.327281 0.482999 0.501907 -0.200740
C28   C     C_R   0.672951 0.485424 0.498874 -0.229195
C29   C     C_R   0.209220 0.447244 0.507478 0.078301
C30   C     C_R   0.791505 0.454716 0.491986 0.033907
C31   C     C_1   0.500546 0.161079 0.499880 -0.199198
C32   C     C_1   0.499980 0.838915 0.500183 -0.190184
C33   C     C_1   0.500422 0.059153 0.500012 -0.007413
C34   C     C_1   0.500151 0.940851 0.500152 -0.003402
N3    N     N_1   0.500000 0.500000 0.180630 -0.081781
N4    N     N_1   0.500000 0.500000 0.819370 -0.080894
C35   C     C_1   0.500012 0.499991 0.069756 0.036972
C36   C     C_1   0.500013 0.499987 0.930243 0.036893
O13   O     O_3   0.192578 0.649486 0.469210 -0.632300
C37   C     C_3   0.176416 0.705022 0.581129 0.068107
H5    H     H_    0.203125 0.783724 0.593345 0.152506
H6    H     H_    0.181800 0.649738 0.665133 0.176895
C38   C     C_3   0.113565 0.742153 0.571991 -0.315448
H7    H     H_    0.109203 0.809529 0.499090 0.225719
H8    H     H_    0.086775 0.666868 0.544845 0.231689
C39   C     C_3   0.091328 0.789984 0.695159 -0.944557
H9    H     H_    0.094366 0.723095 0.768820 0.282523
H10   H     H_    0.045699 0.815567 0.685503 0.268107
H11   H     H_    0.116397 0.867323 0.722887 0.270503
O14   O     O_3   0.781023 0.261628 0.573812 -0.613218
C40   C     C_3   0.795875 0.191395 0.470660 0.056245
H12   H     H_    0.800139 0.239865 0.381508 0.162548
H13   H     H_    0.761999 0.124896 0.457541 0.137235
C41   C     C_3   0.852715 0.130463 0.497198 -0.305278
H14   H     H_    0.885943 0.195693 0.520804 0.227341
H15   H     H_    0.847236 0.071782 0.578003 0.222685
C42   C     C_3   0.873259 0.060727 0.385241 -0.956306
H16   H     H_    0.841085 0.993696 0.360597 0.265883
H17   H     H_    0.914497 0.017592 0.407556 0.273373
H18   H     H_    0.880314 0.118688 0.304404 0.279930
O15   O     O_3   0.223279 0.240924 0.517690 -0.627031
C43   C     C_3   0.215757 0.201381 0.640935 0.100745
H19   H     H_    0.172941 0.228512 0.675655 0.187965
H20   H     H_    0.249133 0.235167 0.705695 0.136324
C44   C     C_3   0.218124 0.068988 0.641899 -0.360414
H21   H     H_    0.181650 0.033788 0.587456 0.233620
H22   H     H_    0.258647 0.038959 0.597723 0.228506
C45   C     C_3   0.215194 0.021688 0.773943 -0.955601
H23   H     H_    0.251590 0.055161 0.829679 0.274276
H24   H     H_    0.217934 0.925783 0.771737 0.259289
H25   H     H_    0.174125 0.047236 0.818914 0.274732
O16   O     O_3   0.803469 0.646325 0.406099 -0.613840
C46   C     C_3   0.828661 0.709306 0.504701 0.054835
H26   H     H_    0.829560 0.661718 0.594727 0.157957
H27   H     H_    0.803823 0.790275 0.519725 0.140879
C47   C     C_3   0.890149 0.741084 0.468432 -0.298455
H28   H     H_    0.914404 0.661580 0.443877 0.226936
H29   H     H_    0.889455 0.798016 0.385492 0.231917
C48   C     C_3   0.921197 0.802439 0.573983 -0.970348
H30   H     H_    0.896710 0.879824 0.604724 0.269915
H31   H     H_    0.964204 0.830633 0.541334 0.266263
H32   H     H_    0.926674 0.742703 0.653788 0.277544
C49   C     C_3   0.313590 0.700562 0.469514 -0.364414
C50   C     C_3   0.334210 0.755294 0.590547 -0.889491
H33   H     H_    0.299642 0.753994 0.661670 0.255061
H34   H     H_    0.372050 0.708663 0.627266 0.276166
H35   H     H_    0.346780 0.846610 0.573340 0.250211
H36   H     H_    0.349418 0.698558 0.401234 0.205473
H37   H     H_    0.280584 0.758063 0.428436 0.244952
C51   C     C_3   0.660222 0.281380 0.590626 -0.337700
C52   C     C_3   0.658495 0.282803 0.732166 -0.739542
H38   H     H_    0.702280 0.270880 0.770345 0.282065
H39   H     H_    0.640656 0.366063 0.766536 0.261988
H40   H     H_    0.630793 0.211222 0.766034 0.227209
H41   H     H_    0.615923 0.285238 0.554599 0.184492
H42   H     H_    0.677053 0.196578 0.558516 0.202869
C53   C     C_3   0.344971 0.264148 0.512646 -0.360394
C54   C     C_3   0.355364 0.221157 0.380533 -0.781548
H43   H     H_    0.314080 0.196860 0.336478 0.282144
H44   H     H_    0.376540 0.289214 0.323994 0.268669
H45   H     H_    0.383514 0.143670 0.382400 0.233975
H46   H     H_    0.386340 0.283955 0.557717 0.195328
H47   H     H_    0.326878 0.192306 0.568151 0.213096
C55   C     C_3   0.683191 0.688236 0.404336 -0.348159
C56   C     C_3   0.680594 0.688312 0.262877 -0.750811
H48   H     H_    0.724302 0.679668 0.222507 0.285508
H49   H     H_    0.653484 0.615741 0.229453 0.261806
H50   H     H_    0.661641 0.771014 0.230342 0.227047
H51   H     H_    0.639509 0.704536 0.441822 0.180507
H52   H     H_    0.709449 0.762632 0.436067 0.203404

loop_
_geom_bond_atom_site_label_1
_geom_bond_atom_site_label_2
_geom_bond_distance
_ccdc_geom_bond_type
C39   H10   1.109116 S    
C38   H8    1.110513 S    
C46   H26   1.115997 S    
C3    C27   1.453271 S    
C52   H38   1.110619 S    
C4    C28   1.453789 S    
O3    C2    1.264781 A    
C50   H34   1.108135 S    
O15   C43   1.415282 S    
C33   C34   1.366788 S    
C5    N1    1.368087 A    
C20   O14   1.385798 S    
C37   C38   1.529979 S    
O1    C1    1.264867 A    
C11   C17   1.403456 A    
C16   C17   1.391246 A    
C12   C14   1.408957 A    
C42   H18   1.111158 S    
C39   H11   1.109150 S    
C47   C48   1.524871 S    
C18   H4    1.083193 S    
C37   H6    1.116055 S    
C22   C26   1.403163 A    
O7    Zn1   1.987665 S    
C54   H43   1.110790 S    
C51   C52   1.525713 S    
C41   C42   1.525254 S    
C47   H29   1.110577 S    
C56   H50   1.110383 S    
O14   C40   1.417094 S    
C22   O16   1.385814 S    
O3    Zn1   1.948674 S    
C6    N2    1.366493 A    
Zn1   N4    1.966147 S    
C5    C11   1.394996 A    
C39   H9    1.111012 S    
C9    C15   1.403658 A    
C38   C39   1.525737 S    
C21   O15   1.386635 S    
O13   C37   1.415002 S    
C46   H27   1.111272 S    
C10   C16   1.403087 A    
C15   C18   1.392824 A    
C26   C55   1.520565 S    
O2    C2    1.264614 A    
C7    O11   1.349604 S    
C21   C29   1.399577 A    
C50   H33   1.109802 S    
C32   C34   1.177700 T    
C23   C49   1.521742 S    
C25   C27   1.418301 A    
C26   C28   1.415957 A    
C41   H14   1.110862 S    
C44   H22   1.111189 S    
O8    Zn2   1.987668 S    
C40   H13   1.111206 S    
C19   C23   1.405403 A    
C15   H1    1.083179 S    
C13   C14   1.404899 A    
C44   H21   1.111842 S    
C7    C9    1.397332 A    
C37   H5    1.110127 S    
C31   C33   1.177577 T    
C54   H45   1.110018 S    
O5    C3    1.272380 A    
C53   H46   1.105393 S    
N2    C29   1.424394 S    
C48   H30   1.110019 S    
C45   H25   1.110807 S    
C20   C24   1.399328 A    
O6    C4    1.273134 A    
C19   O13   1.385821 S    
C47   H28   1.109558 S    
C42   H17   1.109972 S    
C55   H52   1.109789 S    
C52   H39   1.110359 S    
C8    O12   1.349995 S    
C49   H36   1.110897 S    
C41   H15   1.111220 S    
C22   C30   1.405329 A    
C48   H31   1.110084 S    
C45   H24   1.110045 S    
C46   C47   1.528921 S    
C43   H20   1.117445 S    
N3    C35   1.194822 T    
C56   H48   1.110502 S    
C12   C18   1.403893 A    
O1    Zn1   1.947741 S    
C51   H42   1.109626 S    
C44   C45   1.526200 S    
C25   C53   1.520400 S    
C9    C13   1.409093 A    
O6    Zn2   1.990744 S    
C19   C29   1.405250 A    
C8    C10   1.395397 A    
O4    C1    1.264609 A    
C40   C41   1.528325 S    
C5    O9    1.350096 S    
C6    O10   1.349682 S    
C43   C44   1.530597 S    
C49   H37   1.110167 S    
C53   H47   1.106290 S    
C40   H12   1.116735 S    
C53   C54   1.525607 S    
N1    C30   1.427175 S    
C35   C36   1.503433 S    
C20   C30   1.401573 A    
O16   C46   1.416633 S    
C7    N1    1.367712 A    
N4    C36   1.194816 T    
C55   H51   1.109745 S    
Zn2   N3    1.966148 S    
C52   H40   1.110465 S    
C8    N2    1.366942 A    
C11   C13   1.408347 A    
O4    Zn2   1.948675 S    
O2    Zn2   1.947740 S    
O7    C4    1.273057 A    
C54   H44   1.109976 S    
O8    C3    1.273788 A    
C38   H7    1.111593 S    
O5    Zn1   1.990747 S    
C48   H32   1.111119 S    
C45   H23   1.110822 S    
C16   H2    1.083199 S    
C6    C12   1.397231 A    
C43   H19   1.109307 S    
C10   C14   1.408955 A    
C17   H3    1.083176 S    
C49   C50   1.528196 S    
C56   H49   1.110626 S    
C21   C25   1.403210 A    
C42   H16   1.110950 S    
C1    C31   1.387633 S    
C2    C32   1.387576 S    
C23   C27   1.413854 A    
C51   H41   1.105572 S    
C50   H35   1.110615 S    
C24   C28   1.418590 A    
C55   C56   1.525868 S    
C24   C51   1.520453 S    
