data_mof_unit_58643.cif
_audit_creation_date              2012-12-11T15:13:43-0500
_audit_creation_method            fapswitch 2.2
_symmetry_space_group_name_H-M    P1
_symmetry_Int_Tables_number       1
_space_group_crystal_system       triclinic
_cell_length_a                    6.949685
_cell_length_b                    13.507895
_cell_length_c                    20.106362
_cell_angle_alpha                 104.180245
_cell_angle_beta                  90.386887
_cell_angle_gamma                 90.452702
_cell_volume                      1829.85422672

loop_
_atom_site_label
_atom_site_type_symbol
_atom_type_description
_atom_site_fract_x
_atom_site_fract_y
_atom_site_fract_z
_atom_type_partial_charge
O1    O     O_R   0.506780 0.600060 0.449950 -0.537158
O2    O     O_R   0.179840 0.597110 0.589410 -0.540085
O3    O     O_R   0.004570 0.399940 0.550050 -0.542308
C1    C     C_R   0.348997 0.618222 0.617164 0.683446
O4    O     O_R   0.177380 0.612160 0.452890 -0.537413
O5    O     O_R   0.002100 0.415100 0.412560 -0.541394
C2    C     C_R   0.345718 0.638935 0.436297 0.704887
O6    O     O_R   0.509250 0.584900 0.587440 -0.540300
O7    O     O_3   0.337570 0.435330 0.486930 -0.373829
V1    V     V_3+5 0.064650 0.512000 0.502430 1.449058
O8    O     O_R   0.672090 0.402890 0.410590 -0.544557
C3    C     C_R   0.839983 0.380919 0.383163 0.698455
O9    O     O_R   0.674540 0.387840 0.547110 -0.542425
C4    C     C_R   0.842930 0.361594 0.563975 0.693548
V2    V     V_3+5 0.564040 0.488000 0.497570 1.437338
O10   O     O_3   0.840990 0.564670 0.513070 -0.363366
C5    C     C_R   0.811499 0.106989 0.605568 -0.109941
H1    H     H_    0.786680 0.160214 0.513919 0.120939
H2    H     H_    0.776594 0.030546 0.576850 0.178229
C6    C     C_R   0.848732 0.282977 0.602302 -0.028847
C7    C     C_R   0.861571 0.317880 0.931300 -0.153242
C8    C     C_R   0.859366 0.394096 0.895925 -0.133463
C9    C     C_R   0.859765 0.369097 0.824470 -0.158471
C10   C     C_R   0.862719 0.265817 0.786095 0.081538
C11   C     C_R   0.861723 0.188133 0.822697 0.067736
C12   C     C_R   0.860465 0.237541 0.712823 0.046720
C13   C     C_R   0.844034 0.132248 0.677299 0.114642
C14   C     C_R   0.855400 0.055874 0.714620 -0.019019
C15   C     C_R   0.861698 0.085030 0.786282 -0.292797
C16   C     C_R   0.871429 0.311067 0.673436 -0.208122
C17   C     C_R   0.813304 0.181620 0.568785 -0.201245
C18   C     C_R   0.862486 0.215279 0.895540 -0.064344
H3    H     H_    0.895694 0.391097 0.696300 0.089301
H4    H     H_    0.862236 0.338940 0.986905 0.123180
H5    H     H_    0.853725 0.432699 0.801102 0.101953
H6    H     H_    0.856745 0.473423 0.924116 0.115647
H7    H     H_    0.867665 0.025452 0.813828 0.108723
C19   C     C_3   0.804061 0.156092 0.252068 0.417338
C20   C     C_3   0.975605 0.215354 0.292628 -0.173138
H8    H     H_    0.072016 0.186945 0.327962 0.120806
C21   C     C_3   0.847703 0.310596 0.312647 -0.062183
C22   C     C_3   0.675080 0.250906 0.273066 -0.159431
C23   C     C_3   0.738940 0.284177 0.207881 -0.192888
C24   C     C_3   0.911197 0.344651 0.248320 -0.115658
C25   C     C_3   0.038773 0.248479 0.227365 -0.166574
C26   C     C_3   0.866391 0.188807 0.187586 -0.075981
H9    H     H_    0.525325 0.251163 0.292011 0.127993
H10   H     H_    0.641883 0.312271 0.172614 0.172699
H11   H     H_    0.955545 0.423381 0.247246 0.122255
H12   H     H_    0.188561 0.247454 0.208352 0.137901
C27   C     C_3   0.539080 0.725341 0.731407 -0.118444
C28   C     C_3   0.454310 0.834285 0.750690 -0.141314
H13   H     H_    0.529130 0.907555 0.752232 0.101206
H14   H     H_    0.689499 0.706145 0.715289 0.110563
C29   C     C_3   0.355489 0.809563 0.812984 -0.004334
C30   C     C_3   0.440123 0.701343 0.794619 -0.144784
C31   C     C_3   0.258256 0.662569 0.750562 -0.137401
C32   C     C_3   0.173870 0.771666 0.769779 -0.120381
C33   C     C_3   0.273162 0.795491 0.706657 -0.137946
C34   C     C_3   0.357361 0.687375 0.688186 -0.007694
H15   H     H_    0.508390 0.662895 0.831500 0.097826
H16   H     H_    0.177654 0.591061 0.750003 0.097852
H17   H     H_    0.023625 0.790901 0.786064 0.100709
H18   H     H_    0.210838 0.833443 0.668752 0.158370
C35   C     C_R   0.288128 0.889785 0.390632 -0.130199
H19   H     H_    0.287935 0.840819 0.484314 0.128345
H20   H     H_    0.249063 0.012576 0.307200 0.126697
H21   H     H_    0.255849 0.967987 0.416717 0.120504
C36   C     C_R   0.349846 0.716752 0.397036 -0.040511
C37   C     C_R   0.399289 0.681974 0.067400 -0.262391
C38   C     C_R   0.413117 0.604723 0.102140 0.058393
C39   C     C_R   0.393932 0.628818 0.173714 -0.148264
C40   C     C_R   0.359220 0.730226 0.211637 0.040011
C41   C     C_R   0.338092 0.807349 0.174826 0.065349
C42   C     C_R   0.345955 0.757816 0.284875 0.082597
C43   C     C_R   0.305335 0.860779 0.318978 0.135183
C44   C     C_R   0.280410 0.934103 0.281491 -0.086976
C45   C     C_R   0.297600 0.908179 0.210685 -0.092025
C46   C     C_R   0.370546 0.686977 0.325758 -0.210918
C47   C     C_R   0.307932 0.817913 0.429282 -0.152132
C48   C     C_R   0.361559 0.782418 0.102779 -0.065258
H22   H     H_    0.400421 0.607542 0.304053 0.094652
H23   H     H_    0.419120 0.664066 0.012275 0.091243
H24   H     H_    0.406762 0.566733 0.198227 0.143054
H25   H     H_    0.279319 0.968448 0.184335 0.126427
O11   O     O_R   0.203580 0.914920 0.912610 -0.544799
O12   O     O_R   0.535710 0.887810 0.047120 -0.530219
O13   O     O_R   0.710730 0.084950 0.087430 -0.528183
C49   C     C_R   0.367306 0.861311 0.064011 0.706313
O14   O     O_R   0.533010 0.902850 0.910600 -0.548327
O15   O     O_R   0.708010 0.100090 0.949930 -0.539081
C50   C     C_R   0.363731 0.880396 0.883343 0.667922
O16   O     O_R   0.206300 0.899780 0.050100 -0.543686
O17   O     O_3   0.375170 0.064580 0.013100 -0.365292
V3    V     V_3+5 0.648200 0.988020 0.997570 1.461708
O18   O     O_R   0.038030 0.112330 0.952840 -0.540200
C51   C     C_R   0.869504 0.138117 0.935578 0.688616
O19   O     O_R   0.040730 0.097300 0.089360 -0.546551
C52   C     C_R   0.873069 0.118881 0.116903 0.748555
V4    V     V_3+5 0.148780 0.012220 0.002360 1.450030
O20   O     O_3   0.871930 0.935430 0.986900 -0.375766
Cl1   Cl    Cl    0.737893 0.029652 0.254812 -0.715937
C53   C     C_2   0.870104 0.944373 0.682532 0.309134
H26   H     H_    0.844822 0.890081 0.713347 0.045949
O21   O     O_2   0.922314 0.911223 0.623529 -0.551036
C54   C     C_2   0.450975 0.498970 0.062650 0.336948
H27   H     H_    0.468484 0.482555 0.007409 0.050821
O22   O     O_2   0.462906 0.428968 0.091017 -0.551086

loop_
_geom_bond_atom_site_label_1
_geom_bond_atom_site_label_2
_ccdc_geom_bond_type
C24   H11   S    
C26   C52   S    
C42   C43   A    
C21   C22   S    
H20   C44   S    
C1    O6    A    
O14   V3    S    
C20   C21   S    
C6    C16   A    
C44   C45   A    
C18   C51   S    
C33   H18   S    
C29   C50   S    
C35   C43   A    
C14   C15   A    
C10   C12   A    
C19   C22   S    
O5    C3    A    
C19   C20   S    
C54   H27   S    
V2    O10   S    
C30   C31   S    
C27   C30   S    
C40   C41   A    
C37   C48   A    
O8    V2    S    
O12   V3    S    
C9    C10   A    
C37   C38   A    
O1    V2    S    
O11   V4    S    
C23   H10   S    
C28   C29   S    
C20   C25   S    
C48   C49   S    
C11   C18   A    
O13   V3    S    
C33   C34   S    
C35   C47   A    
O9    C4    A    
C40   C42   A    
C8    C9    A    
C11   C15   A    
C7    C18   A    
C27   C28   S    
C5    C13   A    
C4    C6    S    
C31   H16   S    
C10   C11   A    
C20   H8    S    
O4    C2    A    
C31   C34   S    
C7    H4    S    
C32   C33   S    
C25   C26   S    
O15   C51   A    
O2    C1    A    
C23   C24   S    
C2    C36   S    
C3    C21   S    
C28   C33   S    
O14   C50   A    
O17   V4    S    
C35   H21   S    
O18   C51   A    
C1    C34   S    
C29   C30   S    
C12   C13   A    
C53   O21   D    
C43   C44   A    
C37   H23   S    
O16   V4    S    
C39   H24   S    
O3    C4    A    
C45   H25   S    
C12   C16   A    
O6    V2    S    
O19   V4    S    
O12   C49   A    
C5    C17   A    
C21   C24   S    
C36   C46   A    
C22   C23   S    
C41   C48   A    
O2    V1    S    
C53   H26   S    
C8    H6    S    
C28   H13   S    
O7    V1    S    
C32   H17   S    
C16   H3    S    
O1    C2    A    
C24   C25   S    
C39   C40   A    
O5    V1    S    
C46   H22   S    
O8    C3    A    
H1    C17   S    
H19   C47   S    
C9    H5    S    
C27   H14   S    
O9    V2    S    
O7    V2    S    
C38   C39   A    
C19   Cl1   S    
O3    V1    S    
O11   C50   A    
C14   C53   S    
C31   C32   S    
C29   C32   S    
C54   O22   D    
C25   H12   S    
O18   V4    S    
V4    O20   S    
C5    H2    S    
C22   H9    S    
C49   O16   A    
O17   V3    S    
C23   C26   S    
C19   C26   S    
O13   C52   A    
O15   V3    S    
O4    V1    S    
O19   C52   A    
C41   C45   A    
C38   C54   S    
C15   H7    S    
C13   C14   A    
C30   H15   S    
C36   C47   A    
V1    O10   S    
C27   C34   S    
C7    C8    A    
C42   C46   A    
V3    O20   S    
C6    C17   A    
