data_mof_unit_31215.cif
_audit_creation_date              2012-12-10T20:35:55-0500
_audit_creation_method            fapswitch 2.2
_symmetry_space_group_name_H-M    P1
_symmetry_Int_Tables_number       1
_space_group_crystal_system       triclinic
_cell_length_a                    15.737711
_cell_length_b                    10.691221
_cell_length_c                    9.862607
_cell_angle_alpha                 89.60158
_cell_angle_beta                  90.887223
_cell_angle_gamma                 90.311328
_cell_volume                      1659.17375212

loop_
_atom_site_label
_atom_site_type_symbol
_atom_type_description
_atom_site_fract_x
_atom_site_fract_y
_atom_site_fract_z
_atom_type_partial_charge
C1    C     C_R   0.501014 0.260385 0.500146 0.891021
C2    C     C_R   0.503127 0.128772 0.496762 -0.136212
C3    C     C_R   0.452299 0.067008 0.400455 -0.352557
C4    C     C_R   0.338271 0.498308 0.499186 0.904596
C5    C     C_R   0.452408 0.937074 0.395822 0.454148
C6    C     C_R   0.500720 0.871907 0.494644 -0.195499
C7    C     C_R   0.559613 0.935347 0.575655 0.040616
C8    C     C_3   0.580016 0.926662 0.723802 -0.475965
C9    C     C_3   0.584196 0.068804 0.722815 -0.455285
C10   C     C_R   0.427012 0.476807 0.069609 0.121111
C11   C     C_R   0.570258 0.535057 0.073354 -0.142694
C12   C     C_3   0.952154 0.474863 0.644576 -0.484996
C13   C     C_R   0.570309 0.534844 0.929414 -0.120647
C14   C     C_R   0.426629 0.477631 0.927459 0.073070
C15   C     C_3   0.370035 0.364649 0.921382 0.251937
C16   C     C_R   0.498678 0.739804 0.499178 0.928264
C17   C     C_3   0.372984 0.362487 0.076607 0.188661
C18   C     C_R   0.661634 0.501051 0.501010 0.887948
C19   C     C_3   0.049860 0.470388 0.643458 -0.530855
C20   C     C_3   0.042755 0.409230 0.389880 0.236196
C21   C     C_3   0.944650 0.403260 0.400648 0.309430
C22   C     C_1   0.750313 0.504676 0.503665 -0.213556
C23   C     C_3   0.916916 0.506558 0.500793 0.086362
C24   C     C_3   0.082372 0.501240 0.498715 0.024795
C25   C     C_3   0.861795 0.750569 0.303619 0.123149
C26   C     C_3   0.828104 0.754066 0.158360 -0.847126
C27   C     C_3   0.422793 0.888446 0.175221 0.120567
C28   C     C_3   0.360075 0.821717 0.081431 -0.818814
C29   C     C_3   0.354954 0.158980 0.849132 0.086735
C30   C     C_3   0.303600 0.167267 0.716796 -0.856448
C31   C     C_3   0.248706 0.282370 0.170035 0.143690
C32   C     C_3   0.167235 0.273228 0.085193 -0.802228
C33   C     C_3   0.097850 0.219883 0.488176 0.176528
C34   C     C_3   0.951582 0.637647 0.453390 0.093547
C35   C     C_3   0.117598 0.087787 0.445126 -0.909164
C36   C     C_3   0.872422 0.217554 0.346911 0.136475
C37   C     C_3   0.839429 0.095871 0.407357 -0.877690
C38   C     C_3   0.044655 0.789256 0.648506 0.005732
C39   C     C_3   0.101418 0.845041 0.759279 -0.819957
C40   C     C_3   0.093242 0.795589 0.304667 0.249183
C41   C     C_3   0.100566 0.816377 0.152622 -0.871958
C42   C     C_3   0.053580 0.638769 0.462700 0.784286
C43   C     C_1   0.825520 0.507236 0.504278 -0.000535
C44   C     C_1   0.174085 0.496125 0.497709 0.082550
C45   C     C_1   0.249396 0.496098 0.497607 -0.160078
C46   C     C_R   0.561914 0.062981 0.575256 0.112730
H1    H     H_    0.076063 0.538054 0.718381 0.232114
H2    H     H_    0.409240 0.119015 0.334599 0.153768
H3    H     H_    0.486656 0.845989 0.162407 0.149609
H4    H     H_    0.425164 0.988555 0.143424 0.113335
H5    H     H_    0.297218 0.868110 0.085141 0.242847
H6    H     H_    0.383188 0.825526 0.975628 0.193330
H7    H     H_    0.353040 0.722372 0.113030 0.281288
H8    H     H_    0.526384 0.888588 0.783885 0.209983
H9    H     H_    0.642631 0.882126 0.744127 0.196137
H10   H     H_    0.649485 0.106024 0.740602 0.193539
H11   H     H_    0.627413 0.561595 0.128414 0.151343
H12   H     H_    0.534478 0.113145 0.784215 0.248632
H13   H     H_    0.072328 0.378947 0.682192 0.172606
H14   H     H_    0.627475 0.561017 0.876579 0.143462
H15   H     H_    0.307123 0.388469 0.875187 0.114882
H16   H     H_    0.311706 0.147980 0.936300 0.122625
H17   H     H_    0.393027 0.071986 0.846865 0.158608
H18   H     H_    0.346399 0.179772 0.629598 0.266234
H19   H     H_    0.266332 0.079808 0.702292 0.213453
H20   H     H_    0.258797 0.246778 0.719406 0.216885
H21   H     H_    0.232092 0.290215 0.278360 0.205081
H22   H     H_    0.284573 0.193272 0.161049 0.078900
H23   H     H_    0.927124 0.382956 0.680124 0.241097
H24   H     H_    0.182333 0.263640 0.976258 0.215553
H25   H     H_    0.129697 0.190325 0.117663 0.230237
H26   H     H_    0.128514 0.358658 0.098136 0.271677
H27   H     H_    0.408420 0.283376 0.125082 0.090600
H28   H     H_    0.053537 0.455533 0.290471 0.144460
H29   H     H_    0.042717 0.214685 0.556433 0.200106
H30   H     H_    0.154494 0.256410 0.543034 0.122448
H31   H     H_    0.174398 0.086908 0.379703 0.252400
H32   H     H_    0.130133 0.028584 0.535464 0.223521
H33   H     H_    0.062229 0.050031 0.387690 0.253404
H34   H     H_    0.930473 0.544937 0.718984 0.170333
H35   H     H_    0.915610 0.195564 0.262066 0.155928
H36   H     H_    0.816792 0.271660 0.307856 0.133119
H37   H     H_    0.794524 0.115971 0.490148 0.259691
H38   H     H_    0.805580 0.041006 0.327851 0.203354
H39   H     H_    0.893268 0.040217 0.449220 0.241001
H40   H     H_    0.916989 0.426684 0.298241 0.072725
H41   H     H_    0.997712 0.730155 0.701753 0.142586
H42   H     H_    0.012769 0.866448 0.591739 0.138762
H43   H     H_    0.155669 0.896590 0.714734 0.255214
H44   H     H_    0.064154 0.910017 0.822208 0.207533
H45   H     H_    0.889207 0.843522 0.328469 0.128271
H46   H     H_    0.127093 0.769207 0.825440 0.255274
H47   H     H_    0.151490 0.833676 0.354882 0.187980
H48   H     H_    0.036694 0.846710 0.339899 0.117063
H49   H     H_    0.042178 0.782273 0.099845 0.267553
H50   H     H_    0.108859 0.917693 0.130576 0.199939
H51   H     H_    0.156101 0.764826 0.113804 0.266514
H52   H     H_    0.923204 0.708318 0.520563 0.030908
H53   H     H_    0.807415 0.731062 0.371401 0.138142
H54   H     H_    0.799734 0.661995 0.131417 0.248387
H55   H     H_    0.778544 0.827174 0.147656 0.200098
H56   H     H_    0.880478 0.775979 0.087741 0.251463
N1    N     N_R   0.499430 0.499140 0.142800 -0.118065
N2    N     N_R   0.499430 0.499180 0.857150 -0.077582
O1    O     O_R   0.500010 0.316790 0.614690 -0.563336
O2    O     O_3   0.395950 0.874567 0.310660 -0.595519
O3    O     O_3   0.411639 0.261609 0.863223 -0.608137
O4    O     O_3   0.293881 0.391940 0.133561 -0.608134
O5    O     O_3   0.081562 0.291027 0.370012 -0.621211
O6    O     O_3   0.916695 0.284554 0.448733 -0.603924
O7    O     O_3   0.095504 0.719271 0.560423 -0.643653
O8    O     O_3   0.086711 0.666096 0.331529 -0.618690
O9    O     O_R   0.500000 0.316760 0.385350 -0.634441
O10   O     O_R   0.377150 0.500020 0.614720 -0.618942
O11   O     O_R   0.377140 0.499990 0.385380 -0.569622
O12   O     O_R   0.500000 0.683240 0.614650 -0.628712
O13   O     O_R   0.499990 0.683210 0.385310 -0.598253
O14   O     O_R   0.622860 0.500010 0.614620 -0.625454
O15   O     O_R   0.622850 0.499980 0.385280 -0.627954
O16   O     O_3   0.925056 0.657603 0.315866 -0.602099
Zn1   Zn    Zn3+2 0.500010 0.500020 0.653130 0.977365
Zn2   Zn    Zn3+2 0.499990 0.499980 0.346870 0.969295

loop_
_geom_bond_atom_site_label_1
_geom_bond_atom_site_label_2
_ccdc_geom_bond_type
C12   H23   S    
C29   H17   S    
C30   H18   S    
C24   C42   S    
C31   O4    S    
C4    O11   A    
C34   C42   S    
C40   H47   S    
O13   Zn2   S    
C21   O6    S    
C7    C8    S    
C40   O8    S    
C13   H14   S    
C41   H49   S    
C2    C46   A    
C31   H21   S    
C12   C23   S    
C4    O10   A    
C10   N1    A    
C1    C2    S    
C26   H55   S    
C38   C39   S    
C28   H5    S    
C19   H1    S    
C41   H50   S    
C10   C17   S    
C3    H2    S    
C11   C13   A    
C23   C43   S    
C9    H12   S    
C15   O3    S    
C42   O8    S    
C33   C35   S    
C21   H40   S    
O10   Zn1   S    
C33   H29   S    
O9    Zn2   S    
C20   C24   S    
C36   H36   S    
C8    C9    S    
C37   H38   S    
C18   O14   A    
C39   H44   S    
C27   H4    S    
C4    C45   S    
C9    C46   S    
O11   Zn2   S    
C17   H27   S    
C1    O9    A    
C16   O12   A    
C8    H9    S    
C25   H53   S    
C32   H25   S    
C5    O2    S    
C34   O16   S    
C31   H22   S    
C25   H45   S    
O12   Zn1   S    
O1    Zn1   S    
C7    C46   A    
C32   H26   S    
C10   C14   A    
C17   O4    S    
C8    H8    S    
C32   H24   S    
N2    Zn1   S    
C27   O2    S    
C19   H13   S    
C25   C26   S    
C35   H31   S    
C38   H42   S    
O14   Zn1   S    
C42   O7    S    
C29   C30   S    
C33   H30   S    
C14   N2    A    
C22   C43   T    
C36   H35   S    
C23   C34   S    
C15   H15   S    
C20   H28   S    
C9    H10   S    
C13   N2    A    
C30   H20   S    
C40   C41   S    
C21   C23   S    
C36   O6    S    
C24   C44   S    
C41   H51   S    
C33   O5    S    
C25   O16   S    
C39   H46   S    
C44   C45   T    
O15   Zn2   S    
C37   H39   S    
C15   C17   S    
C29   H16   S    
C36   C37   S    
C18   C22   S    
C31   C32   S    
C37   H37   S    
C40   H48   S    
C3    C5    A    
C28   H7    S    
C6    C7    A    
C35   H32   S    
C38   H41   S    
C2    C3    A    
C16   O13   A    
C26   H56   S    
C28   H6    S    
C5    C6    A    
C12   H34   S    
C12   C19   S    
C35   H33   S    
C34   H52   S    
C19   C24   S    
C30   H19   S    
C6    C16   S    
C20   O5    S    
C20   C21   S    
C1    O1    A    
C27   C28   S    
C14   C15   S    
C29   O3    S    
C11   N1    A    
C38   O7    S    
C11   H11   S    
N1    Zn2   S    
C18   O15   A    
C39   H43   S    
C27   H3    S    
C26   H54   S    
