data_mof_unit_67463.cif
_audit_creation_date              2013-03-05T15:40:59-0500
_audit_creation_method            fapswitch 2.2
_symmetry_space_group_name_H-M    P1
_symmetry_Int_Tables_number       1
_space_group_crystal_system       triclinic
_cell_length_a                    10.792509
_cell_length_b                    8.759013
_cell_length_c                    7.50061
_cell_angle_alpha                 102.678532
_cell_angle_beta                  94.816562
_cell_angle_gamma                 93.79622
_cell_volume                      686.696739511

loop_
_atom_site_label
_atom_site_type_symbol
_atom_site_description
_atom_site_fract_x
_atom_site_fract_y
_atom_site_fract_z
_atom_type_partial_charge
O1    O     O_R   0.509140 0.286130 0.619770 -0.570393
O2    O     O_R   0.485380 0.256770 0.308360 -0.557953
C1    C     C_R   0.494918 0.200198 0.454860 0.904247
O3    O     O_R   0.329570 0.514650 0.655700 -0.575572
O4    O     O_R   0.305810 0.485300 0.344290 -0.579572
C2    C     C_R   0.260894 0.505667 0.503125 0.825962
Cu1   Cu    Cu3+1 0.514070 0.517380 0.684380 1.078137
Cu2   Cu    Cu3+1 0.485930 0.482620 0.315620 1.061854
O5    O     O_R   0.514620 0.743230 0.691640 -0.541741
O6    O     O_R   0.490860 0.713870 0.380230 -0.578126
O7    O     O_R   0.694190 0.514700 0.655710 -0.566342
O8    O     O_R   0.670430 0.485350 0.344300 -0.555099
C3    C     C_R   0.503075 0.799503 0.547031 0.846227
C4    C     C_R   0.740273 0.504560 0.499348 0.831779
C5    C     C_3   0.086325 0.561928 0.713142 0.252567
C6    C     C_3   0.943016 0.578150 0.701222 -0.035644
C7    C     C_3   0.072126 0.621013 0.386480 0.003887
C8    C     C_3   0.061712 0.342756 0.422516 -0.468096
C9    C     C_3   0.124070 0.511137 0.510113 -0.090104
C10   C     C_3   0.879096 0.507770 0.499707 -0.111274
C11   C     C_3   0.928414 0.615427 0.377173 -0.398353
C12   C     C_3   0.917800 0.337539 0.421988 0.260770
C13   C     C_2   0.492795 0.033381 0.434071 -0.350333
H1    H     H_    0.484133 0.962930 0.294353 0.199518
C14   C     C_2   0.502202 0.966374 0.578693 0.041646
N1    N     N_2   0.464720 0.456420 0.038520 -0.156535
H2    H     H_    0.400791 0.378486 0.948787 0.237123
N2    N     N_2   0.535280 0.543580 0.961480 0.001934
I1    I     I_    0.200217 0.764584 0.890615 -0.182889
I2    I     I_    0.837226 0.234319 0.143442 -0.197165
H3    H     H_    0.095672 0.575482 0.244472 0.195231
H4    H     H_    0.889181 0.570977 0.232076 0.212018
I3    I     I_    0.513378 0.078452 0.866375 -0.166037
I4    I     I_    0.664271 0.723237 0.105140 -0.136498
I5    I     I_    0.125269 0.387048 0.873229 -0.330053
H5    H     H_    0.902608 0.512889 0.796927 0.184078
I6    I     I_    0.890773 0.816794 0.802352 -0.173844
I7    I     I_    0.154629 0.860128 0.443138 -0.270752
H6    H     H_    0.897368 0.735168 0.417125 0.237986
H7    H     H_    0.087490 0.306890 0.279784 0.224093
H8    H     H_    0.099863 0.253955 0.491870 0.227943
I8    I     I_    0.848871 0.169984 0.570248 -0.234626

loop_
_geom_bond_atom_site_label_1
_geom_bond_atom_site_label_2
_geom_bond_distance
_ccdc_geom_bond_type
O4    Cu2   1.974780 S    
Cu1   O7    1.974780 S    
C13   H1    1.086190 S    
Cu2   N1    2.031912 S    
N1    N2    1.298929 D    
C11   H6    1.107935 S    
C6    C10   1.581170 S    
C6    I6    2.189626 S    
Cu2   O8    1.982750 S    
O2    C1    1.300131 A    
O8    C4    1.303479 A    
N2    I4    2.071011 S    
Cu1   Cu2   2.704127 S    
C8    C12   1.550456 S    
C6    H5    1.109921 S    
C5    C9    1.585464 S    
C2    C9    1.485553 S    
C3    C14   1.429225 S    
N1    H2    1.026149 S    
C12   I8    2.157480 S    
O3    Cu1   1.982751 S    
C5    I5    2.184639 S    
C7    C9    1.573636 S    
C10   C12   1.574598 S    
C5    I1    2.198361 S    
C7    I7    2.158425 S    
C13   C14   1.341764 D    
O4    C2    1.304339 A    
C7    H3    1.109309 S    
C11   H4    1.109096 S    
C7    C11   1.543760 S    
C5    C6    1.559428 S    
C4    C10   1.496420 S    
C10   C11   1.553483 S    
O3    C2    1.294419 A    
C8    C9    1.558446 S    
C8    H8    1.108681 S    
O7    C4    1.299541 A    
Cu1   O5    1.966589 S    
C8    H7    1.111840 S    
O5    C3    1.286493 A    
C12   I2    2.168010 S    
O1    Cu1   1.972546 S    
C1    C13   1.433445 S    
Cu2   O6    1.972546 S    
O2    Cu2   1.966590 S    
Cu1   N2    2.031912 S    
C14   I3    2.155248 S    
O1    C1    1.290043 A    
O6    C3    1.300969 A    
