data_mof_unit_36974.cif
_audit_creation_date              2012-12-10T17:11:59-0500
_audit_creation_method            fapswitch 2.2
_symmetry_space_group_name_H-M    P1
_symmetry_Int_Tables_number       1
_space_group_crystal_system       triclinic
_cell_length_a                    11.754228
_cell_length_b                    12.995069
_cell_length_c                    15.751636
_cell_angle_alpha                 93.493215
_cell_angle_beta                  73.35477
_cell_angle_gamma                 99.496591
_cell_volume                      2273.36570059

loop_
_atom_site_label
_atom_site_type_symbol
_atom_type_description
_atom_site_fract_x
_atom_site_fract_y
_atom_site_fract_z
_atom_type_partial_charge
C1    C     C_R   0.520495 0.700544 0.501485 0.841067
C2    C     C_R   0.479505 0.299456 0.498515 0.841067
C3    C     C_R   0.357324 0.482527 0.090231 -0.227090
C4    C     C_R   0.642675 0.517474 0.909768 -0.227090
C5    C     C_R   0.271552 0.458942 0.043708 0.196243
C6    C     C_R   0.728448 0.541058 0.956292 0.196243
C7    C     C_R   0.468056 0.186113 0.496886 -0.091880
C8    C     C_R   0.531943 0.813887 0.503114 -0.091880
C9    C     C_R   0.643948 0.983219 0.522315 0.163186
C10   C     C_R   0.356052 0.016781 0.477685 0.163186
C11   C     C_R   0.633377 0.875161 0.519390 -0.156922
C12   C     C_R   0.366623 0.124839 0.480610 -0.156921
C13   C     C_R   0.440427 0.860845 0.489057 -0.221705
C14   C     C_R   0.559573 0.139155 0.510943 -0.221705
C15   C     C_R   0.448499 0.968990 0.491557 0.084179
C16   C     C_R   0.551501 0.031010 0.508442 0.084179
C17   C     C_R   0.936710 0.604019 0.579663 0.069298
C18   C     C_R   0.063290 0.395981 0.420336 0.069297
C19   C     C_R   0.819199 0.589693 0.573242 0.062994
C20   C     C_R   0.180801 0.410307 0.426757 0.062995
C21   C     C_R   0.861584 0.458443 0.462456 0.119382
C22   C     C_R   0.138416 0.541557 0.537543 0.119382
C23   C     C_R   0.426041 0.489603 0.668180 0.849627
C24   C     C_R   0.573959 0.510397 0.331820 0.849628
C25   C     C_R   0.980705 0.462634 0.469960 -0.047516
C26   C     C_R   0.019295 0.537366 0.530040 -0.047516
C27   C     C_R   0.380766 0.471465 0.764815 -0.088998
C28   C     C_R   0.619234 0.528535 0.235185 -0.088998
C29   C     C_R   0.229515 0.404004 0.899666 0.110098
C30   C     C_R   0.770484 0.595996 0.100334 0.110098
C31   C     C_R   0.266262 0.414887 0.806408 -0.058755
C32   C     C_R   0.733738 0.585114 0.193592 -0.058754
C33   C     C_R   0.461137 0.503616 0.814941 -0.240194
C34   C     C_R   0.538863 0.496384 0.185059 -0.240195
C35   C     C_R   0.430491 0.484248 0.905758 0.052629
C36   C     C_R   0.569509 0.515752 0.094242 0.052629
C37   C     C_R   0.308346 0.448470 0.950417 0.039817
C38   C     C_R   0.691654 0.551531 0.049583 0.039817
C39   C     C_R   0.518453 0.502401 0.953301 0.046266
C40   C     C_R   0.481547 0.497600 0.046699 0.046266
Cu1   Cu    Cu3+1 0.386820 0.492450 0.493500 0.987975
Cu2   Cu    Cu3+1 0.613180 0.507550 0.506500 0.987975
H1    H     H_    0.243700 0.361322 0.388276 0.147967
H2    H     H_    0.756300 0.638678 0.611723 0.147967
H3    H     H_    0.452025 0.453340 0.217828 0.162740
H4    H     H_    0.547975 0.546660 0.782172 0.162740
H5    H     H_    0.324234 0.494603 0.160885 0.169687
H6    H     H_    0.675766 0.505397 0.839115 0.169687
H7    H     H_    0.636853 0.187680 0.523958 0.182171
H8    H     H_    0.363147 0.812320 0.476041 0.182171
H9    H     H_    0.295415 0.160828 0.469470 0.191711
H10   H     H_    0.704585 0.839172 0.530530 0.191712
N1    N     N_R   0.216750 0.481110 0.483710 -0.229118
N2    N     N_R   0.783250 0.518890 0.516290 -0.229117
O1    O     O_R   0.419950 0.645670 0.495380 -0.625435
O2    O     O_R   0.580050 0.354330 0.504620 -0.625434
O3    O     O_R   0.611110 0.658410 0.506370 -0.562852
O4    O     O_R   0.388890 0.341590 0.493630 -0.562852
O5    O     O_R   0.350820 0.490050 0.621260 -0.538265
O6    O     O_R   0.649180 0.509950 0.378740 -0.538264
O7    O     O_R   0.541970 0.502800 0.632250 -0.603294
O8    O     O_R   0.458030 0.497200 0.367750 -0.603294
I1    I     I_    0.094227 0.477473 0.119956 -0.222926
I2    I     I_    0.905773 0.522528 0.880044 -0.222925
I3    I     I_    0.970838 0.738256 0.659627 -0.250009
I4    I     I_    0.029162 0.261744 0.340373 -0.250010
C41   C     C_2   0.812713 0.639667 0.246151 0.501494
H11   H     H_    0.908417 0.636749 0.224698 0.126405
O9    O     O_2   0.772656 0.692650 0.311219 -0.523925
C42   C     C_2   0.187287 0.360334 0.753849 0.501494
H12   H     H_    0.091583 0.363253 0.775301 0.126406
O10   O     O_2   0.227344 0.307349 0.688782 -0.523925
I5    I     I_    0.077579 0.287082 0.954976 -0.202327
I6    I     I_    0.922420 0.712920 0.045024 -0.202327
I7    I     I_    0.802449 0.066319 0.548725 -0.264227
I8    I     I_    0.197551 0.933681 0.451275 -0.264227
C43   C     C_2   0.176300 0.603063 0.608571 0.506248
H13   H     H_    0.231906 0.678667 0.595154 0.072666
O11   O     O_2   0.140856 0.571128 0.684356 -0.528415
C44   C     C_2   0.823700 0.396937 0.391429 0.506248
H14   H     H_    0.768094 0.321332 0.404846 0.072665
O12   O     O_2   0.859143 0.428872 0.315644 -0.528414

loop_
_geom_bond_atom_site_label_1
_geom_bond_atom_site_label_2
_ccdc_geom_bond_type
C8    C13   A    
C5    C37   A    
C1    C8    S    
Cu1   Cu2   S    
C2    C7    S    
C12   H9    S    
C43   H13   S    
C27   C33   A    
C23   O5    A    
C5    I1    S    
C17   C26   A    
C35   C37   A    
C9    C16   A    
Cu1   O4    S    
C10   C15   A    
C21   N2    A    
C30   I6    S    
C14   H7    S    
C29   I5    S    
C15   C16   A    
C30   C38   A    
C6    I2    S    
Cu1   O1    S    
C11   H10   S    
Cu2   O2    S    
C10   I8    S    
C7    C14   A    
C6    C38   A    
C42   H12   S    
C23   C27   S    
C18   C20   A    
C28   C34   A    
C33   H4    S    
C18   C25   A    
Cu1   O8    S    
Cu2   O3    S    
C22   N1    A    
C43   O11   D    
C7    C12   A    
C27   C31   A    
C41   H11   S    
C36   C40   A    
Cu1   O5    S    
C4    C6    A    
Cu2   O6    S    
C39   C40   A    
C20   N1    A    
C25   C26   A    
C41   O9    D    
C35   C39   A    
C1    O3    A    
C4    C39   A    
C28   C32   A    
C24   O6    A    
C34   H3    S    
C9    C11   A    
Cu2   O7    S    
Cu1   N1    S    
C10   C12   A    
C32   C41   S    
C19   N2    A    
C44   O12   D    
C3    C40   A    
C13   C15   A    
C14   C16   A    
C20   H1    S    
C19   H2    S    
C4    H6    S    
C21   C25   A    
C24   O8    A    
C24   C28   S    
C22   C43   S    
C44   H14   S    
C3    C5    A    
C2    O4    A    
C18   I4    S    
C17   I3    S    
C31   C42   S    
C36   C38   A    
C1    O1    A    
C29   C31   A    
C2    O2    A    
Cu2   N2    S    
C30   C32   A    
C33   C35   A    
C8    C11   A    
C21   C44   S    
C3    H5    S    
C17   C19   A    
C34   C36   A    
C13   H8    S    
C23   O7    A    
C22   C26   A    
C29   C37   A    
C42   O10   D    
C9    I7    S    
