data_mof_unit_45284.cif
_audit_creation_date              2012-12-10T17:11:33-0500
_audit_creation_method            fapswitch 2.2
_symmetry_space_group_name_H-M    P1
_symmetry_Int_Tables_number       1
_space_group_crystal_system       triclinic
_cell_length_a                    15.080653
_cell_length_b                    12.948414
_cell_length_c                    11.661378
_cell_angle_alpha                 99.798196
_cell_angle_beta                  94.028605
_cell_angle_gamma                 90.641813
_cell_volume                      2237.74204756

loop_
_atom_site_label
_atom_site_type_symbol
_atom_type_description
_atom_site_fract_x
_atom_site_fract_y
_atom_site_fract_z
_atom_type_partial_charge
C1    C     C_R   0.502623 0.299290 0.478525 0.799404
C2    C     C_R   0.497375 0.700710 0.521475 0.799402
C3    C     C_R   0.032898 0.438157 0.286309 0.145233
C4    C     C_R   0.967102 0.562184 0.713637 0.145198
C5    C     C_R   0.489228 0.813907 0.533602 -0.101805
C6    C     C_R   0.510771 0.186093 0.466399 -0.101801
C7    C     C_R   0.570438 0.019975 0.380824 -0.183243
C8    C     C_R   0.429559 0.980025 0.619175 -0.183238
C9    C     C_R   0.564668 0.128654 0.383896 0.128786
C10   C     C_R   0.435331 0.871346 0.616106 0.128753
C11   C     C_R   0.466806 0.136301 0.544156 -0.278072
C12   C     C_R   0.533191 0.863699 0.455843 -0.278062
C13   C     C_R   0.474043 0.029194 0.541137 0.120477
C14   C     C_R   0.525953 0.970805 0.458862 0.120476
C15   C     C_R   0.414762 0.402758 0.021426 -0.342150
C16   C     C_R   0.585237 0.597242 0.978574 -0.342147
C17   C     C_R   0.423048 0.411956 0.143727 0.077807
C18   C     C_R   0.576952 0.588044 0.856273 0.077814
C19   C     C_R   0.536985 0.541857 0.157285 0.026693
C20   C     C_R   0.463015 0.458143 0.842715 0.026695
C21   C     C_R   0.531007 0.535276 0.034370 0.068747
C22   C     C_R   0.468993 0.464725 0.965630 0.068747
C23   C     C_R   0.328544 0.499989 0.500048 0.803159
C24   C     C_R   0.671455 0.500020 0.499952 0.803162
C25   C     C_R   0.820265 0.529481 0.605327 -0.250337
C26   C     C_R   0.179733 0.470648 0.394653 -0.250311
C27   C     C_R   0.768244 0.500008 0.500333 -0.061760
C28   C     C_R   0.231756 0.500060 0.499663 -0.061762
C29   C     C_R   0.808533 0.470423 0.396070 -0.241226
C30   C     C_R   0.191469 0.529692 0.603926 -0.241243
C31   C     C_R   0.900764 0.469945 0.395627 0.070486
C32   C     C_R   0.099237 0.530247 0.604353 0.070502
C33   C     C_R   0.953614 0.500282 0.500934 0.036022
C34   C     C_R   0.046386 0.499939 0.499036 0.036012
C35   C     C_R   0.913462 0.530864 0.607765 0.048441
C36   C     C_R   0.086537 0.469366 0.392200 0.048430
C37   C     C_R   0.940019 0.439257 0.290521 -0.209528
C38   C     C_R   0.059982 0.561003 0.709448 -0.209531
Cu1   Cu    Cu3+1 0.506660 0.507730 0.615930 0.928513
Cu2   Cu    Cu3+1 0.493340 0.492270 0.384070 0.928512
H1    H     H_    0.786981 0.552025 0.684583 0.146829
H2    H     H_    0.213014 0.448049 0.315399 0.146825
H3    H     H_    0.366321 0.347649 0.971042 0.135283
H4    H     H_    0.633678 0.652352 0.028958 0.135280
H5    H     H_    0.767973 0.446835 0.315027 0.149938
H6    H     H_    0.232030 0.553258 0.684976 0.149933
H7    H     H_    0.896755 0.416286 0.212156 0.156230
H8    H     H_    0.103246 0.583954 0.787823 0.156226
H9    H     H_    0.573572 0.818494 0.392779 0.144293
H10   H     H_    0.426425 0.181506 0.607219 0.144291
H11   H     H_    0.609763 0.972586 0.318753 0.145916
H12   H     H_    0.390234 0.027414 0.681246 0.145916
H13   H     H_    0.415550 0.404048 0.788970 0.117628
H14   H     H_    0.584450 0.595952 0.211030 0.117628
H15   H     H_    0.619050 0.636090 0.814159 0.121828
H16   H     H_    0.380949 0.363910 0.185841 0.121834
N1    N     N_R   0.516670 0.519360 0.790130 -0.179992
N2    N     N_R   0.483330 0.480640 0.209870 -0.179992
O1    O     O_R   0.504720 0.354460 0.582000 -0.575927
O2    O     O_R   0.495280 0.645540 0.418000 -0.575930
O3    O     O_R   0.493480 0.341410 0.386200 -0.599893
O4    O     O_R   0.506520 0.658590 0.613800 -0.599903
O5    O     O_R   0.375880 0.506510 0.597910 -0.595843
O6    O     O_R   0.624120 0.493490 0.402090 -0.595846
O7    O     O_R   0.364640 0.493450 0.402110 -0.586247
O8    O     O_R   0.635360 0.506550 0.597890 -0.586243
C39   C     C_3   0.075585 0.404473 0.171089 -0.400172
C40   C     C_3   0.011964 0.368568 0.063096 -0.862875
H17   H     H_    0.972184 0.298663 0.074063 0.253952
H18   H     H_    0.967184 0.432683 0.046451 0.255204
H19   H     H_    0.050984 0.346755 0.985654 0.246030
H20   H     H_    0.116547 0.471174 0.153523 0.202143
H21   H     H_    0.120205 0.338192 0.180349 0.200051
C41   C     C_3   0.924415 0.596082 0.828812 -0.400087
C42   C     C_3   0.988028 0.632628 0.936679 -0.862642
H22   H     H_    0.032901 0.568732 0.953805 0.255083
H23   H     H_    0.027710 0.702459 0.925206 0.253982
H24   H     H_    0.949003 0.654799 0.014067 0.245947
H25   H     H_    0.879608 0.662139 0.819266 0.200029
H26   H     H_    0.883645 0.529352 0.846710 0.202082
C43   C     C_3   0.383356 0.815238 0.696121 -0.357906
C44   C     C_3   0.313810 0.879960 0.764091 -0.879790
H27   H     H_    0.346364 0.944323 0.829076 0.249109
H28   H     H_    0.265819 0.912390 0.703572 0.257229
H29   H     H_    0.276324 0.828831 0.812114 0.247150
H30   H     H_    0.347515 0.746110 0.642390 0.202534
H31   H     H_    0.430929 0.786819 0.760281 0.221676
C45   C     C_3   0.616646 0.184760 0.303884 -0.357959
C46   C     C_3   0.686213 0.120049 0.235962 -0.879879
H32   H     H_    0.734188 0.087634 0.296504 0.257254
H33   H     H_    0.653685 0.055677 0.170976 0.249123
H34   H     H_    0.723703 0.171182 0.187954 0.247179
H35   H     H_    0.569081 0.213154 0.239702 0.221679
H36   H     H_    0.652467 0.253904 0.357606 0.202558

loop_
_geom_bond_atom_site_label_1
_geom_bond_atom_site_label_2
_ccdc_geom_bond_type
C16   C21   A    
Cu2   O2    S    
C27   C29   A    
C24   C27   S    
C6    C9    A    
C43   C44   S    
C8    C13   A    
C19   C21   A    
C1    O1    A    
C9    C45   S    
C2    O2    A    
Cu1   N1    S    
C7    C9    A    
C39   H20   S    
C15   C22   A    
C40   H17   S    
C31   C33   A    
C39   H21   S    
C32   C38   A    
C37   H7    S    
C8    H12   S    
C4    C41   S    
C43   H30   S    
C24   O8    A    
C17   N2    A    
C23   O5    A    
C4    C35   A    
C24   O6    A    
C41   H26   S    
C21   C22   A    
C12   H9    S    
C7    C14   A    
C19   N2    A    
C45   H36   S    
Cu2   N2    S    
C41   C42   S    
C39   C40   S    
C5    C12   A    
C25   H1    S    
C6    C11   A    
Cu2   O3    S    
C1    C6    S    
C29   H5    S    
C32   C34   A    
C42   H22   S    
C18   N1    A    
Cu1   O1    S    
C33   C34   A    
C16   C18   A    
C23   C28   S    
C46   H34   S    
C42   H23   S    
C17   H16   S    
C43   H31   S    
C18   H15   S    
C25   C35   A    
C19   H14   S    
C26   C36   A    
C20   C22   A    
C44   H28   S    
C41   H25   S    
Cu1   O8    S    
C2    C5    S    
C46   H33   S    
C46   H32   S    
Cu1   Cu2   S    
C26   H2    S    
C15   C17   A    
Cu1   O4    S    
C16   H4    S    
C45   H35   S    
C38   H8    S    
C30   H6    S    
C3    C39   S    
C4    C38   A    
C20   H13   S    
C1    O3    A    
C25   C27   A    
C44   H29   S    
Cu1   O5    S    
C10   C43   S    
C26   C28   A    
Cu2   O6    S    
Cu2   O7    S    
C23   O7    A    
C28   C30   A    
C12   C14   A    
C7    H11   S    
C5    C10   A    
C29   C31   A    
C11   H10   S    
C30   C32   A    
C11   C13   A    
C3    C36   A    
C40   H19   S    
C33   C35   A    
C34   C36   A    
C42   H24   S    
C15   H3    S    
C31   C37   A    
C45   C46   S    
C3    C37   A    
C8    C10   A    
C44   H27   S    
C40   H18   S    
C20   N1    A    
C13   C14   A    
C2    O4    A    
