data_mof_unit_51221.cif
_audit_creation_date              2012-12-11T18:42:22-0500
_audit_creation_method            fapswitch 2.2
_symmetry_space_group_name_H-M    P1
_symmetry_Int_Tables_number       1
_space_group_crystal_system       triclinic
_cell_length_a                    8.251544
_cell_length_b                    14.312484
_cell_length_c                    19.02359
_cell_angle_alpha                 97.580629
_cell_angle_beta                  91.35147
_cell_angle_gamma                 92.33984
_cell_volume                      2224.24313061

loop_
_atom_site_label
_atom_site_type_symbol
_atom_type_description
_atom_site_fract_x
_atom_site_fract_y
_atom_site_fract_z
_atom_type_partial_charge
Ba1   Ba    Ba6+2 0.843240 0.541620 0.463500 1.688683
Ba2   Ba    Ba6+2 0.346570 0.458460 0.536510 1.704740
C1    C     C_3   0.616991 0.884062 0.285243 -0.258773
C2    C     C_3   0.602057 0.785827 0.307262 0.352975
C3    C     C_3   0.554238 0.267329 0.314803 0.344457
C4    C     C_3   0.541404 0.206727 0.240744 0.254862
C5    C     C_3   0.101339 0.154982 0.733943 0.815929
C6    C     C_3   0.166504 0.055962 0.722382 -0.284143
C7    C     C_3   0.643475 0.222736 0.714963 0.316026
C8    C     C_3   0.600559 0.120586 0.723195 -0.284364
C9    C     C_R   0.005564 0.451095 0.049442 -0.079304
C10   C     C_R   0.912173 0.407974 0.100323 0.387457
C11   C     C_R   0.845174 0.378323 0.944118 0.113049
C12   C     C_3   0.143728 0.778384 0.264877 0.450241
C13   C     C_R   0.960045 0.445210 0.975587 0.044585
C14   C     C_R   0.766544 0.387288 0.880345 0.124665
C15   C     C_R   0.835234 0.446742 0.833647 0.020549
C16   C     C_R   0.980444 0.501426 0.857498 0.003551
C17   C     C_R   0.039977 0.501241 0.929812 0.037980
C18   C     C_R   0.773341 0.448865 0.763203 -0.033245
C19   C     C_R   0.868687 0.492743 0.715722 -0.287552
C20   C     C_R   0.013503 0.545249 0.736036 0.044954
C21   C     C_R   0.064429 0.556991 0.810541 -0.075451
C22   C     C_R   0.152715 0.501314 0.073687 -0.025367
C23   C     C_3   0.091358 0.773028 0.186309 0.481711
C24   C     C_R   0.208874 0.503636 0.146078 -0.038263
C25   C     C_R   0.121233 0.453241 0.193979 -0.062446
C26   C     C_R   0.985466 0.395717 0.166054 0.125756
C27   C     C_R   0.198007 0.616682 0.841757 0.336882
C28   C     C_R   0.266907 0.601426 0.906717 -0.090054
C29   C     C_R   0.185083 0.551191 0.954477 -0.014702
C30   C     C_R   0.242772 0.551369 0.026320 0.034095
C31   C     C_R   0.386113 0.602595 0.053298 -0.037083
C32   C     C_R   0.356185 0.554154 0.169815 0.010607
C33   C     C_R   0.442084 0.602482 0.122463 -0.010311
C34   C     C_3   0.182165 0.743572 0.603296 0.354970
C35   C     C_R   0.413733 0.555856 0.240509 0.020820
C36   C     C_R   0.315091 0.517296 0.289103 -0.255945
C37   C     C_R   0.171430 0.464581 0.267955 0.093906
C38   C     C_R   0.697026 0.938951 0.541465 -0.041003
C39   C     C_R   0.512656 0.800110 0.497653 0.043388
C40   C     C_R   0.372379 0.764749 0.458318 -0.280992
C41   C     C_R   0.268584 0.825437 0.429305 -0.018332
C42   C     C_R   0.311798 0.920942 0.433493 -0.133621
C43   C     C_R   0.455832 0.957391 0.469407 -0.015811
C44   C     C_R   0.556619 0.898051 0.503324 -0.036426
C45   C     C_3   0.191398 0.850445 0.615008 -0.352175
C46   C     C_R   0.637972 0.093815 0.509600 -0.026195
C47   C     C_R   0.740458 0.035282 0.543155 0.007886
C48   C     C_R   0.682106 0.190626 0.511810 0.031980
C49   C     C_R   0.825924 0.227499 0.547136 -0.241695
C50   C     C_R   0.931978 0.169176 0.577662 -0.005747
C51   C     C_R   0.888505 0.073015 0.575571 -0.144420
C52   C     C_R   0.496680 0.053446 0.472981 -0.023377
C53   C     C_3   0.965579 0.241361 0.374338 0.373450
C54   C     C_3   0.912514 0.141519 0.340205 -0.218345
C55   C     C_3   0.721143 0.693493 0.673710 0.298061
C56   C     C_3   0.779672 0.747250 0.744511 -0.307038
H1    H     H_    0.670873 0.786633 0.358198 0.085689
H2    H     H_    0.292735 0.875865 0.653108 0.158319
H3    H     H_    0.210759 0.879701 0.564941 0.043508
H4    H     H_    0.075022 0.876099 0.636529 0.105029
H5    H     H_    0.859977 0.282218 0.390393 0.021855
H6    H     H_    0.862400 0.142470 0.286293 0.135472
H7    H     H_    0.822893 0.108779 0.373152 0.061504
H8    H     H_    0.018215 0.095815 0.334536 0.178195
H9    H     H_    0.828612 0.670400 0.643624 0.010375
H10   H     H_    0.644701 0.630460 0.681882 0.017964
H11   H     H_    0.746557 0.904996 0.279799 0.180866
H12   H     H_    0.866664 0.804724 0.734376 0.164114
H13   H     H_    0.836324 0.699032 0.777854 0.079898
H14   H     H_    0.679120 0.781329 0.774023 0.179138
H15   H     H_    0.472145 0.768343 0.314901 -0.118892
H16   H     H_    0.564731 0.935784 0.326106 0.092383
H17   H     H_    0.659367 0.317632 0.315754 0.022433
H18   H     H_    0.522295 0.252482 0.199005 0.074976
H19   H     H_    0.655279 0.171650 0.228121 0.022038
H20   H     H_    0.550664 0.885317 0.233928 0.175171
H21   H     H_    0.197717 0.751903 0.153945 -0.066753
H22   H     H_    0.973565 0.152322 0.714620 -0.231810
H23   H     H_    0.278344 0.050897 0.754732 0.151329
H24   H     H_    0.073537 0.003995 0.736747 0.109287
H25   H     H_    0.197946 0.037869 0.666165 0.020321
H26   H     H_    0.757881 0.245216 0.745580 0.031804
H27   H     H_    0.660477 0.226392 0.658162 -0.001321
H28   H     H_    0.706218 0.076538 0.710446 0.078427
H29   H     H_    0.499037 0.093555 0.685797 0.106645
H30   H     H_    0.193191 0.709214 0.272890 -0.224819
H31   H     H_    0.565714 0.114782 0.778518 0.164788
H32   H     H_    0.827029 0.487340 0.660925 0.047601
H33   H     H_    0.554463 0.641739 0.138030 0.123634
H34   H     H_    0.355862 0.523322 0.344039 0.076929
H35   H     H_    0.810200 0.318505 0.969660 0.165557
H36   H     H_    0.381159 0.638111 0.921103 0.110946
H37   H     H_    0.241156 0.834513 0.276975 -0.000575
H38   H     H_    0.461805 0.643514 0.022529 0.103153
H39   H     H_    0.337289 0.690584 0.454966 0.061755
H40   H     H_    0.230603 0.967109 0.410474 0.101681
H41   H     H_    0.970695 0.027017 0.597434 0.046158
H42   H     H_    0.859935 0.301292 0.546995 0.056061
H43   H     H_    0.775656 0.896965 0.569399 0.099144
H44   H     H_    0.415759 0.095759 0.446569 0.132004
H45   H     H_    0.300601 0.716759 0.586929 0.002674
H46   H     H_    0.088118 0.720094 0.561456 0.046497
O1    O     O_2   0.887710 0.436190 0.327560 -0.470533
O2    O     O_3   0.629736 0.754490 0.639141 -0.612350
O3    O     O_3   0.011580 0.799380 0.308657 -0.561343
O4    O     O_2   0.301980 0.563840 0.672490 -0.437796
O5    O     O_3   0.054330 0.556590 0.583490 -0.527428
O6    O     O_3   0.555270 0.390630 0.635330 -0.465265
O7    O     O_3   0.142361 0.713458 0.667679 -0.544413
O8    O     O_3   0.637720 0.384870 0.467990 -0.468919
O9    O     O_3   0.145220 0.339960 0.601250 -0.455626
O10   O     O_2   0.271314 0.175676 0.567429 -0.491673
O11   O     O_3   0.199359 0.217742 0.700550 -0.570439
O12   O     O_3   0.135370 0.443490 0.416520 -0.501742
O13   O     O_3   0.551980 0.615210 0.532020 -0.481675
O14   O     O_2   0.394410 0.269100 0.474240 -0.466749
O15   O     O_3   0.576306 0.207387 0.366663 -0.640616
O16   O     O_2   0.427755 0.454356 0.756148 -0.478486
O17   O     O_3   0.517011 0.279836 0.739501 -0.524273
O18   O     O_3   0.634420 0.609440 0.364670 -0.491601
O19   O     O_2   0.758931 0.547301 0.243664 -0.420604
O20   O     O_3   0.054126 0.284788 0.324526 -0.590753
O21   O     O_3   0.666121 0.720744 0.254596 -0.564438
O22   O     O_2   0.795290 0.730930 0.525800 -0.488614
O23   O     O_3   0.044470 0.660110 0.398750 -0.469055
O24   O     O_2   0.933740 0.828075 0.441644 -0.498812
P1    P     P_3+3 0.061800 0.409390 0.339760 1.006412
P2    P     P_3+3 0.622760 0.718740 0.547830 0.979015
P3    P     P_3+3 0.066142 0.780674 0.395061 0.976736
P4    P     P_3+3 0.127890 0.590690 0.660240 1.050771
P5    P     P_3+3 0.133812 0.220619 0.612244 0.979018
P6    P     P_3+3 0.617694 0.606638 0.273641 1.032247
P7    P     P_3+3 0.577527 0.264726 0.454672 0.955551
P8    P     P_3+3 0.570759 0.395824 0.726648 1.004396
N1    N     N_3   0.064970 0.231819 0.436787 -0.533132
H47   H     H_    0.105179 0.298027 0.461634 0.228483
H48   H     H_    0.163375 0.191201 0.421346 0.204559
N2    N     N_3   0.410029 0.320575 0.327690 -0.471207
H49   H     H_    0.323859 0.274221 0.344436 0.247767
H50   H     H_    0.367669 0.337754 0.279288 0.113397
S1    S     S_3+6 0.379865 0.117878 0.231516 -0.012610
O25   O     O_2   0.360962 0.074615 0.298791 -0.294028
O26   O     O_2   0.417286 0.041882 0.172572 -0.212529
O27   O     O_3   0.205085 0.165773 0.211374 -0.461472
H51   H     H_    0.225872 0.192834 0.166963 0.341085
S2    S     S_3+6 0.101544 0.197241 0.826863 -0.041237
O28   O     O_2   0.940899 0.171356 0.856275 -0.289024
O29   O     O_2   0.234302 0.155674 0.866736 -0.256497
O30   O     O_3   0.130248 0.315049 0.838258 -0.540436
H52   H     H_    0.248026 0.326870 0.832748 0.369391
N3    N     N_3   0.616489 0.334602 0.865569 -0.465647
H53   H     H_    0.532868 0.359805 0.903046 0.203311
H54   H     H_    0.634013 0.263795 0.870665 0.229448
N4    N     N_3   0.935152 0.315471 0.199018 -0.444728
H55   H     H_    0.817272 0.322260 0.216264 0.214977
H56   H     H_    0.937449 0.255046 0.161667 0.217242
S3    S     S_3+6 0.257751 0.730018 0.820051 -0.041813
O31   O     O_2   0.114600 0.780662 0.797510 -0.270324
O32   O     O_2   0.335426 0.790216 0.883750 -0.238778
O33   O     O_3   0.395436 0.719818 0.756950 -0.480107
H57   H     H_    0.465742 0.670610 0.771018 0.298821
S4    S     S_3+6 0.697311 0.380585 0.091402 -0.139270
O34   O     O_2   0.667862 0.276447 0.068746 -0.302376
O35   O     O_2   0.617520 0.405128 0.160929 -0.348272
O36   O     O_3   0.607294 0.441423 0.032960 -0.568191
H58   H     H_    0.495617 0.412978 0.026389 0.362048
N5    N     N_3   0.958395 0.702639 0.168438 -0.400843
H59   H     H_    0.941946 0.691607 0.113227 0.197053
H60   H     H_    0.993341 0.638503 0.183070 0.145773
S5    S     S_3+6 0.031077 0.885223 0.164366 0.007338
O37   O     O_2   0.057915 0.960549 0.226935 -0.263336
O38   O     O_2   0.129929 0.910965 0.103848 -0.189223
O39   O     O_3   0.833467 0.878155 0.139499 -0.492126
H61   H     H_    0.805525 0.943885 0.135284 0.378383

loop_
_geom_bond_atom_site_label_1
_geom_bond_atom_site_label_2
_ccdc_geom_bond_type
O21   P6    S    
S1    O27   S    
C53   C54   S    
O24   P3    D    
Ba2   O5    S    
C32   C35   A    
N5    H59   S    
O6    P8    S    
S2    O30   S    
C17   C29   A    
C45   H4    S    
Ba2   O14   S    
C5    C6    S    
C27   S3    S    
C43   C44   A    
C51   H41   S    
C13   C17   A    
N1    H48   S    
Ba2   O8    S    
C24   C25   A    
C35   C36   A    
C2    O21   S    
C3    O15   S    
C34   H45   S    
C6    H24   S    
C21   C27   A    
S4    O34   D    
C1    H11   S    
C22   C24   A    
C16   C17   A    
Ba1   P1    S    
C48   P7    S    
Ba1   O8    S    
C28   C29   A    
C32   C33   A    
Ba2   O9    S    
C54   H8    S    
C56   H13   S    
O22   P2    D    
C38   C47   A    
C6    H25   S    
C36   H34   S    
C9    C22   A    
C15   C18   A    
C34   C45   S    
S1    O26   D    
Ba1   Ba2   S    
C39   C40   A    
C5    O11   S    
C1    H16   S    
Ba1   O18   S    
O18   P6    S    
Ba1   O5    S    
C45   H2    S    
Ba2   O12   S    
N4    H56   S    
C24   C32   A    
C8    H28   S    
O12   P1    S    
O39   H61   S    
C8    H31   S    
C25   C37   A    
C14   C15   A    
C53   H5    S    
Ba2   P4    S    
C39   C44   A    
S3    O32   D    
Ba1   O12   S    
N3    H54   S    
C7    C8    S    
S5    O39   S    
S4    O35   D    
C7    H27   S    
C46   C48   A    
C55   O2    S    
C38   H43   S    
C12   C23   S    
O9    P5    S    
C19   C20   A    
C50   P5    S    
N5    H60   S    
S3    O31   D    
C42   H40   S    
C55   H9    S    
Ba2   O13   S    
S5    O38   D    
C48   C49   A    
C19   H32   S    
C20   C21   A    
C36   C37   A    
C8    H29   S    
O27   H51   S    
O19   P6    D    
C6    H23   S    
N2    H49   S    
O3    P3    S    
Ba1   P2    S    
C40   H39   S    
O36   H58   S    
C46   C52   A    
C56   H12   S    
C4    H19   S    
O1    P1    D    
O11   P5    S    
O15   P7    S    
C16   C21   A    
C11   H35   S    
O16   P8    D    
N4    H55   S    
C3    H17   S    
C38   C44   A    
C41   C42   A    
C22   C30   A    
C45   H3    S    
C27   C28   A    
C10   S4    S    
C7    O17   S    
C29   C30   A    
O30   H52   S    
C34   O7    S    
C54   H6    S    
C15   C16   A    
S3    O33   S    
Ba1   O13   S    
C50   C51   A    
Ba1   O22   S    
O13   P2    S    
C18   P8    S    
C2    H15   S    
C23   S5    S    
C46   C47   A    
C10   C26   A    
C43   C52   A    
C9    C13   A    
C11   C13   A    
C40   C41   A    
O8    P7    S    
C1    C2    S    
C31   H38   S    
C12   O3    S    
C12   H37   S    
C14   N3    S    
C42   C43   A    
C3    N2    S    
O33   H57   S    
C23   N5    S    
C49   H42   S    
O2    P2    S    
C53   O20   S    
Ba2   O6    S    
C20   P4    S    
C23   H21   S    
C52   H44   S    
S4    O36   S    
Ba1   O23   S    
S2    O29   D    
C5    S2    S    
C9    C10   A    
C4    H18   S    
N2    H50   S    
C37   P1    S    
N1    H47   S    
O5    P4    S    
C53   N1    S    
C39   P2    S    
C34   H46   S    
C30   C31   A    
C41   P3    S    
S1    O25   D    
N3    H53   S    
C12   H30   S    
C49   C50   A    
C28   H36   S    
C56   H14   S    
C55   C56   S    
C3    C4    S    
C47   C51   A    
C2    H1    S    
Ba2   O4    S    
C31   C33   A    
O10   P5    D    
O20   P1    S    
S2    O28   D    
O17   P8    S    
O23   P3    S    
O4    P4    D    
C7    H26   S    
S5    O37   D    
O7    P4    S    
C18   C19   A    
C11   C14   A    
C25   C26   A    
C26   N4    S    
C35   P6    S    
C55   H10   S    
C4    S1    S    
C1    H20   S    
O14   P7    D    
C54   H7    S    
Ba1   O1    S    
C5    H22   S    
C33   H33   S    
