data_mof_unit_26367.cif
_audit_creation_date              2012-12-10T17:23:40-0500
_audit_creation_method            fapswitch 2.2
_symmetry_space_group_name_H-M    P1
_symmetry_Int_Tables_number       1
_space_group_crystal_system       triclinic
_cell_length_a                    9.596158
_cell_length_b                    10.838711
_cell_length_c                    17.194885
_cell_angle_alpha                 92.070846
_cell_angle_beta                  87.044477
_cell_angle_gamma                 90.098211
_cell_volume                      1784.89434883

loop_
_atom_site_label
_atom_site_type_symbol
_atom_type_description
_atom_site_fract_x
_atom_site_fract_y
_atom_site_fract_z
_atom_type_partial_charge
C1    C     C_R   0.500040 0.737449 0.494688 0.800726
C2    C     C_R   0.368169 0.531640 0.780258 -0.206015
C3    C     C_R   0.424368 0.519134 0.138915 -0.336205
C4    C     C_R   0.409356 0.530418 0.220843 0.475722
C5    C     C_R   0.654060 0.470784 0.224929 -0.299634
C6    C     C_R   0.664904 0.456469 0.144323 -0.179391
C7    C     C_R   0.549090 0.477751 0.100976 0.004785
C8    C     C_2   0.449830 0.423814 0.976086 -0.253447
C9    C     C_2   0.560588 0.464267 0.014992 0.468480
C10   C     C_R   0.526155 0.502275 0.263984 -0.086315
C11   C     C_R   0.249477 0.886279 0.456428 -0.285442
C12   C     C_R   0.482726 0.495321 0.649644 0.833060
C13   C     C_R   0.120804 0.947976 0.466165 0.438797
C14   C     C_R   0.112756 0.056027 0.512374 -0.286717
C15   C     C_R   0.234477 0.111583 0.540031 0.405929
C16   C     C_R   0.366646 0.062122 0.513863 0.015540
C17   C     C_R   0.371409 0.938483 0.486401 -0.015649
C18   C     C_R   0.498237 0.872316 0.490239 -0.079201
C19   C     C_R   0.622602 0.937079 0.500744 -0.212225
C20   C     C_R   0.621481 0.064484 0.508290 -0.225666
C21   C     C_R   0.494523 0.128775 0.514032 -0.078126
C22   C     C_R   0.866104 0.331774 0.399943 -0.320251
C23   C     C_R   0.498558 0.262983 0.506603 0.802026
C24   C     C_R   0.942240 0.244165 0.354194 0.360967
C25   C     C_R   0.086667 0.250425 0.350309 0.348423
C26   C     C_R   0.153701 0.336295 0.397321 -0.257968
C27   C     C_R   0.079517 0.419745 0.449389 0.152436
C28   C     C_R   0.930293 0.419150 0.449712 0.040474
C29   C     C_R   0.920211 0.579291 0.547812 0.553784
C30   C     C_R   0.070333 0.577469 0.547544 -0.165842
C31   C     C_R   0.517159 0.502583 0.349733 0.775729
C32   C     C_R   0.473811 0.474487 0.732926 -0.058944
C33   C     C_R   0.563141 0.388562 0.764011 -0.347085
C34   C     C_R   0.550885 0.363662 0.843953 0.543567
C35   C     C_R   0.450064 0.428501 0.891263 0.132049
C36   C     C_R   0.356826 0.509109 0.859256 -0.288675
Cu1   Cu    Cu3+1 0.359340 0.500010 0.500010 0.972228
Cu2   Cu    Cu3+1 0.640660 0.499990 0.499990 0.951959
H1    H     H_    0.637549 0.338591 0.725346 0.138232
H2    H     H_    0.763578 0.428007 0.115864 0.161548
H3    H     H_    0.254046 0.799798 0.423474 0.184424
H4    H     H_    0.011481 0.097155 0.526290 0.149834
H5    H     H_    0.720498 0.112451 0.510052 0.181116
H6    H     H_    0.757348 0.325142 0.395527 0.233824
H7    H     H_    0.126323 0.636517 0.586987 0.141601
H8    H     H_    0.746010 0.455290 0.257021 0.161441
H9    H     H_    0.340711 0.544860 0.103477 0.132255
H10   H     H_    0.296440 0.595576 0.756344 0.151511
H11   H     H_    0.351327 0.402592 0.006632 0.100931
N1    N     N_R   0.852190 0.498790 0.499250 -0.212506
N2    N     N_R   0.148060 0.498710 0.499220 -0.179766
O1    O     O_R   0.381190 0.680360 0.500010 -0.589241
O2    O     O_R   0.618760 0.680340 0.500000 -0.556798
O3    O     O_R   0.367440 0.500030 0.613600 -0.576531
O4    O     O_R   0.605010 0.500010 0.613590 -0.537135
O5    O     O_R   0.381240 0.319660 0.500000 -0.545799
O6    O     O_R   0.618810 0.319640 0.499990 -0.619532
O7    O     O_R   0.394990 0.499990 0.386410 -0.560930
O8    O     O_R   0.632560 0.499970 0.386400 -0.617606
H12   H     H_    0.721544 0.889551 0.501876 0.203945
O9    O     O_3   0.998335 0.897733 0.439577 -0.610303
C37   C     C_3   0.014169 0.866934 0.359044 0.085032
H13   H     H_    0.068830 0.941488 0.326559 0.180587
H14   H     H_    0.074301 0.779787 0.349439 0.140913
C38   C     C_3   0.870493 0.849495 0.325810 -0.350141
H15   H     H_    0.797732 0.920391 0.352199 0.267390
H16   H     H_    0.877980 0.860935 0.261748 0.178742
C39   C     C_3   0.811014 0.722569 0.342341 -0.769549
H17   H     H_    0.870696 0.650181 0.307926 0.224376
H18   H     H_    0.700498 0.719096 0.326332 0.235855
H19   H     H_    0.817320 0.704004 0.404915 0.294821
O10   O     O_3   0.226834 0.210903 0.593750 -0.565290
C40   C     C_3   0.134901 0.187431 0.658712 0.073599
H20   H     H_    0.191569 0.207013 0.712559 0.175267
H21   H     H_    0.102002 0.089159 0.662474 0.079679
C41   C     C_3   0.005192 0.269890 0.658047 -0.335313
H22   H     H_    0.980013 0.288356 0.597235 0.228337
H23   H     H_    0.914615 0.220900 0.685025 0.153863
C42   C     C_3   0.024592 0.392472 0.702542 -0.844255
H24   H     H_    0.041919 0.377014 0.764658 0.236415
H25   H     H_    0.929449 0.449806 0.699375 0.244053
H26   H     H_    0.115772 0.442585 0.677177 0.286346
O11   O     O_3   0.836731 0.652258 0.599895 -0.581677
C43   C     C_3   0.900033 0.762075 0.627775 0.025437
H27   H     H_    0.818678 0.835133 0.631469 0.172436
H28   H     H_    0.984190 0.797758 0.587711 0.148267
C44   C     C_3   0.948731 0.745170 0.710249 -0.369864
H29   H     H_    0.857178 0.722893 0.749460 0.236384
H30   H     H_    0.023487 0.667328 0.710606 0.207363
C45   C     C_3   0.018869 0.861474 0.741823 -0.942095
H31   H     H_    0.114686 0.881376 0.705430 0.253213
H32   H     H_    0.048862 0.847561 0.802393 0.259730
H33   H     H_    0.946266 0.941240 0.742182 0.253425
O12   O     O_3   0.878841 0.139516 0.323991 -0.602820
C46   C     C_3   0.796044 0.165963 0.261128 0.024328
H34   H     H_    0.825536 0.098394 0.213047 0.165162
H35   H     H_    0.814814 0.258519 0.236938 0.111067
C47   C     C_3   0.641469 0.147979 0.284875 -0.328405
H36   H     H_    0.628144 0.064522 0.320142 0.232812
H37   H     H_    0.601495 0.228417 0.320951 0.195462
C48   C     C_3   0.553519 0.132210 0.214034 -0.913233
H38   H     H_    0.557927 0.216414 0.179198 0.269986
H39   H     H_    0.444377 0.115732 0.234651 0.271649
H40   H     H_    0.589725 0.051416 0.176858 0.251136
O13   O     O_3   0.290459 0.580853 0.260338 -0.614211
C49   C     C_3   0.164672 0.557652 0.222530 0.053804
H41   H     H_    0.081861 0.540969 0.268431 0.147179
H42   H     H_    0.167982 0.471783 0.184896 0.111074
C50   C     C_3   0.122332 0.670682 0.177481 -0.342520
H43   H     H_    0.097217 0.748983 0.218641 0.203323
H44   H     H_    0.209208 0.702444 0.138195 0.215036
C51   C     C_3   0.996013 0.642940 0.129509 -0.970020
H45   H     H_    0.019926 0.566430 0.086170 0.252783
H46   H     H_    0.968084 0.726339 0.098022 0.253981
H47   H     H_    0.905331 0.616982 0.168046 0.266294
O14   O     O_3   0.164304 0.166167 0.304057 -0.611114
C52   C     C_3   0.164159 0.200169 0.225258 0.062416
H48   H     H_    0.260106 0.254460 0.211511 0.148356
H49   H     H_    0.073065 0.258072 0.211521 0.104649
C53   C     C_3   0.162865 0.083500 0.172461 -0.329800
H50   H     H_    0.250652 0.021936 0.184958 0.218222
H51   H     H_    0.064387 0.031962 0.184327 0.209591
C54   C     C_3   0.174233 0.115165 0.086620 -0.939228
H52   H     H_    0.085167 0.174239 0.072431 0.252652
H53   H     H_    0.172280 0.028901 0.049840 0.256550
H54   H     H_    0.273626 0.164536 0.073056 0.266369
H55   H     H_    0.263973 0.331054 0.391522 0.225249
O15   O     O_3   0.687548 0.483946 0.974581 -0.613410
C55   C     C_3   0.728176 0.609296 0.981587 0.014951
H56   H     H_    0.843899 0.611944 0.975205 0.171997
H57   H     H_    0.698853 0.654140 0.039461 0.148514
C56   C     C_3   0.669376 0.682978 0.916329 -0.343382
H58   H     H_    0.695928 0.635359 0.859149 0.226496
H59   H     H_    0.553967 0.688158 0.924726 0.219043
C57   C     C_3   0.728265 0.813863 0.915709 -0.931444
H60   H     H_    0.699972 0.864137 0.971729 0.256193
H61   H     H_    0.684411 0.864460 0.867547 0.264996
H62   H     H_    0.843660 0.811470 0.906544 0.257675
H63   H     H_    0.278667 0.558125 0.896118 0.151779
O16   O     O_3   0.623231 0.269538 0.877407 -0.606421
C58   C     C_3   0.763788 0.261106 0.849486 0.085465
H64   H     H_    0.811825 0.354136 0.842652 0.164244
H65   H     H_    0.769618 0.207713 0.793155 0.124865
C59   C     C_3   0.845001 0.190730 0.908003 -0.299975
H66   H     H_    0.835257 0.239647 0.965998 0.235310
H67   H     H_    0.799642 0.096864 0.913809 0.222465
C60   C     C_3   0.999220 0.178674 0.882642 -0.960009
H68   H     H_    0.011723 0.135855 0.823081 0.255806
H69   H     H_    0.052002 0.119137 0.923284 0.264818
H70   H     H_    0.050040 0.270763 0.883858 0.260499

loop_
_geom_bond_atom_site_label_1
_geom_bond_atom_site_label_2
_ccdc_geom_bond_type
C8    C9    D    
C57   H62   S    
C30   N2    A    
C16   C21   A    
C40   H20   S    
C30   H7    S    
C46   H34   S    
C43   C44   S    
C44   H29   S    
O15   C55   S    
C52   H49   S    
C51   H46   S    
C46   C47   S    
C54   H52   S    
C15   O10   S    
C26   C27   A    
C29   C30   A    
O13   C49   S    
C31   O7    A    
C60   H69   S    
C43   H28   S    
C18   C19   A    
C3    C7    A    
C58   H65   S    
C5    C6    A    
Cu1   N2    S    
C54   H53   S    
C49   H41   S    
C15   C16   A    
O14   C52   S    
C2    C32   A    
C34   C35   A    
C31   O8    A    
C1    O2    A    
C37   H14   S    
C60   H68   S    
C39   H17   S    
Cu1   O5    S    
C28   N1    A    
C10   C31   S    
C22   H6    S    
Cu2   O4    S    
C19   C20   A    
C27   N2    A    
C56   H58   S    
C38   H16   S    
C41   C42   S    
Cu1   O7    S    
C53   C54   S    
C14   H4    S    
C55   C56   S    
C57   H60   S    
C48   H39   S    
C22   C28   A    
C13   C14   A    
C12   C32   S    
C40   H21   S    
O12   C46   S    
C59   C60   S    
C51   H45   S    
C1    O1    A    
C53   H51   S    
C17   C18   A    
C29   N1    A    
O16   C58   S    
C9    O15   S    
Cu2   N1    S    
C48   H38   S    
C23   O5    A    
C60   H70   S    
C24   C25   A    
C59   H67   S    
C52   C53   S    
C42   H25   S    
Cu1   O1    S    
C16   C17   A    
C54   H54   S    
C2    H10   S    
C25   C26   A    
C42   H24   S    
C35   C36   A    
Cu1   Cu2   S    
C24   O12   S    
Cu2   O6    S    
C25   O14   S    
C45   H32   S    
O11   C43   S    
C38   C39   S    
C37   H13   S    
C33   C34   A    
C1    C18   S    
C39   H19   S    
C33   H1    S    
C43   H27   S    
C23   O6    A    
Cu1   O3    S    
C56   H59   S    
C38   H15   S    
C48   H40   S    
C47   H37   S    
C21   C23   S    
C40   C41   S    
C22   C24   A    
C50   C51   S    
C4    C10   A    
C3    C4    A    
C20   H5    S    
C53   H50   S    
C45   H33   S    
C55   H56   S    
C4    O13   S    
C2    C36   A    
C57   H61   S    
C11   C17   A    
C37   C38   S    
C41   H23   S    
O10   C40   S    
C34   O16   S    
C42   H26   S    
C46   H35   S    
C29   O11   S    
C6    C7    A    
C58   C59   S    
C19   H12   S    
C47   C48   S    
C5    H8    S    
C59   H66   S    
C32   C33   A    
C44   H30   S    
C5    C10   A    
C58   H64   S    
C41   H22   S    
C11   C13   A    
C45   H31   S    
Cu2   O2    S    
C49   H42   S    
C56   C57   S    
C50   H44   S    
C3    H9    S    
C11   H3    S    
C6    H2    S    
C26   H55   S    
O9    C37   S    
C36   H63   S    
C12   O4    A    
Cu2   O8    S    
C7    C9    S    
C13   O9    S    
C20   C21   A    
C39   H18   S    
C47   H36   S    
C44   C45   S    
C50   H43   S    
C27   C28   A    
C14   C15   A    
C52   H48   S    
C8    H11   S    
C8    C35   S    
C51   H47   S    
C12   O3    A    
C55   H57   S    
C49   C50   S    
