data_mof_unit_40966.cif
_audit_creation_date              2012-12-10T17:04:29-0500
_audit_creation_method            fapswitch 2.2
_symmetry_space_group_name_H-M    P1
_symmetry_Int_Tables_number       1
_space_group_crystal_system       triclinic
_cell_length_a                    14.870904
_cell_length_b                    10.73653
_cell_length_c                    10.036622
_cell_angle_alpha                 89.96774
_cell_angle_beta                  90.157157
_cell_angle_gamma                 90.112736
_cell_volume                      1602.45682835

loop_
_atom_site_label
_atom_site_type_symbol
_atom_type_description
_atom_site_fract_x
_atom_site_fract_y
_atom_site_fract_z
_atom_type_partial_charge
C1    C     C_R   0.497624 0.262717 0.499881 0.926320
C2    C     C_R   0.186008 0.389124 0.498868 -0.228250
C3    C     C_R   0.231911 0.501413 0.498846 -0.075409
C4    C     C_R   0.327162 0.499943 0.499786 0.877471
C5    C     C_R   0.187875 0.615321 0.496320 -0.096887
C6    C     C_2   0.493639 0.932951 0.387852 -0.140122
C7    C     C_2   0.509512 0.868943 0.499476 -0.303892
C8    C     C_2   0.498910 0.066903 0.387305 -0.144246
C9    C     C_2   0.488173 0.131198 0.499862 -0.319044
C10   C     C_2   0.549073 0.575141 0.925117 -0.101061
C11   C     C_2   0.552165 0.571067 0.075140 -0.109927
C12   C     C_R   0.906220 0.619524 0.506779 -0.068554
C13   C     C_R   0.501781 0.737291 0.499880 0.928205
C14   C     C_R   0.672833 0.500034 0.500204 0.875253
C15   C     C_R   0.812456 0.615389 0.503249 -0.108326
C16   C     C_R   0.768082 0.501493 0.501082 -0.075928
C17   C     C_R   0.813650 0.389193 0.501161 -0.221332
C18   C     C_R   0.906542 0.389820 0.500642 0.133324
C19   C     C_R   0.953256 0.505138 0.501136 0.005095
C20   C     C_R   0.953093 0.276880 0.499899 -0.139891
C21   C     C_R   0.046222 0.276861 0.500157 -0.138816
C22   C     C_R   0.093115 0.389783 0.499245 0.135508
C23   C     C_R   0.046747 0.505119 0.498486 0.004997
C24   C     C_R   0.094128 0.619485 0.492647 -0.071782
C25   C     C_R   0.047165 0.734120 0.487199 0.334848
C26   C     C_R   0.953532 0.734145 0.511957 0.336666
H1    H     H_    0.530631 0.911939 0.592142 0.152319
H2    H     H_    0.222831 0.301891 0.499645 0.144708
H3    H     H_    0.227988 0.699335 0.501555 0.193776
H4    H     H_    0.477771 0.886949 0.294237 0.179251
H5    H     H_    0.772585 0.699406 0.497875 0.192052
H6    H     H_    0.081648 0.188769 0.500628 0.222900
H7    H     H_    0.217403 0.913746 0.306864 0.378754
H8    H     H_    0.784503 0.914189 0.693156 0.376524
H9    H     H_    0.511271 0.112531 0.292411 0.180035
H10   H     H_    0.470011 0.088428 0.593911 0.158531
H11   H     H_    0.591055 0.643657 0.875666 0.172124
H12   H     H_    0.464164 0.432631 0.897660 0.168563
H13   H     H_    0.599792 0.632104 0.124865 0.169756
H14   H     H_    0.453002 0.447478 0.102060 0.169849
H15   H     H_    0.776567 0.301971 0.500581 0.145548
H16   H     H_    0.917398 0.188803 0.499615 0.222483
N1    N     N_2   0.500970 0.501330 0.852150 -0.190959
N2    N     N_2   0.500990 0.501360 0.147810 -0.192787
O1    O     O_R   0.499990 0.319060 0.613040 -0.617271
O2    O     O_2   0.149600 0.931796 0.550952 -0.305904
O3    O     O_3   0.181042 0.836993 0.317507 -0.566090
O4    O     O_2   0.962535 0.963605 0.626346 -0.232071
O5    O     O_2   0.851534 0.931696 0.447956 -0.306864
O6    O     O_3   0.820121 0.837085 0.681691 -0.572875
O7    O     O_R   0.500010 0.319100 0.386900 -0.615513
O8    O     O_R   0.367830 0.499950 0.613080 -0.606943
O9    O     O_R   0.367860 0.499990 0.386940 -0.600815
O10   O     O_R   0.499990 0.680900 0.613100 -0.614776
O11   O     O_R   0.500010 0.680940 0.386960 -0.614434
O12   O     O_R   0.632140 0.500010 0.613060 -0.600262
O13   O     O_R   0.632170 0.500050 0.386920 -0.609709
O14   O     O_2   0.038868 0.963442 0.372235 -0.232159
S1    S     S_3+6 0.103620 0.872461 0.433407 0.048841
S2    S     S_3+6 0.897499 0.872517 0.565530 0.047029
Zn1   Zn    Zn3+2 0.499980 0.499970 0.650990 0.973383
Zn2   Zn    Zn3+2 0.500020 0.500030 0.349010 0.968785

loop_
_geom_bond_atom_site_label_1
_geom_bond_atom_site_label_2
_ccdc_geom_bond_type
C2    C22   A    
C9    H10   S    
C19   C23   A    
C23   C24   A    
C15   H5    S    
C6    C7    D    
O10   Zn1   S    
C4    O9    A    
C2    H2    S    
O9    Zn2   S    
C7    H1    S    
C14   O12   A    
C12   C15   A    
C7    C13   S    
O6    S2    S    
C2    C3    A    
C10   N1    D    
C5    H3    S    
O5    S2    D    
C11   N2    D    
C21   C22   A    
C24   C25   A    
C11   H13   S    
C20   H16   S    
C1    O7    A    
C1    O1    A    
C16   C17   A    
C5    C24   A    
C4    O8    A    
C10   H11   S    
O7    Zn2   S    
C12   C19   A    
O1    Zn1   S    
C6    H4    S    
O4    S2    D    
C18   C20   A    
O8    Zn1   S    
H7    O3    S    
C21   H6    S    
C14   C16   S    
H8    O6    S    
C17   H15   S    
C10   C11   S    
O13   Zn2   S    
O3    S1    S    
C3    C4    S    
O11   Zn2   S    
C3    C5    A    
H14   N2    S    
C1    C9    S    
C20   C21   A    
N1    Zn1   S    
O2    S1    D    
C17   C18   A    
C13   O10   A    
C14   O13   A    
C22   C23   A    
C18   C19   A    
C6    C8    S    
C25   S1    S    
N2    Zn2   S    
C25   C26   A    
O12   Zn1   S    
O14   S1    D    
C26   S2    S    
H12   N1    S    
C15   C16   A    
C12   C26   A    
C8    C9    D    
C13   O11   A    
C8    H9    S    
