data_mof_unit_52128.cif
_audit_creation_date              2012-10-26T17:12:30-0400
_audit_creation_method            fapswitch 2.2
_symmetry_space_group_name_H-M    P1
_symmetry_Int_Tables_number       1
_space_group_crystal_system       triclinic
_cell_length_a                    16.907586
_cell_length_b                    16.859688
_cell_length_c                    16.933933
_cell_angle_alpha                 68.136824
_cell_angle_beta                  68.073135
_cell_angle_gamma                 68.142268
_cell_volume                      4000.44997646

loop_
_atom_site_label
_atom_site_type_symbol
_atom_type_description
_atom_site_fract_x
_atom_site_fract_y
_atom_site_fract_z
_atom_type_partial_charge
C1    C     C_R   0.021563 0.829686 0.566938 0.570516
C2    C     C_R   0.012176 0.569689 0.832311 0.580545
C3    C     C_R   0.167427 0.988471 0.430128 0.559141
C4    C     C_R   0.829766 0.021200 0.567071 0.570667
C5    C     C_R   0.483156 0.970763 0.731077 -0.102820
C6    C     C_R   0.538898 0.948411 0.293399 -0.110388
C7    C     C_R   0.058287 0.705202 0.460462 -0.109518
C8    C     C_R   0.037126 0.266076 0.512777 -0.105672
C9    C     C_R   0.708610 0.454208 0.058312 -0.116537
C10   C     C_R   0.255831 0.501195 0.062931 -0.104325
C11   C     C_R   0.267960 0.032016 0.515396 -0.105106
C12   C     C_R   0.989176 0.167143 0.429892 0.560060
C13   C     C_R   0.706070 0.054183 0.461010 -0.109436
C14   C     C_R   0.532739 0.297886 0.954102 -0.110249
C15   C     C_R   0.453466 0.702680 0.081953 -0.116606
C16   C     C_R   0.951983 0.538548 0.292798 -0.116824
C17   C     C_R   0.975041 0.481009 0.729677 -0.103311
C18   C     C_R   0.547766 0.007756 0.548295 0.045984
C19   C     C_R   0.450976 0.995300 0.451242 0.045627
C20   C     C_R   0.012919 0.546052 0.546932 0.046046
C21   C     C_R   0.000540 0.449547 0.449490 0.045703
C22   C     C_R   0.535431 0.536753 0.048161 0.045696
C23   C     C_R   0.829291 0.566237 0.022789 0.564413
C24   C     C_R   0.440255 0.444289 0.024153 0.044503
C25   C     C_R   0.585633 0.011280 0.457866 0.011886
C26   C     C_R   0.409444 0.005300 0.537465 0.012398
C27   C     C_R   0.003942 0.459154 0.587680 0.011990
C28   C     C_R   0.997100 0.540277 0.412145 0.011431
C29   C     C_R   0.442850 0.571447 0.061125 0.013190
C30   C     C_R   0.532740 0.411087 0.010832 0.012478
C31   C     C_R   0.541506 0.991863 0.413601 0.011906
C32   C     C_R   0.461287 0.998133 0.589477 0.011720
C33   C     C_R   0.394172 0.522129 0.053968 0.013105
C34   C     C_R   0.165796 0.429060 0.992065 0.573506
C35   C     C_R   0.577886 0.452311 0.032566 0.012644
C36   C     C_R   0.011289 0.407466 0.535334 0.012099
C37   C     C_R   0.016605 0.584207 0.456530 0.011930
C38   C     C_R   0.431007 0.976684 0.681611 -0.138392
C39   C     C_R   0.585438 0.964757 0.335853 -0.135584
C40   C     C_R   0.043376 0.662413 0.413202 -0.136368
C41   C     C_R   0.033065 0.314946 0.564723 -0.139097
C42   C     C_R   0.662698 0.409463 0.044661 -0.140479
C43   C     C_R   0.301115 0.547238 0.075802 -0.132102
C44   C     C_R   0.317171 0.026831 0.567406 -0.138140
C45   C     C_R   0.569811 0.011752 0.832485 0.573952
C46   C     C_R   0.663543 0.038321 0.414227 -0.135442
C47   C     C_R   0.578249 0.340553 0.971456 -0.132976
C48   C     C_R   0.402780 0.653312 0.082557 -0.132726
C49   C     C_R   0.969423 0.584733 0.334880 -0.141403
C50   C     C_R   0.982333 0.428497 0.679767 -0.138914
C51   C     C_R   0.562375 0.997547 0.690657 -0.024450
C52   C     C_R   0.445073 0.970701 0.319588 -0.030056
C53   C     C_R   0.034513 0.678917 0.554156 -0.030810
C54   C     C_R   0.008326 0.307622 0.435028 -0.023900
C55   C     C_R   0.677260 0.547034 0.047357 -0.028166
C56   C     C_R   0.432829 0.979076 0.170202 0.560938
C57   C     C_R   0.300972 0.429950 0.024193 -0.023747
C58   C     C_R   0.308785 0.004566 0.436699 -0.023170
C59   C     C_R   0.679835 0.031317 0.554705 -0.030562
C60   C     C_R   0.439528 0.319691 0.980838 -0.030766
C61   C     C_R   0.546864 0.674636 0.056509 -0.031618
C62   C     C_R   0.973709 0.444517 0.318756 -0.031705
C63   C     C_R   0.000757 0.560996 0.689788 -0.024291
C64   C     C_R   0.610784 0.004382 0.739850 -0.010750
C65   C     C_R   0.393122 0.978926 0.265121 -0.021204
C66   C     C_R   0.023442 0.734228 0.606446 -0.020613
C67   C     C_R   0.432322 0.170310 0.980045 0.567841
C68   C     C_R   0.998572 0.259159 0.387905 -0.011899
C69   C     C_R   0.732055 0.601877 0.031844 -0.017798
C70   C     C_R   0.255911 0.385835 0.005232 -0.011478
C71   C     C_R   0.259847 0.996679 0.388786 -0.012988
C72   C     C_R   0.734608 0.022071 0.606712 -0.021405
C73   C     C_R   0.390391 0.264729 0.983720 -0.023087
C74   C     C_R   0.601931 0.731069 0.035117 -0.020300
C75   C     C_R   0.980321 0.392737 0.264669 -0.021981
C76   C     C_R   0.005809 0.610197 0.739440 -0.011439
C77   C     C_R   0.700534 0.002086 0.699981 0.187841
C78   C     C_R   0.565812 0.828943 0.024439 0.558783
C79   C     C_R   0.299750 0.998693 0.299223 0.184911
C80   C     C_R   0.002764 0.700285 0.699733 0.188525
C81   C     C_R   0.999704 0.299172 0.298601 0.185857
C82   C     C_R   0.694769 0.694634 0.013724 0.182032
C83   C     C_R   0.297062 0.297453 0.002355 0.191462
C84   C     C_R   0.596705 0.012611 0.597961 0.025101
C85   C     C_R   0.401546 0.989851 0.402419 0.024788
C86   C     C_R   0.016578 0.595304 0.597039 0.025156
C87   C     C_R   0.993965 0.400504 0.400940 0.024339
C88   C     C_R   0.586679 0.586480 0.050157 0.028759
C89   C     C_R   0.979361 0.432720 0.170171 0.553023
C90   C     C_R   0.393568 0.398052 0.009546 0.027398
Cl1   Cl    Cl    0.772520 0.955114 0.769983 -0.424323
Cl2   Cl    Cl    0.229666 0.045493 0.227371 -0.434337
Cl3   Cl    Cl    0.954171 0.772605 0.769826 -0.422362
Cl4   Cl    Cl    0.045030 0.228928 0.226687 -0.437441
Cl5   Cl    Cl    0.764983 0.765580 0.946637 -0.435051
Cl6   Cl    Cl    0.227858 0.225083 0.041541 -0.425647
Cu1   Cu    Cu3+1 0.995180 0.995180 0.424630 1.038512
Cu2   Cu    Cu3+1 0.004820 0.004820 0.575370 1.037803
Cu3   Cu    Cu3+1 0.995180 0.424630 0.995180 1.035016
Cu4   Cu    Cu3+1 0.004820 0.575370 0.004820 1.033045
Cu5   Cu    Cu3+1 0.424630 0.995180 0.995180 1.041137
Cu6   Cu    Cu3+1 0.575370 0.004820 0.004820 1.038176
H1    H     H_    0.461517 0.939818 0.800676 0.159728
H2    H     H_    0.417124 0.762222 0.103251 0.154310
H3    H     H_    0.920196 0.578972 0.240964 0.156487
H4    H     H_    0.943687 0.459021 0.799096 0.157778
H5    H     H_    0.369825 0.957617 0.716483 0.114160
H6    H     H_    0.656739 0.950993 0.310133 0.111777
H7    H     H_    0.057593 0.688374 0.342004 0.108850
H8    H     H_    0.053116 0.279436 0.625155 0.110182
H9    H     H_    0.692661 0.339681 0.048140 0.110452
H10   H     H_    0.260884 0.600819 0.105699 0.104117
H11   H     H_    0.282013 0.046273 0.628275 0.110358
H12   H     H_    0.578830 0.917203 0.240919 0.154055
H13   H     H_    0.689378 0.052298 0.343028 0.112373
H14   H     H_    0.649848 0.319614 0.950505 0.111323
H15   H     H_    0.332185 0.682493 0.098106 0.107127
H16   H     H_    0.955826 0.656214 0.309460 0.111781
H17   H     H_    0.963866 0.366846 0.714243 0.111711
H18   H     H_    0.089010 0.758369 0.421416 0.155140
H19   H     H_    0.067435 0.195961 0.533471 0.141779
H20   H     H_    0.767810 0.412977 0.077826 0.160792
H21   H     H_    0.184688 0.519906 0.088637 0.153396
H22   H     H_    0.198190 0.062634 0.536802 0.142309
H23   H     H_    0.758761 0.085317 0.421447 0.156448
H24   H     H_    0.572434 0.249061 0.917868 0.153364
O1    O     O_R   0.124540 0.978640 0.385460 -0.442996
O2    O     O_R   0.124540 0.385460 0.978640 -0.431948
O3    O     O_R   0.021360 0.875460 0.614540 -0.429177
O4    O     O_R   0.978640 0.124540 0.385460 -0.442347
O5    O     O_R   0.013780 0.867370 0.487190 -0.541274
O6    O     O_R   0.986220 0.132630 0.512810 -0.553498
O7    O     O_R   0.867370 0.487190 0.013780 -0.556749
O8    O     O_R   0.132630 0.512810 0.986220 -0.541913
O9    O     O_R   0.487190 0.013780 0.867370 -0.547089
O10   O     O_R   0.512810 0.986220 0.132630 -0.545741
O11   O     O_R   0.512810 0.132630 0.986220 -0.539983
O12   O     O_R   0.875460 0.021360 0.614540 -0.429404
O13   O     O_R   0.487190 0.867370 0.013780 -0.551355
O14   O     O_R   0.986220 0.512810 0.132630 -0.560651
O15   O     O_R   0.013780 0.487190 0.867370 -0.545161
O16   O     O_R   0.132630 0.986220 0.512810 -0.554193
O17   O     O_R   0.867370 0.013780 0.487190 -0.541436
O18   O     O_R   0.978640 0.385460 0.124540 -0.440138
O19   O     O_R   0.021360 0.614540 0.875460 -0.430500
O20   O     O_R   0.385460 0.124540 0.978640 -0.427358
O21   O     O_R   0.614540 0.875460 0.021360 -0.441649
O22   O     O_R   0.614540 0.021360 0.875460 -0.438648
O23   O     O_R   0.385460 0.978640 0.124540 -0.439121
O24   O     O_R   0.875460 0.614540 0.021360 -0.441291

loop_
_geom_bond_atom_site_label_1
_geom_bond_atom_site_label_2
_ccdc_geom_bond_type
C25   C31   A    
C21   C87   A    
C26   C32   A    
Cu5   Cu6   S    
C65   C79   A    
C22   C29   A    
C45   O22   A    
C64   C77   A    
C23   C69   S    
C11   H22   S    
C3    O16   A    
Cu1   O1    S    
C19   C31   A    
C78   O13   A    
C4    O17   A    
C71   C79   A    
Cu1   Cu2   S    
Cu5   O13   S    
C26   C44   A    
C66   C80   A    
C21   C36   A    
C2    O19   A    
C22   C35   A    
C12   C68   S    
C9    C42   A    
C12   O4    A    
C30   C35   A    
Cu2   O12   S    
C68   C81   A    
C52   C85   A    
Cu1   O4    S    
C37   C40   A    
C1    O3    A    
C54   C87   A    
C3    O1    A    
C8    H19   S    
C54   C68   A    
C63   C76   A    
C34   O8    A    
C56   C65   S    
C29   C33   A    
C60   C73   A    
C55   C88   A    
Cu3   O7    S    
C38   H5    S    
C35   C42   A    
C19   C26   A    
C6    H12   S    
C69   C82   A    
Cu4   O14   S    
Cu6   O22   S    
Cu1   O17   S    
Cu3   Cu4   S    
C20   C86   A    
C18   C84   A    
C7    C40   A    
C53   C86   A    
C9    C55   A    
C32   C38   A    
C57   C70   A    
C11   C58   A    
C34   C70   S    
C27   C50   A    
C59   C72   A    
C20   C37   A    
C13   H23   S    
C5    C38   A    
Cu2   O16   S    
C5    H1    S    
C36   C41   A    
C39   H6    S    
C18   C25   A    
C16   C62   A    
C15   C48   A    
C74   C82   A    
C67   O11   A    
C56   O10   A    
Cu4   O8    S    
C24   C33   A    
C9    H20   S    
C24   C30   A    
Cu5   O9    S    
C47   H14   S    
Cu5   O20   S    
C45   O9    A    
C57   C90   A    
C23   O7    A    
C29   C48   A    
C50   H17   S    
C33   C43   A    
Cu3   O18   S    
C10   C57   A    
C16   C49   A    
Cu1   O5    S    
C10   H21   S    
C8    C54   A    
C75   C81   A    
Cu4   O24   S    
Cu6   O11   S    
C3    C71   S    
C42   H9    S    
C72   C77   A    
C70   C83   A    
C61   C88   A    
Cu6   O21   S    
C28   C49   A    
C30   C47   A    
C49   H16   S    
Cu4   O19   S    
C89   O14   A    
C67   O20   A    
C1    C66   S    
C15   C61   A    
C40   H7    S    
C11   C44   A    
C55   C69   A    
C8    C41   A    
C53   C66   A    
C79   Cl2   S    
C48   H15   S    
C78   O21   A    
C67   C73   S    
C16   H3    S    
C21   C28   A    
C44   H11   S    
C22   C88   A    
C41   H8    S    
C63   C86   A    
C15   H2    S    
C62   C75   A    
C18   C32   A    
C43   H10   S    
C7    C53   A    
C58   C85   A    
C4    C72   S    
C2    C76   S    
C77   Cl1   S    
C82   Cl5   S    
C12   O6    A    
C10   C43   A    
C7    H18   S    
C23   O24   A    
C51   C64   A    
C76   C80   A    
C19   C85   A    
C24   C90   A    
C17   C50   A    
Cu3   O15   S    
C14   C47   A    
C13   C59   A    
C20   C27   A    
C60   C90   A    
C61   C74   A    
C89   O18   A    
C14   C60   A    
C62   C87   A    
C45   C64   S    
C59   C84   A    
C14   H24   S    
C27   C36   A    
C80   Cl3   S    
C17   H4    S    
C17   C63   A    
C81   Cl4   S    
C13   C46   A    
C46   H13   S    
C28   C37   A    
C1    O5    A    
C83   Cl6   S    
C51   C84   A    
Cu2   O3    S    
Cu5   O23   S    
C31   C39   A    
Cu3   O2    S    
C58   C71   A    
Cu6   O10   S    
C75   C89   S    
C4    O12   A    
C34   O2    A    
C74   C78   S    
Cu2   O6    S    
C2    O15   A    
C6    C39   A    
C5    C51   A    
C6    C52   A    
C56   O23   A    
C25   C46   A    
C73   C83   A    
C52   C65   A    
