data_mof_unit_44666.cif
_audit_creation_date              2012-12-11T16:09:29-0500
_audit_creation_method            fapswitch 2.2
_symmetry_space_group_name_H-M    P1
_symmetry_Int_Tables_number       1
_space_group_crystal_system       triclinic
_cell_length_a                    6.945074
_cell_length_b                    21.361884
_cell_length_c                    23.606166
_cell_angle_alpha                 90.070695
_cell_angle_beta                  89.995347
_cell_angle_gamma                 90.01146
_cell_volume                      3502.20485726

loop_
_atom_site_label
_atom_site_type_symbol
_atom_type_description
_atom_site_fract_x
_atom_site_fract_y
_atom_site_fract_z
_atom_type_partial_charge
O1    O     O_R   0.494270 0.443530 0.442350 -0.535880
O2    O     O_R   0.824060 0.436290 0.557250 -0.537897
O3    O     O_R   0.994370 0.556470 0.557650 -0.535427
C1    C     C_R   0.655207 0.421158 0.576645 0.740489
O4    O     O_R   0.823990 0.436120 0.442760 -0.539725
O5    O     O_R   0.994300 0.556300 0.442340 -0.537337
C2    C     C_R   0.655172 0.420916 0.423287 0.727260
O6    O     O_R   0.494350 0.443700 0.557660 -0.533547
O7    O     O_3   0.660800 0.539430 0.500000 -0.368986
V1    V     V_3+5 0.935650 0.492690 0.500000 1.446377
O8    O     O_R   0.324020 0.563710 0.442750 -0.538518
C3    C     C_R   0.155226 0.578868 0.423277 0.721287
O9    O     O_R   0.324090 0.563880 0.557240 -0.532544
C4    C     C_R   0.155275 0.579034 0.576668 0.730726
V2    V     V_3+5 0.435660 0.507310 0.500000 1.457425
O10   O     O_3   0.160640 0.460570 0.500000 -0.369383
C5    C     C_3   0.065512 0.719257 0.798461 -0.191477
C6    C     C_3   0.246629 0.707537 0.762028 0.030088
H1    H     H_    0.028456 0.694554 0.838351 0.123769
H2    H     H_    0.422074 0.802632 0.762173 0.117156
C7    C     C_1   0.145457 0.624656 0.622179 -0.148100
C8    C     C_1   0.074351 0.874358 0.877202 -0.187045
C9    C     C_3   0.941546 0.719895 0.743641 -0.151833
C10   C     C_3   0.124040 0.708065 0.707911 0.149961
C11   C     C_3   0.974155 0.791500 0.738066 -0.124622
C12   C     C_3   0.098506 0.790264 0.792131 0.156657
C13   C     C_3   0.156977 0.779164 0.701896 -0.149340
C14   C     C_3   0.281441 0.778652 0.756620 -0.201169
C15   C     C_1   0.136091 0.662396 0.660633 0.021971
C16   C     C_1   0.084552 0.836353 0.838971 -0.045227
H3    H     H_    0.194428 0.803791 0.662009 0.125351
H4    H     H_    0.860700 0.826483 0.728374 0.120269
H5    H     H_    0.801383 0.695733 0.738028 0.146601
C17   C     C_3   0.253978 0.810428 0.250219 -0.328464
C18   C     C_3   0.903335 0.783968 0.238405 -0.330851
C19   C     C_3   0.918735 0.735932 0.287766 -0.350212
H6    H     H_    0.231657 0.787607 0.340473 0.153015
H7    H     H_    0.788962 0.768699 0.208384 0.135824
H8    H     H_    0.859286 0.830324 0.255615 0.144919
H9    H     H_    0.881953 0.759490 0.328430 0.150157
H10   H     H_    0.811277 0.697944 0.281362 0.139371
C20   C     C_1   0.145579 0.624396 0.377627 -0.163565
C21   C     C_3   0.098268 0.790167 0.206711 0.275988
C22   C     C_3   0.266605 0.763078 0.300143 -0.346108
C23   C     C_3   0.124625 0.707676 0.291176 0.212213
C24   C     C_3   0.167419 0.675681 0.232822 -0.106339
C25   C     C_3   0.154521 0.724620 0.183681 -0.386682
C26   C     C_1   0.136499 0.662003 0.339023 -0.066434
C27   C     C_1   0.084083 0.836566 0.159628 -0.084043
C28   C     C_1   0.074053 0.874572 0.121357 -0.188892
H11   H     H_    0.293531 0.728243 0.160360 0.136002
H12   H     H_    0.416779 0.745697 0.304347 0.130487
H13   H     H_    0.054227 0.639566 0.225407 0.146905
C29   C     C_3   0.458167 0.240848 0.695308 -0.122504
C30   C     C_3   0.815134 0.255994 0.714613 -0.323261
C31   C     C_3   0.807431 0.210527 0.766482 -0.108771
H14   H     H_    0.484261 0.142963 0.727132 0.213812
H15   H     H_    0.932056 0.290817 0.721641 0.104801
H16   H     H_    0.854222 0.231041 0.674941 0.212967
H17   H     H_    0.902404 0.230607 0.799938 0.065022
C32   C     C_1   0.574179 0.123872 0.877280 -0.186127
C33   C     C_3   0.619459 0.290660 0.706986 0.132387
C34   C     C_3   0.453743 0.190700 0.743525 -0.278607
C35   C     C_3   0.598656 0.207502 0.791408 0.201169
C36   C     C_3   0.546716 0.274223 0.812835 -0.431383
C37   C     C_3   0.574515 0.323848 0.764832 -0.145664
C38   C     C_1   0.584445 0.161644 0.838931 -0.082035
C39   C     C_1   0.634461 0.337315 0.659986 -0.066800
C40   C     C_1   0.645046 0.375369 0.621883 -0.151933
H18   H     H_    0.701891 0.353081 0.776193 0.161215
H19   H     H_    0.395693 0.274141 0.828766 0.146761
H20   H     H_    0.316934 0.265297 0.695923 0.048634
H21   H     H_    0.305709 0.188627 0.761464 0.096757
H22   H     H_    0.639651 0.286891 0.849522 0.155977
C41   C     C_3   0.490307 0.315050 0.244742 -0.346525
C42   C     C_3   0.828012 0.278804 0.264541 -0.085130
C43   C     C_3   0.811171 0.230400 0.214815 -0.317324
H23   H     H_    0.517834 0.289082 0.155113 0.148555
H24   H     H_    0.545884 0.360162 0.227792 0.158930
H25   H     H_    0.878449 0.323863 0.246040 0.072063
H26   H     H_    0.862030 0.252682 0.174920 0.117885
H27   H     H_    0.905384 0.188978 0.221706 0.172555
C44   C     C_1   0.574038 0.124207 0.121479 -0.184702
C45   C     C_3   0.626248 0.290585 0.292099 0.213456
C46   C     C_3   0.473073 0.266713 0.195574 -0.335035
C47   C     C_3   0.599680 0.208300 0.207225 0.240507
C48   C     C_3   0.532054 0.178813 0.263897 -0.306905
C49   C     C_3   0.542568 0.227268 0.313114 -0.287246
C50   C     C_1   0.584532 0.162135 0.159883 -0.087005
C51   C     C_1   0.636844 0.337093 0.339413 -0.097097
C52   C     C_1   0.645506 0.375103 0.377779 -0.168680
H28   H     H_    0.395871 0.234807 0.330685 0.163846
H29   H     H_    0.631269 0.208165 0.348245 0.186151
H30   H     H_    0.381483 0.161594 0.259590 0.161379
H31   H     H_    0.344844 0.324606 0.262464 0.143872
H32   H     H_    0.319833 0.252361 0.190738 0.147629
H33   H     H_    0.623768 0.137695 0.274305 0.163485
O11   O     O_R   0.724990 0.055630 0.941600 -0.535668
O12   O     O_R   0.395220 0.063160 0.056480 -0.538043
O13   O     O_R   0.225040 0.942970 0.056870 -0.535068
C53   C     C_R   0.564032 0.078401 0.075957 0.725406
O14   O     O_R   0.395270 0.063000 0.941990 -0.538100
O15   O     O_R   0.225080 0.942800 0.941570 -0.534297
C54   C     C_R   0.564125 0.078200 0.922636 0.730850
O16   O     O_R   0.724940 0.055790 0.056910 -0.535360
O17   O     O_3   0.558580 0.959880 0.999250 -0.367002
V3    V     V_3+5 0.283680 0.006590 0.999220 1.422805
O18   O     O_R   0.895380 0.935350 0.941950 -0.537239
C55   C     C_R   0.064242 0.920185 0.922554 0.729410
O19   O     O_R   0.895330 0.935520 0.056440 -0.538149
C56   C     C_R   0.064141 0.920370 0.075921 0.726865
V4    V     V_3+5 0.783690 0.991900 0.999180 1.423997
O20   O     O_3   0.058660 0.038680 0.999200 -0.368100
C57   C     C_2   0.401046 0.661727 0.777419 0.368106
H34   H     H_    0.478454 0.667229 0.817011 0.039972
O21   O     O_2   0.440891 0.618383 0.745829 -0.505733
H35   H     H_    0.045096 0.708769 0.152335 0.146535
C58   C     C_2   0.360314 0.642926 0.232055 0.372712
H36   H     H_    0.492588 0.669789 0.234604 0.039044
O22   O     O_2   0.369177 0.586025 0.227994 -0.528246
H37   H     H_    0.396703 0.813655 0.228960 0.136495
C59   C     C_2   0.470822 0.211586 0.636979 0.420855
H38   H     H_    0.377766 0.228681 0.603458 0.037496
O23   O     O_2   0.586946 0.170360 0.626258 -0.489481
C60   C     C_2   0.891027 0.146851 0.752826 0.388290
H39   H     H_    0.995391 0.126145 0.781432 0.027592
O24   O     O_2   0.839839 0.117390 0.711136 -0.489520
C61   C     C_2   0.402382 0.367103 0.761764 0.412496
H40   H     H_    0.258750 0.348407 0.755426 0.032043
O25   O     O_2   0.423094 0.423568 0.767001 -0.502037
C62   C     C_2   0.978612 0.260074 0.307673 0.326583
H41   H     H_    0.068196 0.295915 0.326857 0.045123
O26   O     O_2   0.996481 0.205813 0.323045 -0.535859
H42   H     H_    0.219497 0.857778 0.267105 0.147527

loop_
_geom_bond_atom_site_label_1
_geom_bond_atom_site_label_2
_ccdc_geom_bond_type
C48   C49   S    
C48   H30   S    
C30   H16   S    
O2    C1    A    
C18   C19   S    
C10   C13   S    
C1    O6    A    
C61   H40   S    
C42   C45   S    
C57   H34   S    
C41   H31   S    
O17   V4    S    
C23   C24   S    
C5    C9    S    
C41   H24   S    
C6    C10   S    
C5    C12   S    
C4    C7    S    
C10   C15   S    
O5    C3    A    
C42   C62   S    
C41   C45   S    
O17   V3    S    
C17   H42   S    
V2    O10   S    
C30   C33   S    
O18   C55   A    
C24   C58   S    
C58   H36   S    
V4    O20   S    
C3    C20   S    
C5    H1    S    
O19   C56   A    
O8    V2    S    
C41   C46   S    
V3    O20   S    
C49   H28   S    
C39   C40   T    
C9    H5    S    
C9    C10   S    
C31   C35   S    
O1    V2    S    
C18   C21   S    
O7    V1    S    
C22   H12   S    
C11   H4    S    
C29   C59   S    
O9    C4    A    
C6    C57   S    
C19   H10   S    
C45   C51   S    
C1    C40   S    
H14   C34   S    
C58   O22   D    
C53   O16   A    
C44   C50   T    
O11   V4    S    
C33   C37   S    
C13   H3    S    
C35   C38   S    
C42   H25   S    
C19   H9    S    
C32   C54   S    
C6    C14   S    
C42   C43   S    
O4    C2    A    
C49   H29   S    
C47   C48   S    
C21   C27   S    
C25   H11   S    
C34   H21   S    
C11   C12   S    
C36   H19   S    
C29   C33   S    
C36   H22   S    
C31   H17   S    
C18   H8    S    
C32   C38   T    
C43   H26   S    
C8    C55   S    
C2    C52   S    
C18   H7    S    
C30   C31   S    
C5    C6    S    
C17   C22   S    
C19   C23   S    
C20   C26   T    
C31   C60   S    
O14   C54   A    
C46   C47   S    
O3    C4    A    
H23   C46   S    
O12   C53   A    
O16   V4    S    
C43   C47   S    
C12   C16   S    
C17   H37   S    
O9    V2    S    
C60   H39   S    
C11   C13   S    
C59   O23   D    
C62   H41   S    
O2    V1    S    
O14   V3    S    
O12   V3    S    
C22   C23   S    
O15   V3    S    
C23   C26   S    
C24   C25   S    
O13   V3    S    
C44   C53   S    
O1    C2    A    
C17   C21   S    
C45   C49   S    
C62   O26   D    
C47   C50   S    
C61   O25   D    
O5    V1    S    
C57   O21   D    
O8    C3    A    
O6    V2    S    
H2    C14   S    
C12   C14   S    
C33   C39   S    
O15   C55   A    
C35   C36   S    
H6    C22   S    
O7    V2    S    
O4    V1    S    
C36   C37   S    
O3    V1    S    
C8    C16   T    
C51   C52   T    
C37   H18   S    
C7    C15   T    
C43   H27   S    
O11   C54   A    
C24   H13   S    
C28   C56   S    
C46   H32   S    
C37   C61   S    
C9    C11   S    
O19   V4    S    
C34   C35   S    
O18   V4    S    
C25   H35   S    
C29   H20   S    
O13   C56   A    
C27   C28   T    
C29   C34   S    
C30   H15   S    
C13   C14   S    
C60   O24   D    
V1    O10   S    
C59   H38   S    
C21   C25   S    
C48   H33   S    
