data_mof_unit_66526.cif
_audit_creation_date              2012-12-10T20:45:36-0500
_audit_creation_method            fapswitch 2.2
_symmetry_space_group_name_H-M    P1
_symmetry_Int_Tables_number       1
_space_group_crystal_system       triclinic
_cell_length_a                    10.695111
_cell_length_b                    10.711818
_cell_length_c                    9.929963
_cell_angle_alpha                 89.420867
_cell_angle_beta                  92.237512
_cell_angle_gamma                 89.880367
_cell_volume                      1136.68816915

loop_
_atom_site_label
_atom_site_type_symbol
_atom_type_description
_atom_site_fract_x
_atom_site_fract_y
_atom_site_fract_z
_atom_type_partial_charge
C1    C     C_R   0.495819 0.260341 0.500197 0.892849
C2    C     C_R   0.138938 0.952947 0.246797 -0.536507
C3    C     C_R   0.927304 0.605862 0.447102 0.456855
C4    C     C_R   0.872644 0.503657 0.510862 -0.089853
C5    C     C_R   0.944831 0.411675 0.579590 0.012994
C6    C     C_R   0.072313 0.413221 0.566353 -0.214145
C7    C     C_R   0.127848 0.508231 0.494046 -0.158401
C8    C     C_R   0.057748 0.608155 0.436547 -0.053816
C9    C     C_R   0.863572 0.355117 0.804808 0.370471
C10   C     C_R   0.837283 0.262805 0.903635 0.378119
C11   C     C_R   0.859591 0.135233 0.876901 -0.168571
C12   C     C_R   0.260574 0.506753 0.497450 0.897595
C13   C     C_R   0.898049 0.100255 0.747512 -0.167210
C14   C     C_R   0.910178 0.191851 0.647027 -0.213611
C15   C     C_R   0.895033 0.318427 0.674820 -0.002078
C16   C     C_R   0.464089 0.062841 0.617765 0.124180
C17   C     C_R   0.474122 0.129491 0.498339 -0.126102
C18   C     C_R   0.456117 0.069366 0.374670 -0.124654
C19   C     C_R   0.450874 0.939948 0.369498 -0.046834
C20   C     C_R   0.468289 0.871832 0.492972 -0.192094
C21   C     C_R   0.463318 0.935170 0.615030 0.086353
C22   C     C_3   0.546481 0.927057 0.740542 0.294062
C23   C     C_R   0.492424 0.739923 0.498122 0.911935
C24   C     C_3   0.544632 0.068456 0.743707 -0.536186
C25   C     C_R   0.435190 0.411265 0.069563 0.178510
C26   C     C_R   0.569697 0.584194 0.073630 -0.122135
C27   C     C_R   0.572791 0.581073 0.930704 0.453522
C28   C     C_R   0.434377 0.411892 0.927083 -0.019702
C29   C     C_3   0.295499 0.392749 0.917882 0.217740
C30   C     C_3   0.297493 0.390966 0.071752 0.149641
C31   C     C_R   0.739767 0.496001 0.503231 0.954923
C32   C     C_R   0.155636 0.940805 0.387217 0.476830
C33   C     C_R   0.149971 0.822598 0.448472 0.433161
C34   C     C_R   0.116395 0.716888 0.369582 -0.365227
C35   C     C_R   0.102197 0.730202 0.226942 0.414581
C36   C     C_R   0.116159 0.847806 0.166352 0.473648
H1    H     H_    0.145272 0.044206 0.199835 0.211615
H2    H     H_    0.941499 0.165789 0.548601 0.225390
H3    H     H_    0.449484 0.122918 0.281474 0.240479
H4    H     H_    0.500940 0.881706 0.827009 0.209957
H5    H     H_    0.494160 0.105677 0.830173 0.213975
H6    H     H_    0.636092 0.113353 0.726646 0.208482
H7    H     H_    0.243567 0.473704 0.872275 0.151318
H8    H     H_    0.247692 0.470043 0.117365 0.122896
H9    H     H_    0.129652 0.341516 0.616484 0.216913
N1    N     N_R   0.499160 0.499140 0.142800 -0.208275
N2    N     N_R   0.499160 0.499180 0.857150 -0.199897
O1    O     O_R   0.500020 0.316790 0.614690 -0.605125
O2    O     O_R   0.500000 0.316760 0.385350 -0.594267
O3    O     O_R   0.316770 0.500030 0.614670 -0.613574
O4    O     O_R   0.316750 0.499990 0.385330 -0.618168
O5    O     O_R   0.500000 0.683240 0.614650 -0.608153
O6    O     O_R   0.499980 0.683210 0.385310 -0.689779
O7    O     O_R   0.683250 0.500010 0.614670 -0.617759
O8    O     O_R   0.683230 0.499970 0.385330 -0.629752
Zn1   Zn    Zn3+2 0.500010 0.500020 0.653130 0.988357
Zn2   Zn    Zn3+2 0.499990 0.499980 0.346870 0.964342
C37   C     C_2   0.836592 0.038312 0.981709 0.537489
H10   H     H_    0.817804 0.942610 0.953341 0.137530
O9    O     O_2   0.838971 0.063698 0.101388 -0.478243
C38   C     C_2   0.931488 0.969573 0.715952 0.576809
H11   H     H_    0.955155 0.902496 0.795240 0.108953
O10   O     O_2   0.932196 0.934779 0.599344 -0.532014
C39   C     C_2   0.426143 0.882682 0.234982 0.456798
H12   H     H_    0.380784 0.792803 0.225315 0.065050
O11   O     O_2   0.451042 0.938521 0.131565 -0.541458
O12   O     O_3   0.666271 0.878834 0.718441 -0.719951
H13   H     H_    0.693362 0.909736 0.629640 0.361141
C40   C     C_2   0.643042 0.681938 0.146031 0.551732
H14   H     H_    0.671503 0.670903 0.249070 0.166775
O13   O     O_2   0.672280 0.779250 0.090621 -0.494286
O14   O     O_3   0.176853 0.043464 0.467908 -0.702830
H15   H     H_    0.176644 0.119836 0.410576 0.331141
O15   O     O_3   0.652966 0.661875 0.869608 -0.658256
H16   H     H_    0.656432 0.640961 0.774720 0.422025
O16   O     O_3   0.260007 0.279009 0.857660 -0.721036
H17   H     H_    0.316322 0.211901 0.893756 0.376398
O17   O     O_3   0.269836 0.274355 0.128250 -0.745874
H18   H     H_    0.177192 0.270137 0.128485 0.349619
O18   O     O_3   0.169181 0.816507 0.586917 -0.688639
H19   H     H_    0.174530 0.728499 0.617223 0.340385
O19   O     O_3   0.066183 0.632852 0.143724 -0.717376
H20   H     H_    0.062895 0.554140 0.196319 0.329431
O20   O     O_3   0.102846 0.857790 0.027820 -0.705361
H21   H     H_    0.116335 0.945904 0.000454 0.332879
O21   O     O_3   0.849631 0.702977 0.402849 -0.771989
H22   H     H_    0.897804 0.775706 0.372429 0.373800
O22   O     O_3   0.867299 0.480883 0.834393 -0.723809
H23   H     H_    0.884131 0.490909 0.932454 0.364137
O23   O     O_3   0.789461 0.294483 0.025999 -0.713461
H24   H     H_    0.742392 0.373819 0.014951 0.322674

loop_
_geom_bond_atom_site_label_1
_geom_bond_atom_site_label_2
_ccdc_geom_bond_type
C28   N2    A    
C16   C21   A    
C6    H9    S    
C24   H6    S    
C35   C36   A    
C2    C36   A    
O23   H24   S    
C7    C8    A    
C32   O14   S    
C29   O16   S    
C25   C28   A    
C26   C27   A    
C28   C29   S    
C34   C35   A    
C9    O22   S    
C5    C6    A    
C37   O9    D    
O2    Zn2   S    
C2    C32   A    
C18   C19   A    
C40   O13   D    
C19   C20   A    
C16   C17   A    
O4    Zn2   S    
C27   O15   S    
C9    C10   A    
O14   H15   S    
O22   H23   S    
C16   C24   S    
C13   C14   A    
C29   H7    S    
C3    O21   S    
C24   H5    S    
C30   H8    S    
C40   H14   S    
C35   O19   S    
C23   O6    A    
C7    C12   S    
O7    Zn1   S    
O15   H16   S    
O12   H13   S    
O16   H17   S    
C3    C8    A    
O6    Zn2   S    
O21   H22   S    
C4    C5    A    
C37   H10   S    
O3    Zn1   S    
C39   O11   D    
C18   H3    S    
C29   C30   S    
C14   H2    S    
C20   C23   S    
C19   C39   S    
C22   H4    S    
C38   O10   D    
C17   C18   A    
C1    O1    A    
C8    C34   S    
O20   H21   S    
O8    Zn2   S    
N1    Zn2   S    
C22   C24   S    
C3    C4    A    
C11   C37   S    
C12   O4    A    
C27   N2    A    
C25   C30   S    
O1    Zn1   S    
O17   H18   S    
O18   H19   S    
C12   O3    A    
C33   O18   S    
C6    C7    A    
C1    C17   S    
C39   H12   S    
C9    C15   A    
C32   C33   A    
C11   C13   A    
C2    H1    S    
C23   O5    A    
C36   O20   S    
C33   C34   A    
C31   O7    A    
C38   H11   S    
C22   O12   S    
C5    C15   S    
C4    C31   S    
C10   C11   A    
C26   N1    A    
C30   O17   S    
C13   C38   S    
C20   C21   A    
C10   O23   S    
O19   H20   S    
C26   C40   S    
C14   C15   A    
C31   O8    A    
C21   C22   S    
C1    O2    A    
C25   N1    A    
O5    Zn1   S    
N2    Zn1   S    
