data_mof_unit_66246.cif
_audit_creation_date              2012-12-10T19:27:19-0500
_audit_creation_method            fapswitch 2.2
_symmetry_space_group_name_H-M    P1
_symmetry_Int_Tables_number       1
_space_group_crystal_system       triclinic
_cell_length_a                    18.89301
_cell_length_b                    18.708149
_cell_length_c                    18.644799
_cell_angle_alpha                 109.233348
_cell_angle_beta                  109.298652
_cell_angle_gamma                 109.824516
_cell_volume                      5076.48679371

loop_
_atom_site_label
_atom_site_type_symbol
_atom_type_description
_atom_site_fract_x
_atom_site_fract_y
_atom_site_fract_z
_atom_type_partial_charge
C1    C     C_R   0.378400 0.379532 0.498652 0.997728
C2    C     C_R   0.590564 0.342388 0.627655 0.541676
C3    C     C_R   0.272624 0.224712 0.436536 0.044922
C4    C     C_R   0.620671 0.501167 0.620236 0.957071
C5    C     C_R   0.306390 0.313316 0.492599 -0.125916
C6    C     C_R   0.266425 0.337361 0.540360 -0.189947
C7    C     C_R   0.203406 0.273460 0.542219 0.389799
C8    C     C_R   0.182515 0.185968 0.497810 -0.186012
C9    C     C_R   0.211767 0.161918 0.439585 -0.012561
C10   C     C_3   0.248258 0.102682 0.422425 0.879455
C11   C     C_3   0.315313 0.172062 0.418162 -0.453229
C12   C     C_R   0.762713 0.581500 0.753118 0.017599
C13   C     C_R   0.255138 0.428264 0.233960 -0.157433
C14   C     C_R   0.315811 0.502138 0.314848 -0.107596
C15   C     C_R   0.310856 0.579107 0.332618 -0.141686
C16   C     C_R   0.619572 0.620171 0.499662 0.943859
C17   C     C_R   0.246017 0.579646 0.268807 0.371696
C18   C     C_R   0.184773 0.501943 0.187588 -0.098720
C19   C     C_R   0.191592 0.427836 0.173388 -0.222490
C20   C     C_3   0.153590 0.334428 0.108215 0.798041
C21   C     C_3   0.225704 0.334615 0.178307 1.090265
C22   C     C_R   0.767706 0.696766 0.529999 -0.132126
C23   C     C_R   0.814560 0.500865 0.813191 -0.047365
C24   C     C_R   0.685432 0.687294 0.501166 -0.202238
C25   C     C_R   0.671701 0.751942 0.487343 0.667292
C26   C     C_R   0.736778 0.817506 0.489202 -0.216390
C27   C     C_R   0.815977 0.819600 0.507832 -0.173014
C28   C     C_R   0.380348 0.500335 0.379855 0.922509
C29   C     C_R   0.833017 0.763620 0.535533 0.071560
C30   C     C_3   0.872380 0.709725 0.509394 0.146200
C31   C     C_3   0.798705 0.634396 0.501756 0.616874
C32   C     C_R   0.003193 0.379694 0.883118 0.924840
C33   C     C_R   0.880198 0.500132 0.879630 0.822080
C34   C     C_R   0.741202 0.420146 0.741865 -0.083396
C35   C     C_R   0.999949 0.620176 0.120205 0.900182
C36   C     C_R   0.119575 0.499870 0.120033 0.946511
C37   C     C_R   0.999573 0.119105 0.620076 0.936938
C38   C     C_R   0.119331 0.119413 0.499120 0.958081
C39   C     C_R   0.000547 0.880947 0.379690 0.933403
C40   C     C_R   0.779905 0.661300 0.752830 -0.240984
C41   C     C_R   0.880274 0.880657 0.501263 0.894577
C42   C     C_R   0.930236 0.231582 0.761045 -0.112944
C43   C     C_R   0.005763 0.313368 0.819285 -0.152635
C44   C     C_R   0.079798 0.331429 0.809131 0.439459
C45   C     C_R   0.671706 0.421495 0.685226 -0.051125
C46   C     C_R   0.076915 0.266402 0.743000 -0.145608
C47   C     C_R   0.000865 0.185375 0.685903 -0.058147
C48   C     C_R   0.926967 0.168928 0.693362 -0.086735
C49   C     C_3   0.871305 0.094625 0.699583 0.101578
C50   C     C_3   0.878581 0.164236 0.777787 0.659816
C51   C     C_R   0.978991 0.670834 0.245662 0.018617
C52   C     C_R   0.851153 0.740915 0.823593 0.411151
C53   C     C_R   0.995831 0.685156 0.182850 -0.196804
C54   C     C_R   0.002413 0.759976 0.177615 -0.226391
C55   C     C_R   0.001941 0.824278 0.241591 0.719477
C56   C     C_R   0.685721 0.501426 0.687414 -0.084923
C57   C     C_R   0.998347 0.814592 0.312136 -0.152307
C58   C     C_R   0.981937 0.735667 0.310695 -0.224718
C59   C     C_3   0.026010 0.716779 0.379003 0.473392
C60   C     C_3   0.022124 0.644672 0.306881 0.434698
C61   C     C_R   0.905787 0.742546 0.896801 0.385594
C62   C     C_R   0.891955 0.664022 0.895934 -0.287542
C63   C     C_R   0.823639 0.582083 0.821510 0.041125
C64   C     C_R   0.734592 0.337829 0.725613 -0.242179
C65   C     C_R   0.656678 0.259982 0.661963 0.680525
C66   C     C_R   0.583977 0.262607 0.615933 -0.265136
Cl1   Cl    Cl    0.155641 0.305649 0.603782 -0.573960
Cl2   Cl    Cl    0.919749 0.031622 0.723021 -0.422559
Cl3   Cl    Cl    0.777421 0.157109 0.760016 -0.433991
Cl4   Cl    Cl    0.937978 0.176088 0.882404 -0.299499
Cl5   Cl    Cl    0.993102 0.841934 0.990056 -0.392523
Cl6   Cl    Cl    0.293931 0.084999 0.511046 -0.486932
Cl7   Cl    Cl    0.242419 0.677269 0.293396 -0.522372
Cl8   Cl    Cl    0.161966 0.321692 0.012683 -0.435187
Cl9   Cl    Cl    0.978905 0.753563 0.596361 -0.383396
Cl10  Cl    Cl    0.727014 0.546087 0.391395 -0.492996
Cl11  Cl    Cl    0.827995 0.597231 0.577957 -0.464125
Cl12  Cl    Cl    0.179855 0.430344 0.881336 -0.444774
Cl13  Cl    Cl    0.868940 0.837719 0.819405 -0.362253
F1    F     F_    0.191477 0.026126 0.342685 -0.563696
F2    F     F_    0.516348 0.341845 0.586305 -0.686963
F3    F     F_    0.070998 0.282090 0.090611 -0.536517
F4    F     F_    0.195820 0.282970 0.212119 -0.589994
F5    F     F_    0.286216 0.323788 0.156742 -0.590481
F6    F     F_    0.593998 0.748115 0.466451 -0.626219
F7    F     F_    0.010355 0.897702 0.237657 -0.568449
F8    F     F_    0.110349 0.784166 0.440199 -0.578466
F9    F     F_    0.965970 0.562004 0.287593 -0.599078
F10   F     F_    0.650473 0.181546 0.646303 -0.566826
H1    H     H_    0.522275 0.202470 0.570353 0.218402
H2    H     H_    0.009788 0.769347 0.125653 0.209433
H3    H     H_    0.986465 0.693445 0.407774 0.139132
H4    H     H_    0.086181 0.654433 0.314724 0.151175
H5    H     H_    0.934926 0.668730 0.954634 0.184437
H6    H     H_    0.789280 0.332627 0.760717 0.202585
H7    H     H_    0.286249 0.405419 0.578890 0.212149
H8    H     H_    0.382672 0.202987 0.471502 0.235671
H9    H     H_    0.307528 0.151033 0.351583 0.249443
H10   H     H_    0.357346 0.638558 0.395160 0.218852
H11   H     H_    0.738869 0.663045 0.697790 0.185346
H12   H     H_    0.724407 0.864384 0.473424 0.198313
H13   H     H_    0.869992 0.699392 0.446190 0.092428
H14   H     H_    0.134616 0.278222 0.737553 0.215824
H15   H     H_    0.805115 0.053067 0.641217 0.157307
O1    O     O_R   0.408400 0.356680 0.448290 -0.577926
O2    O     O_R   0.948300 0.091670 0.539990 -0.612612
O3    O     O_R   0.143340 0.091640 0.551750 -0.582816
O4    O     O_R   0.408370 0.460100 0.551700 -0.632679
O5    O     O_R   0.039900 0.091690 0.448360 -0.580651
O6    O     O_R   0.051700 0.908430 0.460110 -0.553674
O7    O     O_R   0.948260 0.908480 0.356720 -0.600330
O8    O     O_R   0.960100 0.908410 0.551740 -0.563998
O9    O     O_R   0.856660 0.908460 0.448350 -0.637483
O10   O     O_R   0.591630 0.448290 0.539910 -0.567962
O11   O     O_R   0.591590 0.551710 0.643320 -0.632492
O12   O     O_R   0.051700 0.460090 0.908430 -0.578053
O13   O     O_R   0.591630 0.539900 0.448300 -0.575542
O14   O     O_R   0.591600 0.643320 0.551710 -0.594765
O15   O     O_R   0.408410 0.448290 0.356680 -0.572977
O16   O     O_R   0.408370 0.551710 0.460090 -0.622826
O17   O     O_R   0.948260 0.356680 0.908450 -0.583270
O18   O     O_R   0.856640 0.448300 0.908430 -0.614684
O19   O     O_R   0.960090 0.551710 0.908400 -0.616731
O20   O     O_R   0.948250 0.539920 0.091630 -0.586229
O21   O     O_R   0.051690 0.643330 0.091610 -0.602814
O22   O     O_R   0.039870 0.448310 0.091660 -0.571193
O23   O     O_R   0.143310 0.551720 0.091640 -0.574594
O24   O     O_R   0.051740 0.091620 0.643380 -0.581430
Zn1   Zn    Zn3+2 0.500020 0.430950 0.430950 1.179482
Zn2   Zn    Zn3+2 0.499980 0.569050 0.569050 1.096454
Zn3   Zn    Zn3+2 0.930910 0.430960 0.000050 1.171934
Zn4   Zn    Zn3+2 0.069050 0.569060 0.000020 1.142557
Zn5   Zn    Zn3+2 0.069070 0.000020 0.569080 1.209128
Zn6   Zn    Zn3+2 0.930930 0.000080 0.431020 1.108641

loop_
_geom_bond_atom_site_label_1
_geom_bond_atom_site_label_2
_ccdc_geom_bond_type
O6    Zn5   S    
C22   C29   A    
C20   F3    S    
O19   Zn4   S    
C35   C53   S    
C4    O11   A    
C19   C20   S    
O8    Zn5   S    
C49   H15   S    
C60   F9    S    
C7    C8    A    
C66   H1    S    
C53   C54   A    
C65   F10   S    
C26   C27   A    
C29   C30   S    
C11   H9    S    
O14   Zn2   S    
C4    O10   A    
C35   O20   A    
C49   Cl2   S    
C50   Cl3   S    
C52   C61   A    
C26   H12   S    
C30   C31   S    
C27   C29   A    
C39   C57   S    
C18   C19   A    
C38   O3    A    
C35   O21   A    
O23   Zn4   S    
C46   C47   A    
C39   O6    A    
C21   F4    S    
C45   C56   A    
C8    C9    A    
C23   C33   S    
C41   O8    A    
C37   C47   S    
C52   Cl13  S    
O13   Zn1   S    
C9    C10   S    
O4    Zn2   S    
C37   O24   A    
C60   H4    S    
C61   Cl5   S    
C23   C63   A    
C59   C60   S    
C16   C24   S    
C13   C14   A    
C4    C56   S    
C17   Cl7   S    
C8    C38   S    
O17   Zn3   S    
C25   F6    S    
C44   C46   A    
C31   Cl11  S    
C57   C58   A    
C2    C45   A    
C22   C31   S    
C13   C19   A    
C13   C21   S    
C24   C25   A    
C28   O16   A    
C15   H10   S    
C51   C58   A    
C12   C63   A    
C10   F1    S    
O1    Zn1   S    
C2    C66   A    
C58   C59   S    
C40   C52   A    
O20   Zn3   S    
C51   C53   A    
C12   C40   A    
C43   C44   A    
C62   H5    S    
C62   C63   A    
C3    C9    A    
C16   O14   A    
C27   C41   S    
C47   C48   A    
O12   Zn4   S    
C21   F5    S    
O2    Zn6   S    
C23   C34   A    
C30   H13   S    
C34   C64   A    
C17   C18   A    
C20   Cl8   S    
C34   C45   A    
C42   C48   A    
C32   O12   A    
C38   O5    A    
C12   C56   A    
C42   C50   S    
C48   C49   S    
C65   C66   A    
C6    H7    S    
O9    Zn6   S    
C55   C57   A    
C33   O18   A    
O10   Zn1   S    
C1    C5    S    
C36   O23   A    
C42   C43   A    
O18   Zn3   S    
C15   C17   A    
C54   C55   A    
O5    Zn6   S    
C32   O17   A    
C36   O22   A    
C64   H6    S    
C41   O9    A    
C3    C5    A    
C28   O15   A    
C40   H11   S    
O7    Zn6   S    
C6    C7    A    
C46   H14   S    
C11   H8    S    
C64   C65   A    
C55   F7    S    
C44   Cl12  S    
C25   C26   A    
C54   H2    S    
O3    Zn5   S    
C16   O13   A    
O16   Zn2   S    
C30   Cl9   S    
O21   Zn4   S    
C31   Cl10  S    
C5    C6    A    
O22   Zn3   S    
C39   O7    A    
O15   Zn1   S    
C32   C43   S    
C22   C24   A    
C59   H3    S    
C50   Cl4   S    
C61   C62   A    
C59   F8    S    
C3    C11   S    
C10   C11   S    
C1    O4    A    
C7    Cl1   S    
C37   O2    A    
C20   C21   S    
C49   C50   S    
C33   O19   A    
C14   C15   A    
C2    F2    S    
C51   C60   S    
C14   C28   S    
O24   Zn5   S    
C18   C36   S    
C1    O1    A    
O11   Zn2   S    
C10   Cl6   S    
