data_mof_unit_40867.cif
_audit_creation_date              2013-03-05T16:12:27-0500
_audit_creation_method            fapswitch 2.2
_symmetry_space_group_name_H-M    P1
_symmetry_Int_Tables_number       1
_space_group_crystal_system       triclinic
_cell_length_a                    10.658954
_cell_length_b                    9.811078
_cell_length_c                    23.440863
_cell_angle_alpha                 90.057293
_cell_angle_beta                  90.311653
_cell_angle_gamma                 90.701347
_cell_volume                      2451.12637799

loop_
_atom_site_label
_atom_site_type_symbol
_atom_site_description
_atom_site_fract_x
_atom_site_fract_y
_atom_site_fract_z
_atom_type_partial_charge
O1    O     O_R   0.316770 0.614620 0.500000 -0.614857
O2    O     O_R   0.683230 0.385380 0.500000 -0.624023
O3    O     O_R   0.683230 0.614620 0.500000 -0.594259
O4    O     O_R   0.316770 0.385380 0.500000 -0.596661
C1    C     C_R   0.260158 0.499101 0.499537 1.009876
C2    C     C_R   0.739732 0.500901 0.500317 1.023227
O5    O     O_R   0.499970 0.614690 0.416160 -0.613804
O6    O     O_R   0.500030 0.385310 0.583840 -0.554383
O7    O     O_R   0.500030 0.614690 0.583840 -0.650530
O8    O     O_R   0.499970 0.385310 0.416160 -0.588801
C3    C     C_R   0.501906 0.499897 0.389175 1.012687
C4    C     C_R   0.499990 0.499846 0.610917 0.992124
Zn1   Zn    Zn3+2 0.500000 0.653120 0.500000 1.013651
Zn2   Zn    Zn3+2 0.500000 0.346880 0.500000 1.036826
C5    C     C_R   0.629319 0.522516 0.880548 0.583264
C6    C     C_R   0.411041 0.507453 0.119917 0.578644
N1    N     N_R   0.516584 0.511675 0.852834 -0.331861
N2    N     N_R   0.523807 0.514660 0.147780 -0.330464
C7    C     C_R   0.405312 0.502977 0.881318 0.502631
C8    C     C_R   0.635269 0.523131 0.119451 0.511054
C9    C     C_R   0.404293 0.505683 0.940808 -0.017579
C10   C     C_R   0.636275 0.524910 0.059875 -0.020544
C11   C     C_R   0.519529 0.515892 0.970348 -0.018267
C12   C     C_R   0.520992 0.516567 0.030261 -0.018011
C13   C     C_R   0.633301 0.524468 0.940118 -0.044500
C14   C     C_R   0.407160 0.507929 0.060421 -0.042209
C15   C     C_R   0.291425 0.497786 0.971241 -0.152060
C16   C     C_R   0.749074 0.533966 0.029399 -0.150588
C17   C     C_R   0.292835 0.499132 0.030588 -0.151123
C18   C     C_R   0.747587 0.533972 0.969989 -0.150425
O9    O     O_2   0.736694 0.530756 0.850426 -0.508116
O10   O     O_2   0.303424 0.499207 0.149891 -0.512097
O11   O     O_2   0.296358 0.491561 0.851963 -0.560407
O12   O     O_2   0.744262 0.529450 0.148969 -0.554404
H1    H     H_    0.201834 0.490258 0.949356 0.195368
H2    H     H_    0.838682 0.540737 0.051304 0.194987
H3    H     H_    0.204296 0.492571 0.052947 0.195317
H4    H     H_    0.836086 0.540750 0.947610 0.194497
C19   C     C_R   0.536660 0.386922 0.236196 -0.284753
C20   C     C_R   0.509644 0.383108 0.764420 -0.283310
H5    H     H_    0.547542 0.294608 0.211431 0.162547
H6    H     H_    0.513732 0.290371 0.789329 0.160329
C21   C     C_R   0.531936 0.380510 0.295616 0.464367
C22   C     C_R   0.500991 0.377029 0.704977 0.497329
C23   C     C_R   0.509693 0.501029 0.326855 -0.154346
C24   C     C_R   0.502721 0.500109 0.673482 -0.153177
C25   C     C_R   0.498547 0.626075 0.298200 -0.294725
C26   C     C_R   0.508565 0.625922 0.702248 -0.370053
H7    H     H_    0.480611 0.719278 0.321439 0.200397
H8    H     H_    0.511643 0.721048 0.678853 0.191500
C27   C     C_R   0.508531 0.632331 0.239068 0.522873
C28   C     C_R   0.512266 0.630540 0.761639 0.536870
C29   C     C_R   0.524675 0.511677 0.208352 0.173379
C30   C     C_R   0.514336 0.508555 0.792254 0.179391
C31   C     C_R   0.064556 0.426206 0.541987 0.222740
C32   C     C_R   0.934951 0.574740 0.457829 0.216787
C33   C     C_R   0.935053 0.430062 0.543616 0.205355
C34   C     C_R   0.064608 0.570905 0.456197 0.203435
C35   C     C_R   0.872019 0.503323 0.501092 -0.371580
C36   C     C_R   0.127680 0.496710 0.498537 -0.366346
C37   C     C_R   0.585184 0.073255 0.532096 -0.061842
C38   C     C_R   0.415443 0.926771 0.467576 -0.052629
C39   C     C_R   0.415305 0.070864 0.467647 -0.025595
C40   C     C_R   0.584979 0.929152 0.532202 -0.047915
H9    H     H_    0.652693 0.129015 0.557960 0.203757
H10   H     H_    0.348095 0.871026 0.441617 0.184174
H11   H     H_    0.347813 0.124733 0.441769 0.172119
H12   H     H_    0.652514 0.875309 0.558069 0.160734
N3    N     N_R   0.500000 0.857200 0.500000 -0.097272
N4    N     N_R   0.500000 0.142800 0.500000 -0.111873
O13   O     O_3   0.539189 0.255605 0.322783 -0.589099
C41   C     C_3   0.663714 0.208489 0.320158 0.083485
H13   H     H_    0.732724 0.289152 0.333333 0.179619
H14   H     H_    0.685744 0.173431 0.276255 0.146219
C42   C     C_3   0.678126 0.088483 0.360627 -0.704378
H15   H     H_    0.607218 0.008004 0.350555 0.245620
H16   H     H_    0.773370 0.045132 0.356390 0.241759
H17   H     H_    0.665294 0.122891 0.405312 0.258549
O14   O     O_3   0.502477 0.251916 0.677452 -0.574977
C43   C     C_3   0.391950 0.177385 0.690334 0.123499
H18   H     H_    0.306675 0.240134 0.683809 0.210965
H19   H     H_    0.394228 0.140210 0.735042 0.129287
C44   C     C_3   0.382240 0.053895 0.651232 -0.709627
H20   H     H_    0.466209 0.989073 0.656516 0.232120
H21   H     H_    0.297048 0.992939 0.661779 0.215221
H22   H     H_    0.375393 0.087364 0.606174 0.282946
O15   O     O_3   0.490509 0.753806 0.210511 -0.588474
C45   C     C_3   0.600002 0.835239 0.216081 0.104488
H23   H     H_    0.683148 0.781436 0.198860 0.186244
H24   H     H_    0.617923 0.863095 0.261470 0.149773
C46   C     C_3   0.583181 0.966085 0.182312 -0.771817
H25   H     H_    0.503275 0.024450 0.199660 0.268753
H26   H     H_    0.669729 0.029869 0.185361 0.204207
H27   H     H_    0.564512 0.941803 0.136734 0.262861
O16   O     O_3   0.524559 0.753311 0.790222 -0.587001
C47   C     C_3   0.407670 0.819275 0.790127 0.087437
H28   H     H_    0.330906 0.750319 0.805277 0.182968
H29   H     H_    0.384349 0.856400 0.746607 0.143471
C48   C     C_3   0.415006 0.941051 0.830252 -0.774544
H30   H     H_    0.491497 0.011725 0.816849 0.260420
H31   H     H_    0.324707 0.996306 0.829459 0.214120
H32   H     H_    0.433981 0.905984 0.874475 0.261339
N5    N     N_R   0.132318 0.359332 0.586649 0.229008
O17   O     O_R   0.137443 0.413378 0.637312 -0.383657
O18   O     O_R   0.171806 0.235818 0.578973 -0.371796
N6    N     N_R   0.866759 0.641490 0.413193 0.249157
O19   O     O_R   0.816165 0.570015 0.372154 -0.425461
O20   O     O_R   0.843723 0.771079 0.416933 -0.345221
N7    N     N_R   0.868142 0.363087 0.589003 0.243479
O21   O     O_R   0.892332 0.237280 0.602173 -0.318534
O22   O     O_R   0.788098 0.430274 0.619470 -0.383080
N8    N     N_R   0.131507 0.636060 0.410357 0.233661
O23   O     O_R   0.109179 0.762159 0.397008 -0.331184
O24   O     O_R   0.211335 0.567587 0.380269 -0.398672

loop_
_geom_bond_atom_site_label_1
_geom_bond_atom_site_label_2
_geom_bond_distance
_ccdc_geom_bond_type
C37   N4    1.365565 A    
O15   C45   1.411646 S    
C15   C17   1.391197 A    
C41   H14   1.111954 S    
O16   C47   1.410974 S    
O3    C2    1.274360 A    
N8    O24   1.300885 A    
C25   H7    1.083462 S    
O5    C3    1.291609 A    
Zn1   N3    2.002245 S    
C34   N8    1.438830 S    
C40   H12   1.081715 S    
C7    C9    1.394825 A    
C12   C14   1.409296 A    
C26   C28   1.393203 A    
N7    O22   1.300747 A    
C33   C35   1.402721 A    
N6    O19   1.300662 A    
C34   C36   1.404663 A    
C47   C48   1.520806 S    
C31   N5    1.432810 S    
C18   H4    1.083220 S    
C28   O16   1.382213 S    
O7    Zn1   2.001492 S    
N2    C29   1.420171 S    
C33   N7    1.438933 S    
C44   H20   1.110735 S    
C28   C30   1.396429 A    
C47   H29   1.111464 S    
O6    Zn2   2.000750 S    
C11   C12   1.404418 A    
C39   N4    1.365322 A    
N2    C8    1.365897 A    
O3    Zn1   1.993765 S    
C8    O12   1.349699 S    
C20   H6    1.082782 S    
C9    C15   1.403362 A    
C10   C16   1.403809 A    
C31   C36   1.402128 A    
Zn2   N4    2.002245 S    
O2    C2    1.276930 A    
C41   C42   1.521453 S    
N8    O23   1.300886 A    
O7    C4    1.293757 A    
C22   C24   1.415958 A    
C39   H11   1.081690 S    
C23   C25   1.405275 A    
C6    C14   1.395029 A    
C24   C26   1.406485 A    
C38   H10   1.081528 S    
C19   H5    1.083048 S    
O8    Zn2   2.001494 S    
C27   O15   1.382445 S    
C46   H25   1.110821 S    
C41   H13   1.116037 S    
C25   C27   1.392119 A    
C15   H1    1.083249 S    
C38   N3    1.365474 A    
C27   C29   1.397823 A    
C4    C24   1.466712 S    
C37   C40   1.413783 A    
C42   H15   1.110629 S    
C38   C39   1.413721 A    
C46   H26   1.110316 S    
C42   H16   1.110392 S    
C48   H30   1.110684 S    
C45   C46   1.520804 S    
O5    Zn1   2.000752 S    
O6    C4    1.290034 A    
C47   H28   1.115075 S    
C48   H32   1.110872 S    
N5    O18   1.300341 A    
C40   N3    1.365438 A    
C26   H8    1.083185 S    
C21   C23   1.413352 A    
C32   N6    1.434117 S    
C43   H19   1.110237 S    
C48   H31   1.110505 S    
C8    C10   1.396730 A    
C20   C30   1.392666 A    
C31   C33   1.382078 A    
C7    O11   1.350073 S    
O1    C1    1.277465 A    
C3    C23   1.463680 S    
O1    Zn1   1.984687 S    
C43   C44   1.520662 S    
C13   C18   1.403825 A    
C5    N1    1.365835 A    
C21   O13   1.384413 S    
C1    C36   1.412059 S    
C44   H21   1.110315 S    
C2    C35   1.409959 S    
C22   O14   1.386468 S    
C45   H24   1.113155 S    
C43   H18   1.113978 S    
C19   C21   1.395491 A    
C5    O9    1.349681 S    
C6    O10   1.350054 S    
C32   C35   1.402386 A    
C9    C11   1.409198 A    
O13   C41   1.412464 S    
N7    O21   1.301137 A    
C46   H27   1.110782 S    
C19   C29   1.394621 A    
N6    O20   1.300819 A    
O4    C1    1.274955 A    
C16   C18   1.392623 A    
N1    C7    1.366026 A    
C32   C34   1.383721 A    
C10   C12   1.409495 A    
C11   C13   1.409546 A    
O4    Zn2   1.993766 S    
O2    Zn2   1.984686 S    
C42   H17   1.109870 S    
C5    C13   1.396882 A    
O8    C3    1.290509 A    
O14   C43   1.413166 S    
C37   H9    1.081487 S    
C20   C22   1.397109 A    
C44   H22   1.108672 S    
C45   H23   1.114433 S    
C16   H2    1.083226 S    
C14   C17   1.403382 A    
C6    N2    1.365869 A    
C17   H3    1.083245 S    
N5    O17   1.300711 A    
N1    C30   1.420422 S    
