data_mof_unit_33464.cif
_audit_creation_date              2012-12-10T17:47:46-0500
_audit_creation_method            fapswitch 2.2
_symmetry_space_group_name_H-M    P1
_symmetry_Int_Tables_number       1
_space_group_crystal_system       triclinic
_cell_length_a                    10.696455
_cell_length_b                    10.754955
_cell_length_c                    9.896291
_cell_angle_alpha                 90.476565
_cell_angle_beta                  90.874253
_cell_angle_gamma                 92.99401
_cell_volume                      1136.73453355

loop_
_atom_site_label
_atom_site_type_symbol
_atom_type_description
_atom_site_fract_x
_atom_site_fract_y
_atom_site_fract_z
_atom_type_partial_charge
C1    C     C_R   0.505665 0.261286 0.499632 0.846381
C2    C     C_R   0.593936 0.073368 0.594362 0.077016
C3    C     C_R   0.517877 0.130620 0.498556 -0.076539
C4    C     C_R   0.257823 0.497602 0.499393 0.891917
C5    C     C_R   0.446439 0.063121 0.402721 -0.247997
C6    C     C_R   0.443986 0.935965 0.402233 -0.030875
C7    C     C_R   0.512208 0.874298 0.502566 -0.107310
C8    C     C_R   0.332980 0.336732 0.136771 -0.143473
C9    C     C_R   0.250311 0.256009 0.064690 -0.185078
C10   C     C_R   0.250414 0.255390 0.924699 -0.157675
C11   C     C_R   0.333142 0.335525 0.855982 -0.157716
C12   C     C_3   0.879047 0.502566 0.503368 -0.103145
C13   C     C_R   0.417539 0.419227 0.925733 0.171619
C14   C     C_R   0.417504 0.419500 0.070469 0.186077
C15   C     C_R   0.579446 0.576630 0.073671 -0.078112
C16   C     C_R   0.504826 0.740309 0.500939 0.881659
C17   C     C_R   0.579536 0.576364 0.930543 -0.066003
C18   C     C_R   0.742170 0.499962 0.501150 0.883786
C19   C     C_3   0.074762 0.490350 0.647751 -0.530389
C20   C     C_3   0.933318 0.502017 0.652120 0.564639
C21   C     C_3   0.079409 0.623632 0.433532 0.528993
C22   C     C_3   0.063528 0.386287 0.419696 -0.420365
C23   C     C_3   0.933902 0.616637 0.421319 -0.338594
C24   C     C_3   0.121583 0.500407 0.499537 -0.061074
C25   C     C_1   0.366225 0.872669 0.299166 0.243771
C26   C     C_1   0.906964 0.614671 0.730210 0.165698
C27   C     C_1   0.130861 0.733764 0.511750 0.147020
C28   C     C_1   0.876516 0.736046 0.451006 0.147783
C29   C     C_3   0.920030 0.382427 0.430851 -0.395852
C30   C     C_R   0.677391 0.143499 0.681846 -0.251690
C31   C     C_R   0.741773 0.086662 0.784938 -0.186631
C32   C     C_R   0.730232 0.958662 0.798248 0.668953
C33   C     C_R   0.659428 0.886616 0.703840 -0.257978
C34   C     C_R   0.587685 0.942754 0.601031 0.026134
F1    F     F_    0.126461 0.633779 0.303987 -0.645061
F2    F     F_    0.790022 0.904294 0.902057 -0.662716
F3    F     F_    0.882117 0.400510 0.721747 -0.682962
H1    H     H_    0.124677 0.561623 0.714394 0.182935
H2    H     H_    0.328435 0.331559 0.244030 0.187945
H3    H     H_    0.186108 0.193310 0.117935 0.158772
H4    H     H_    0.186217 0.192211 0.868809 0.168326
H5    H     H_    0.328393 0.328903 0.748603 0.199067
H6    H     H_    0.644904 0.638230 0.878740 0.167114
H7    H     H_    0.089800 0.391921 0.311447 0.231009
H8    H     H_    0.099487 0.298434 0.460097 0.166297
H9    H     H_    0.887368 0.298243 0.487677 0.217929
H10   H     H_    0.877678 0.373242 0.327540 0.197840
H11   H     H_    0.909023 0.597988 0.313014 0.228864
H12   H     H_    0.389315 0.110255 0.329469 0.150916
H13   H     H_    0.694728 0.242628 0.671728 0.237338
H14   H     H_    0.801427 0.142185 0.854119 0.199538
H15   H     H_    0.665562 0.787821 0.712196 0.178424
H16   H     H_    0.644374 0.639211 0.129193 0.168011
H17   H     H_    0.098693 0.398479 0.689477 0.233187
N1    N     N_R   0.498810 0.498800 0.142780 -0.129770
N2    N     N_R   0.498760 0.498720 0.857170 -0.130129
N3    N     N_1   0.304577 0.822948 0.215908 -0.093346
N4    N     N_1   0.888774 0.702727 0.792881 -0.127478
N5    N     N_1   0.171004 0.819402 0.572839 -0.198636
N6    N     N_1   0.832806 0.830173 0.472275 -0.183589
O1    O     O_R   0.500000 0.316780 0.614690 -0.645007
O2    O     O_R   0.499990 0.316750 0.385360 -0.642925
O3    O     O_R   0.314800 0.499990 0.614670 -0.654478
O4    O     O_R   0.314790 0.499970 0.385330 -0.580695
O5    O     O_R   0.500010 0.683250 0.614640 -0.627962
O6    O     O_R   0.500000 0.683220 0.385310 -0.604450
O7    O     O_R   0.685210 0.500030 0.614670 -0.595555
O8    O     O_R   0.685200 0.500010 0.385330 -0.631520
Zn1   Zn    Zn3+2 0.500010 0.500020 0.653130 0.954731
Zn2   Zn    Zn3+2 0.499990 0.499980 0.346870 0.973090

loop_
_geom_bond_atom_site_label_1
_geom_bond_atom_site_label_2
_ccdc_geom_bond_type
C17   H6    S    
C6    C7    A    
C21   F1    S    
C22   C29   S    
O4    Zn2   S    
C12   C29   S    
C26   N4    T    
C9    C10   A    
C4    O4    A    
C31   C32   A    
C12   C23   S    
C12   C18   S    
C29   H9    S    
C2    C30   A    
C13   N2    A    
C1    O2    A    
C2    C34   A    
C21   C23   S    
C14   N1    A    
C30   H13   S    
C3    C5    A    
O3    Zn1   S    
C15   N1    A    
C27   N5    T    
C23   C28   S    
C32   C33   A    
C33   H15   S    
O7    Zn1   S    
C20   F3    S    
C11   C13   A    
C4    O3    A    
C5    H12   S    
O6    Zn2   S    
C20   C26   S    
C12   C20   S    
C29   H10   S    
O5    Zn1   S    
C32   F2    S    
C19   H17   S    
C7    C16   S    
C19   H1    S    
C33   C34   A    
C2    C3    A    
C16   O5    A    
C17   N2    A    
C28   N6    T    
C21   C27   S    
C5    C6    A    
C4    C24   S    
C7    C34   A    
C22   C24   S    
N1    Zn2   S    
C16   O6    A    
C10   C11   A    
C18   O8    A    
C6    C25   S    
C15   H16   S    
C25   N3    T    
C22   H8    S    
O2    Zn2   S    
C11   H5    S    
O8    Zn2   S    
N2    Zn1   S    
C21   C24   S    
O1    Zn1   S    
C15   C17   A    
C8    H2    S    
C30   C31   A    
C8    C14   A    
C23   H11   S    
C1    C3    S    
C18   O7    A    
C13   C14   A    
C19   C24   S    
C9    H3    S    
C22   H7    S    
C19   C20   S    
C31   H14   S    
C8    C9    A    
C10   H4    S    
C1    O1    A    
