data_mof_unit_64345.cif
_audit_creation_date              2012-12-11T17:04:21-0500
_audit_creation_method            fapswitch 2.2
_symmetry_space_group_name_H-M    P1
_symmetry_Int_Tables_number       1
_space_group_crystal_system       triclinic
_cell_length_a                    6.966238
_cell_length_b                    17.352977
_cell_length_c                    18.753722
_cell_angle_alpha                 106.254554
_cell_angle_beta                  89.719054
_cell_angle_gamma                 90.499276
_cell_volume                      2176.33414704

loop_
_atom_site_label
_atom_site_type_symbol
_atom_type_description
_atom_site_fract_x
_atom_site_fract_y
_atom_site_fract_z
_atom_type_partial_charge
O1    O     O_R   0.494360 0.415680 0.413760 -0.533196
O2    O     O_R   0.818780 0.432910 0.557230 -0.524479
O3    O     O_R   0.994290 0.584320 0.586240 -0.527127
C1    C     C_R   0.649811 0.416008 0.580616 0.719846
O4    O     O_R   0.823730 0.406440 0.412520 -0.542836
O5    O     O_R   0.999270 0.557660 0.440500 -0.521749
C2    C     C_R   0.654812 0.383446 0.384787 0.698179
O6    O     O_R   0.489370 0.442340 0.559500 -0.525218
O7    O     O_3   0.662510 0.549640 0.509350 -0.357303
V1    V     V_3+5 0.935340 0.490790 0.498270 1.408278
O8    O     O_R   0.329300 0.567090 0.442770 -0.523208
C3    C     C_R   0.161191 0.584043 0.419430 0.718547
O9    O     O_R   0.324340 0.593560 0.587480 -0.534434
C4    C     C_R   0.155843 0.614564 0.616788 0.702916
V2    V     V_3+5 0.435970 0.509210 0.501730 1.412233
O10   O     O_3   0.158930 0.450360 0.490650 -0.364796
C5    C     C_R   0.973987 0.719606 0.711075 0.123741
C6    C     C_R   0.145549 0.677725 0.689326 -0.227739
C7    C     C_R   0.300936 0.696920 0.740986 0.329097
C8    C     C_R   0.288644 0.764493 0.803875 -0.191045
H1    H     H_    0.411407 0.780004 0.840500 0.155415
C9    C     C_R   0.120595 0.811089 0.819948 -0.195291
C10   C     C_R   0.960891 0.783599 0.774830 0.134108
C11   C     C_3   0.827760 0.828124 0.738668 -0.416614
C12   C     C_3   0.842687 0.758104 0.668756 -0.379569
H2    H     H_    0.892003 0.884780 0.732427 0.161502
H3    H     H_    0.682312 0.834285 0.764171 0.183481
H4    H     H_    0.916369 0.774059 0.622035 0.155068
H5    H     H_    0.705776 0.724209 0.653868 0.213593
C13   C     C_1   0.111926 0.863966 0.132644 -0.207213
C14   C     C_1   0.119359 0.821398 0.176223 0.004568
C15   C     C_1   0.128686 0.771174 0.228123 0.001161
C16   C     C_1   0.136656 0.728875 0.271927 -0.000077
C17   C     C_1   0.145981 0.678640 0.323818 0.000523
C18   C     C_1   0.153408 0.636052 0.367380 -0.216462
C19   C     C_1   0.641258 0.364090 0.632678 -0.214280
C20   C     C_1   0.637135 0.321498 0.676260 0.002641
C21   C     C_1   0.633856 0.271235 0.728147 0.000503
C22   C     C_1   0.631431 0.228890 0.771954 -0.000683
C23   C     C_1   0.628155 0.178624 0.823839 -0.001167
C24   C     C_1   0.624038 0.136022 0.867412 -0.214921
C25   C     C_R   0.487703 0.306830 0.267344 0.041275
C26   C     C_R   0.646088 0.317066 0.314952 -0.097806
C27   C     C_R   0.798127 0.262432 0.293488 -0.178710
H6    H     H_    0.921034 0.266828 0.329299 0.148430
C28   C     C_R   0.786698 0.197973 0.228357 -0.183691
H7    H     H_    0.899984 0.154386 0.215712 0.192063
C29   C     C_R   0.623710 0.185977 0.182622 -0.110846
C30   C     C_R   0.476160 0.242115 0.203116 0.031227
C31   C     C_3   0.270409 0.227302 0.218184 0.193160
C32   C     C_3   0.281755 0.299451 0.286434 -0.452310
H8    H     H_    0.172143 0.235205 0.174308 0.117442
H9    H     H_    0.262569 0.285050 0.340231 0.175799
H10   H     H_    0.196612 0.351327 0.280856 0.149024
O11   O     O_R   0.775950 0.057750 0.940570 -0.523367
O12   O     O_R   0.441430 0.093570 0.087490 -0.519745
O13   O     O_R   0.266040 0.942320 0.059480 -0.518470
C33   C     C_R   0.610427 0.116353 0.115464 0.718447
O14   O     O_R   0.446530 0.067110 0.942790 -0.528146
O15   O     O_R   0.271180 0.915660 0.913750 -0.540985
C34   C     C_R   0.615500 0.084073 0.919450 0.708736
O16   O     O_R   0.770810 0.084400 0.086300 -0.539875
O17   O     O_3   0.602860 0.950400 0.990690 -0.364412
V3    V     V_3+5 0.329970 0.009200 0.001730 1.435732
O18   O     O_R   0.941130 0.906360 0.912450 -0.535868
C35   C     C_R   0.110193 0.883042 0.885024 0.713824
O19   O     O_R   0.936030 0.932820 0.057160 -0.525816
C36   C     C_R   0.104130 0.915946 0.080567 0.736353
V4    V     V_3+5 0.829350 0.990680 0.998180 1.418905
O20   O     O_3   0.106340 0.049590 0.009310 -0.359318
O21   O     O_3   0.466485 0.652320 0.732622 -0.647460
H11   H     H_    0.433188 0.595661 0.707626 0.287907
O22   O     O_3   0.241997 0.153802 0.235174 -0.647812
H12   H     H_    0.332428 0.150908 0.275144 0.300319

loop_
_geom_bond_atom_site_label_1
_geom_bond_atom_site_label_2
_ccdc_geom_bond_type
C33   O16   A    
C1    C19   S    
O22   H12   S    
C4    C6    S    
C7    O21   S    
C7    C8    A    
C11   H3    S    
C24   C34   S    
C1    O6    A    
C12   H4    S    
O14   V3    S    
C5    C10   A    
C19   C20   T    
C11   H2    S    
C6    C7    A    
O5    C3    A    
C13   C14   T    
V2    O10   S    
C17   C18   T    
C9    C35   S    
O8    V2    S    
O17   V4    S    
C31   H8    S    
C10   C11   S    
O12   V3    S    
O1    V2    S    
V3    O20   S    
O7    V1    S    
C25   C32   S    
O15   C35   A    
O9    C4    A    
C27   C28   A    
C16   C17   S    
C12   H5    S    
C28   C29   A    
O14   C34   A    
O19   C36   A    
C11   C12   S    
C31   O22   S    
C22   C23   S    
O4    C2    A    
C31   C32   S    
O16   V4    S    
C32   H9    S    
O2    C1    A    
C26   C27   A    
C20   C21   S    
C14   C15   S    
C5    C6    A    
C3    C18   S    
O11   V4    S    
O3    C4    A    
C23   C24   T    
C8    C9    A    
O18   C35   A    
O6    V2    S    
C2    C26   S    
O9    V2    S    
C25   C26   A    
O13   C36   A    
O2    V1    S    
C27   H6    S    
O13   V3    S    
C28   H7    S    
C29   C30   A    
O1    C2    A    
O5    V1    S    
O8    C3    A    
C29   C33   S    
O15   V3    S    
C32   H10   S    
C5    C12   S    
C15   C16   T    
O7    V2    S    
O21   H11   S    
O3    V1    S    
V1    O10   S    
C21   C22   T    
O18   V4    S    
O11   C34   A    
O12   C33   A    
V4    O20   S    
C25   C30   A    
O17   V3    S    
O4    V1    S    
C8    H1    S    
C30   C31   S    
C9    C10   A    
O19   V4    S    
C13   C36   S    
