data_mof_unit_32674.cif
_audit_creation_date              2012-12-11T16:05:03-0500
_audit_creation_method            fapswitch 2.2
_symmetry_space_group_name_H-M    P1
_symmetry_Int_Tables_number       1
_space_group_crystal_system       triclinic
_cell_length_a                    10.597861
_cell_length_b                    10.653067
_cell_length_c                    16.804865
_cell_angle_alpha                 98.687091
_cell_angle_beta                  99.001911
_cell_angle_gamma                 61.737106
_cell_volume                      1644.02889225

loop_
_atom_site_label
_atom_site_type_symbol
_atom_type_description
_atom_site_fract_x
_atom_site_fract_y
_atom_site_fract_z
_atom_type_partial_charge
C1    C     C_R   0.348740 0.787774 0.404846 0.541471
C2    C     C_3   0.661948 0.343655 0.230511 -0.168895
C3    C     C_3   0.737126 0.388416 0.307568 -0.012777
C4    C     C_3   0.886239 0.271105 0.286669 -0.136032
C5    C     C_3   0.899885 0.381086 0.243144 -0.160894
C6    C     C_3   0.750071 0.498069 0.264315 -0.069073
C7    C     C_3   0.680447 0.450219 0.186427 0.272005
C8    C     C_3   0.828031 0.336282 0.165163 0.046705
C9    C     C_3   0.434919 0.852887 0.233895 0.299509
C10   C     C_3   0.392953 0.746325 0.259808 -0.065205
C11   C     C_3   0.325300 0.854495 0.331539 -0.008042
C12   C     C_R   0.366309 0.343333 0.360228 0.543467
C13   C     C_3   0.370591 0.959965 0.307234 -0.168101
C14   C     C_3   0.223521 0.028081 0.254812 -0.203326
C15   C     C_3   0.178842 0.922692 0.281805 -0.134258
C16   C     C_3   0.247123 0.815491 0.210567 -0.005697
C17   C     C_3   0.290274 0.919237 0.182821 0.060188
C18   C     C_3   0.484916 0.289287 0.797646 -0.157355
C19   C     C_3   0.426895 0.434699 0.762074 -0.179052
C20   C     C_3   0.383563 0.368424 0.681628 0.002080
C21   C     C_3   0.443116 0.223143 0.716253 -0.099416
C22   C     C_3   0.292793 0.274339 0.741470 0.292533
C23   C     C_R   0.703092 0.416762 0.390756 0.571110
C24   C     C_3   0.232152 0.418593 0.706664 -0.084837
C25   C     C_3   0.275268 0.483178 0.788876 -0.161042
C26   C     C_3   0.334141 0.337774 0.822606 0.057842
C27   C     C_1   0.765654 0.369412 0.715737 -0.049701
C28   C     C_1   0.810848 0.330957 0.782537 -0.034077
C29   C     C_1   0.358408 0.764929 0.714743 -0.059000
C30   C     C_1   0.326539 0.811174 0.782380 -0.039164
C31   C     C_R   0.891536 0.310850 0.090510 0.531984
C32   C     C_R   0.291685 0.261778 0.122576 0.522826
C33   C     C_R   0.257936 0.957986 0.099769 0.536287
C34   C     C_R   0.379884 0.715577 0.631888 0.515526
C35   C     C_R   0.877671 0.302638 0.862505 0.555373
C36   C     C_R   0.310920 0.296727 0.894684 0.570286
C37   C     C_R   0.282591 0.879694 0.859980 0.559664
C38   C     C_R   0.410682 0.378284 0.601391 0.534055
C39   C     C_R   0.716522 0.411491 0.635427 0.516053
C40   C     C_1   0.324877 0.317306 0.278160 -0.072838
C41   C     C_1   0.305562 0.292684 0.207075 -0.068975
C42   C     C_3   0.812736 0.228599 0.208511 -0.042814
Cr1   Cr    Cr6+3 0.608340 0.611040 0.520430 1.000095
Cr2   Cr    Cr6+3 0.287650 0.601120 0.489350 1.002475
Cr3   Cr    Cr6+3 0.604040 0.287870 0.490280 0.992207
Cr4   Cr    Cr6+3 0.054020 0.052700 0.970850 1.037524
Cr5   Cr    Cr6+3 0.059230 0.375120 0.993390 1.061574
Cr6   Cr    Cr6+3 0.374950 0.061200 0.992340 1.056367
H1    H     H_    0.564278 0.329413 0.227425 0.116752
H2    H     H_    0.158750 0.143876 0.249174 0.102676
H3    H     H_    0.074299 0.949109 0.303004 0.130339
H4    H     H_    0.485335 0.499258 0.769716 0.097065
H5    H     H_    0.587227 0.238274 0.836925 0.129164
H6    H     H_    0.511589 0.116166 0.686539 0.129444
H7    H     H_    0.128972 0.469182 0.668037 0.144130
H8    H     H_    0.207828 0.588350 0.820678 0.137655
H9    H     H_    0.966478 0.201255 0.332078 0.134412
H10   H     H_    0.996533 0.397699 0.246958 0.119480
H11   H     H_    0.720334 0.606929 0.293573 0.150408
H12   H     H_    0.456154 0.630296 0.265809 0.115224
H13   H     H_    0.416896 0.020939 0.350053 0.124381
O1    O     O_R   0.751220 0.499230 0.435170 -0.510316
O2    O     O_R   0.297880 0.469080 0.560050 -0.505600
O3    O     O_R   0.489720 0.254590 0.564810 -0.522141
O4    O     O_R   0.725220 0.304230 0.585080 -0.509531
O5    O     O_3   0.500010 0.500010 0.500020 -0.319968
O6    O     O_R   0.171830 0.913880 0.057510 -0.510913
O7    O     O_R   0.940690 0.186050 0.054730 -0.522446
O8    O     O_R   0.920470 0.405720 0.075010 -0.498490
O9    O     O_R   0.196690 0.370460 0.084120 -0.479201
O10   O     O_R   0.412990 0.180750 0.091610 -0.523154
O11   O     O_R   0.366620 0.943130 0.065760 -0.470616
O12   O     O_R   0.477220 0.727600 0.436870 -0.519451
O13   O     O_R   0.160510 0.906330 0.879210 -0.510397
O14   O     O_R   0.930190 0.179050 0.889450 -0.492430
O15   O     O_R   0.909140 0.398170 0.896710 -0.494010
O16   O     O_R   0.186190 0.363460 0.918830 -0.478407
O17   O     O_R   0.401670 0.173200 0.913310 -0.505790
O18   O     O_R   0.356120 0.936130 0.900470 -0.475067
O19   O     O_3   0.162740 0.163010 0.985530 -0.300124
O20   O     O_R   0.258650 0.745120 0.411470 -0.512629
O21   O     O_R   0.297070 0.467240 0.395960 -0.483275
O22   O     O_R   0.488830 0.252610 0.387790 -0.530050
O23   O     O_R   0.724400 0.302390 0.420980 -0.490085
O24   O     O_R   0.752100 0.501210 0.612190 -0.491044
O25   O     O_R   0.478040 0.729440 0.600970 -0.509182
O26   O     O_R   0.259530 0.747110 0.588490 -0.519020
C43   C     C_1   0.182282 0.730172 0.162207 0.239284
N1    N     N_1   0.130464 0.663657 0.123997 -0.269544
O27   O     O_3   0.217170 0.193242 0.732883 -0.548917
C44   C     C_3   0.224458 0.124293 0.653729 -0.019219
H14   H     H_    0.327001 0.023355 0.651036 0.162646
H15   H     H_    0.217655 0.191831 0.606900 0.133064
C45   C     C_3   0.099482 0.089335 0.632162 -0.330458
H16   H     H_    0.997973 0.190073 0.628837 0.182080
H17   H     H_    0.109408 0.027364 0.572100 0.136440
H18   H     H_    0.096649 0.026880 0.678458 0.177538
C46   C     C_1   0.844768 0.086182 0.169214 0.202885
N2    N     N_1   0.869942 0.975585 0.135188 -0.302740
O28   O     O_3   0.580445 0.545117 0.130548 -0.519949
C47   C     C_3   0.519788 0.473226 0.072683 -0.003200
H19   H     H_    0.432598 0.466850 0.098233 0.161743
H20   H     H_    0.600291 0.362982 0.052605 0.125462
C48   C     C_3   0.456568 0.556813 0.998444 -0.328640
H21   H     H_    0.375337 0.667306 0.015406 0.205905
H22   H     H_    0.403780 0.504750 0.953670 0.084718
H23   H     H_    0.543005 0.560425 0.970556 0.157810
O29   O     O_3   0.566736 0.808414 0.201800 -0.504254
C49   C     C_3   0.648291 0.870027 0.249883 -0.017888
H24   H     H_    0.654620 0.858951 0.315451 0.110492
H25   H     H_    0.600599 0.985188 0.239678 0.160847
C50   C     C_3   0.801678 0.793182 0.226135 -0.317985
H26   H     H_    0.862087 0.851107 0.256793 0.116831
H27   H     H_    0.859066 0.682915 0.244956 0.140486
H28   H     H_    0.800534 0.786562 0.159522 0.218138

loop_
_geom_bond_atom_site_label_1
_geom_bond_atom_site_label_2
_ccdc_geom_bond_type
Cr1   O12   S    
C37   O13   A    
C47   H19   S    
C18   C21   S    
Cr2   O5    S    
C2    C7    S    
C1    C11   S    
C25   H8    S    
C3    C6    S    
C50   H27   S    
C7    C8    S    
C14   H2    S    
C9    O29   S    
C37   O18   A    
C35   O14   A    
C5    H10   S    
Cr6   O18   S    
C8    C42   S    
Cr5   O15   S    
Cr2   O21   S    
C36   O16   A    
C49   H25   S    
C5    C6    S    
C1    O20   A    
C15   C16   S    
O29   C49   S    
C18   C19   S    
C34   O25   A    
Cr6   O17   S    
C9    C13   S    
C48   H21   S    
C33   O11   A    
C3    C23   S    
C19   H4    S    
C23   O1    A    
Cr5   O8    S    
C20   C24   S    
C28   C35   S    
C27   C39   S    
C16   C17   S    
C18   C26   S    
C4    H9    S    
C32   C41   S    
C15   H3    S    
Cr2   O26   S    
C9    C10   S    
C18   H5    S    
C47   H20   S    
C21   C22   S    
C39   O4    A    
C14   C17   S    
Cr3   O22   S    
C17   C33   S    
Cr5   O19   S    
Cr6   O11   S    
C48   H22   S    
Cr4   O14   S    
C32   O10   A    
C38   O3    A    
Cr2   O2    S    
C31   O7    A    
C35   O15   A    
C7    O28   S    
Cr1   O24   S    
C24   C25   S    
Cr2   O20   S    
C23   O23   A    
C49   C50   S    
C44   H14   S    
C32   O9    A    
C45   H18   S    
C25   C26   S    
C29   C34   S    
C12   O22   A    
C24   H7    S    
C12   C40   S    
C10   H12   S    
Cr5   O9    S    
Cr4   O7    S    
C29   C30   T    
C2    H1    S    
C44   H15   S    
C20   C38   S    
C22   O27   S    
C12   O21   A    
C20   C21   S    
C45   H17   S    
C9    C17   S    
C40   C41   T    
C47   C48   S    
C11   C15   S    
Cr3   O4    S    
C22   C24   S    
Cr3   O23   S    
Cr5   O16   S    
Cr6   O10   S    
C3    C4    S    
Cr4   O13   S    
C33   O6    A    
C38   O2    A    
C26   C36   S    
C8    C31   S    
C6    H11   S    
C4    C5    S    
C5    C8    S    
C6    C7    S    
Cr3   O3    S    
C1    O12   A    
Cr6   O19   S    
C19   C20   S    
C42   C46   S    
C2    C3    S    
Cr4   O6    S    
C36   O17   A    
C49   H24   S    
C44   C45   S    
Cr4   O19   S    
C11   C13   S    
O27   C44   S    
C21   H6    S    
C4    C42   S    
C2    C42   S    
Cr1   O5    S    
O28   C47   S    
C50   H26   S    
C34   O26   A    
C50   H28   S    
C45   H16   S    
C19   C25   S    
Cr1   O25   S    
C10   C11   S    
C31   O8    A    
C13   H13   S    
C43   N1    T    
C30   C37   S    
C46   N2    T    
C22   C26   S    
Cr3   O5    S    
C16   C43   S    
C39   O24   A    
C14   C15   S    
C10   C16   S    
C13   C14   S    
C48   H23   S    
Cr1   O1    S    
C27   C28   T    
