data_mof_unit_13396.cif
_audit_creation_date              2013-03-05T16:41:35-0500
_audit_creation_method            fapswitch 2.2
_symmetry_space_group_name_H-M    P1
_symmetry_Int_Tables_number       1
_space_group_crystal_system       triclinic
_cell_length_a                    12.914822
_cell_length_b                    10.737751
_cell_length_c                    9.88948
_cell_angle_alpha                 88.364207
_cell_angle_beta                  96.067864
_cell_angle_gamma                 91.390199
_cell_volume                      1362.88419919

loop_
_atom_site_label
_atom_site_type_symbol
_atom_site_description
_atom_site_fract_x
_atom_site_fract_y
_atom_site_fract_z
_atom_type_partial_charge
O1    O     O_R   0.500010 0.316790 0.614690 -0.629194
O2    O     O_R   0.500000 0.316760 0.385350 -0.573557
C1    C     C_R   0.500043 0.260199 0.501438 0.906908
O3    O     O_R   0.346360 0.499990 0.595720 -0.626604
O4    O     O_R   0.346350 0.499960 0.366370 -0.633418
C2    C     C_R   0.299024 0.508072 0.473715 0.915951
Zn1   Zn    Zn3+2 0.500010 0.500020 0.653130 0.998999
Zn2   Zn    Zn3+2 0.499990 0.499980 0.346870 1.015721
O5    O     O_R   0.500000 0.683240 0.614650 -0.600698
O6    O     O_R   0.499990 0.683210 0.385310 -0.616021
O7    O     O_R   0.653650 0.500040 0.633630 -0.621187
O8    O     O_R   0.653640 0.500010 0.404280 -0.626495
C3    C     C_R   0.504479 0.739380 0.498730 0.871872
C4    C     C_R   0.702032 0.493421 0.525645 0.867845
C5    C     C_R   0.815736 0.490693 0.538789 -0.156049
C6    C     C_R   0.188726 0.528049 0.455729 -0.065792
C7    C     C_R   0.027617 0.538614 0.310179 -0.008750
C8    C     C_R   0.135327 0.535399 0.325450 -0.210578
C9    C     C_R   0.136460 0.542096 0.569512 -0.199921
C10   C     C_R   0.029269 0.533980 0.557329 0.143382
C11   C     C_R   0.973308 0.522547 0.427057 0.076395
C12   C     C_R   0.867520 0.489247 0.419667 -0.091821
C13   C     C_R   0.873964 0.497956 0.667588 -0.025155
C14   C     C_R   0.979645 0.523400 0.675470 -0.188588
H1    H     H_    0.024212 0.529003 0.774602 0.158896
H2    H     H_    0.177178 0.538531 0.235840 0.165349
H3    H     H_    0.179281 0.549346 0.669142 0.168278
C15   C     C_R   0.431590 0.056656 0.569051 0.064389
C16   C     C_R   0.501892 0.128229 0.501171 -0.095457
C17   C     C_R   0.564303 0.071348 0.413619 -0.114663
H4    H     H_    0.614407 0.127436 0.353396 0.182778
C18   C     C_R   0.565170 0.942112 0.407837 -0.010789
C19   C     C_R   0.504702 0.871137 0.493766 -0.073351
C20   C     C_R   0.437558 0.930023 0.570323 -0.087513
C21   C     C_3   0.414036 0.913601 0.714918 0.139320
C22   C     C_3   0.403142 0.055467 0.712553 0.020054
H5    H     H_    0.461754 0.103842 0.783988 0.152972
C23   C     C_R   0.414453 0.459921 0.060858 0.079578
N1    N     N_R   0.499290 0.499140 0.142710 -0.099656
C24   C     C_R   0.580054 0.552832 0.081217 0.002810
H6    H     H_    0.645545 0.593804 0.142820 0.147285
C25   C     C_R   0.580135 0.552614 0.937429 0.018998
H7    H     H_    0.645066 0.594570 0.891089 0.161043
N2    N     N_R   0.499290 0.499180 0.857070 -0.112510
C26   C     C_R   0.412162 0.464531 0.917969 0.093867
C27   C     C_3   0.357094 0.340793 0.907996 -0.296699
C28   C     C_3   0.363185 0.333924 0.062301 0.077843
H8    H     H_    0.403055 0.271721 0.861703 0.205357
H9    H     H_    0.287253 0.333969 0.106405 0.117291
C29   C     C_1   0.818673 0.428325 0.298972 0.221036
N3    N     N_1   0.779893 0.378600 0.203684 -0.142181
N4    N     N_R   0.502486 0.872766 0.810471 0.217677
O9    O     O_R   0.597810 0.897577 0.784907 -0.383247
O10   O     O_R   0.486260 0.833440 0.932351 -0.371190
N5    N     N_R   0.295946 0.094209 0.720577 0.193458
O11   O     O_R   0.252594 0.072188 0.832047 -0.352252
O12   O     O_R   0.242819 0.148973 0.617357 -0.373454
C30   C     C_1   0.248435 0.346417 0.848011 0.308565
N6    N     N_1   0.161986 0.346534 0.803589 -0.158413
N7    N     N_R   0.431416 0.234456 0.119412 0.253402
O13   O     O_R   0.527677 0.230186 0.091868 -0.382338
O14   O     O_R   0.391193 0.139712 0.181753 -0.343035
C31   C     C_1   0.831143 0.462338 0.792495 0.253613
N8    N     N_1   0.797295 0.431336 0.892115 -0.168855
C32   C     C_1   0.977209 0.568808 0.176283 0.188231
N9    N     N_1   0.937645 0.594801 0.069125 -0.182592
C33   C     C_1   0.634530 0.885831 0.322810 0.263737
N10   N     N_1   0.690135 0.840857 0.254762 -0.159219
C34   C     C_1   0.318496 0.837318 0.726214 0.319362
N11   N     N_1   0.243462 0.778177 0.735788 -0.191023

loop_
_geom_bond_atom_site_label_1
_geom_bond_atom_site_label_2
_geom_bond_distance
_ccdc_geom_bond_type
O4    Zn2   2.013765 S    
Zn1   O7    2.013764 S    
N5    O11   1.301464 A    
C3    C19   1.414162 S    
C16   C17   1.404998 A    
Zn2   N1    2.018378 S    
Zn2   O8    2.005451 S    
C9    H3    1.081561 S    
C7    C32   1.444236 S    
C21   C22   1.532483 S    
C8    H2    1.085027 S    
C12   C29   1.454646 S    
C13   C14   1.379922 A    
C18   C19   1.409710 A    
N4    O10   1.301961 A    
C5    C13   1.412221 A    
C7    C8    1.384433 A    
C30   N6    1.155793 T    
C15   C20   1.363426 A    
C28   H9    1.114619 S    
C22   N5    1.465959 S    
O1    Zn1   2.014495 S    
Zn1   N2    2.017626 S    
C14   H1    1.085544 S    
C33   N10   1.157297 T    
C17   C18   1.390883 A    
C21   C34   1.476739 S    
C23   C28   1.492127 S    
O4    C2    1.285759 A    
C25   N2    1.368374 A    
N7    O13   1.302653 A    
C18   C33   1.445408 S    
Zn2   O6    2.014493 S    
C22   H5    1.109373 S    
O8    C4    1.294172 A    
C19   C20   1.384810 A    
O2    C1    1.283339 A    
C34   N11   1.156461 T    
N5    O12   1.302232 A    
C6    C9    1.385573 A    
C17   H4    1.085464 S    
O7    C4    1.297496 A    
C27   H8    1.100097 S    
C13   C31   1.444017 S    
O3    C2    1.295268 A    
C25   H7    1.080420 S    
C2    C6    1.437304 S    
C31   N8    1.156618 T    
C15   C16   1.389661 A    
C26   C27   1.492548 S    
C21   N4    1.470552 S    
C1    C16   1.417927 S    
C23   N1    1.357431 A    
C10   C11   1.416004 A    
C15   C22   1.502703 S    
C6    C8    1.396704 A    
C20   C21   1.497677 S    
O2    Zn2   1.993144 S    
N1    C24   1.369332 A    
Zn1   O5    1.993144 S    
O5    C3    1.286005 A    
C27   C28   1.519468 S    
C27   C30   1.466598 S    
C23   C26   1.409755 A    
C24   H6    1.080930 S    
C4    C5    1.461390 S    
C29   N3    1.157546 T    
O3    Zn1   2.005452 S    
C28   N7    1.463636 S    
C11   C12   1.398736 A    
C32   N9    1.156539 T    
C10   C14   1.391352 A    
C5    C12   1.415423 A    
N7    O14   1.300465 A    
N2    C26   1.370212 A    
C9    C10   1.377696 A    
N4    O9    1.302503 A    
C24   C25   1.422171 A    
O1    C1    1.289428 A    
O6    C3    1.283927 A    
C7    C11   1.418398 A    
