data_mof_unit_46757.cif
_audit_creation_date              2012-12-10T18:57:08-0500
_audit_creation_method            fapswitch 2.2
_symmetry_space_group_name_H-M    P1
_symmetry_Int_Tables_number       1
_space_group_crystal_system       triclinic
_cell_length_a                    8.7194
_cell_length_b                    10.798543
_cell_length_c                    9.563211
_cell_angle_alpha                 89.849131
_cell_angle_beta                  98.167576
_cell_angle_gamma                 90.528486
_cell_volume                      891.269415614

loop_
_atom_site_label
_atom_site_type_symbol
_atom_type_description
_atom_site_fract_x
_atom_site_fract_y
_atom_site_fract_z
_atom_type_partial_charge
C1    C     C_R   0.501704 0.262454 0.500475 0.799331
C2    C     C_R   0.578983 0.936430 0.398622 -0.229315
C3    C     C_R   0.515007 0.870776 0.503735 -0.087221
C4    C     C_R   0.469770 0.935679 0.616767 0.044139
C5    C     C_3   0.323144 0.928083 0.681549 0.083845
C6    C     C_3   0.323891 0.069309 0.681864 -0.521679
C7    C     C_R   0.615088 0.559183 0.088208 0.206046
C8    C     C_R   0.395442 0.430409 0.060721 0.324693
C9    C     C_R   0.394909 0.432033 0.911487 -0.141869
C10   C     C_R   0.615603 0.558612 0.941142 0.251723
C11   C     C_3   0.657484 0.692674 0.939598 -0.491064
C12   C     C_R   0.203821 0.500256 0.463649 0.901175
C13   C     C_3   0.654882 0.693671 0.097872 -0.513092
C14   C     C_R   0.502894 0.737532 0.500367 0.816351
C15   C     C_R   0.796199 0.500470 0.536354 0.866512
C16   C     C_2   0.037704 0.500737 0.443823 -0.368123
C17   C     C_2   0.962344 0.500999 0.556174 -0.371045
C18   C     C_R   0.470012 0.063066 0.617246 0.075472
C19   C     C_R   0.513870 0.129378 0.503881 -0.071962
C20   C     C_R   0.578026 0.065685 0.398419 -0.220949
Cu1   Cu    Cu3+1 0.499990 0.499980 0.640670 0.942964
Cu2   Cu    Cu3+1 0.500010 0.500020 0.359330 0.954751
H1    H     H_    0.977241 0.500590 0.336240 0.168849
H2    H     H_    0.307980 0.379626 0.843591 0.148754
H3    H     H_    0.775076 0.708168 0.910328 0.189834
H4    H     H_    0.564945 0.750206 0.880663 0.210532
H5    H     H_    0.770522 0.711285 0.160344 0.193118
H6    H     H_    0.558867 0.750144 0.127819 0.211674
H7    H     H_    0.022824 0.501363 0.663746 0.171563
H8    H     H_    0.623170 0.115248 0.314276 0.154026
H9    H     H_    0.625492 0.888526 0.315144 0.153025
H10   H     H_    0.340687 0.885029 0.788404 0.139346
H11   H     H_    0.227101 0.112411 0.610349 0.194307
H12   H     H_    0.344945 0.108998 0.789924 0.176048
N1    N     N_R   0.500980 0.500930 0.148050 -0.203518
N2    N     N_R   0.500990 0.500890 0.852140 -0.200767
O1    O     O_R   0.500000 0.319640 0.618810 -0.581562
O2    O     O_R   0.500020 0.319680 0.381230 -0.561940
O3    O     O_R   0.274830 0.499980 0.591380 -0.577355
O4    O     O_R   0.274850 0.500020 0.353800 -0.566857
O5    O     O_R   0.499980 0.680320 0.618770 -0.578785
O6    O     O_R   0.500000 0.680360 0.381190 -0.592115
O7    O     O_R   0.725150 0.499980 0.646200 -0.588380
O8    O     O_R   0.725170 0.500020 0.408620 -0.579310
N3    N     N_2   0.195140 0.874441 0.586072 -0.402556
H13   H     H_    0.178178 0.911848 0.485636 0.258958
C21   C     C_3   0.053328 0.856343 0.645815 -0.680908
H14   H     H_    0.966676 0.807561 0.568265 0.222917
H15   H     H_    0.005403 0.947133 0.671592 0.225510
H16   H     H_    0.075018 0.798528 0.742774 0.227401
N4    N     N_2   0.281378 0.360326 0.118825 -0.371330
H17   H     H_    0.170751 0.392289 0.087190 0.228058
C22   C     C_3   0.291166 0.227646 0.102257 -0.697498
H18   H     H_    0.249827 0.200749 0.991261 0.191577
H19   H     H_    0.216869 0.180817 0.171812 0.228219
H20   H     H_    0.412172 0.195930 0.132419 0.238482

loop_
_geom_bond_atom_site_label_1
_geom_bond_atom_site_label_2
_ccdc_geom_bond_type
C12   O4    A    
C7    C10   A    
C13   H6    S    
Cu1   O7    S    
C9    N2    A    
C17   H7    S    
C19   C20   A    
Cu1   O3    S    
C6    H11   S    
C1    O1    A    
C14   O6    A    
C5    H10   S    
Cu2   O4    S    
C16   H1    S    
C12   O3    A    
N3    C21   S    
C2    C3    A    
C8    C9    A    
C4    C18   A    
C9    H2    S    
Cu1   N2    S    
C20   H8    S    
C22   H18   S    
Cu2   N1    S    
C11   C13   S    
C8    N4    S    
Cu2   O6    S    
C3    C14   S    
C5    N3    S    
C1    O2    A    
C14   O5    A    
Cu1   O5    S    
C4    C5    S    
C15   O8    A    
C21   H16   S    
C22   H19   S    
C5    C6    S    
C6    C18   S    
C1    C19   S    
C16   C17   D    
C10   C11   S    
C11   H3    S    
C15   O7    A    
N4    H17   S    
Cu2   O2    S    
C21   H14   S    
C6    H12   S    
C7    C13   S    
Cu1   O1    S    
C21   H15   S    
C18   C19   A    
C22   H20   S    
C15   C17   S    
C2    C20   A    
C13   H5    S    
C10   N2    A    
C12   C16   S    
C11   H4    S    
Cu1   Cu2   S    
C7    N1    A    
Cu2   O8    S    
C3    C4    A    
C2    H9    S    
N4    C22   S    
C8    N1    A    
N3    H13   S    
