data_mof_unit_62673.cif
_audit_creation_date              2012-12-10T17:21:05-0500
_audit_creation_method            fapswitch 2.2
_symmetry_space_group_name_H-M    P1
_symmetry_Int_Tables_number       1
_space_group_crystal_system       triclinic
_cell_length_a                    38.491277
_cell_length_b                    21.689186
_cell_length_c                    21.740892
_cell_angle_alpha                 89.999944
_cell_angle_beta                  56.113958
_cell_angle_gamma                 89.999974
_cell_volume                      15067.4072824

loop_
_atom_site_label
_atom_site_type_symbol
_atom_type_description
_atom_site_fract_x
_atom_site_fract_y
_atom_site_fract_z
_atom_type_partial_charge
C1    C     C_R   0.000962 0.500081 0.380246 0.849772
C2    C     C_R   0.999039 0.500081 0.619753 0.849780
C3    C     C_R   0.500962 0.000081 0.380246 0.849773
C4    C     C_R   0.499038 0.000081 0.619754 0.849770
C5    C     C_3   0.708817 0.500144 0.792282 0.185411
C6    C     C_3   0.291183 0.500144 0.207718 0.185411
C7    C     C_3   0.208817 0.000144 0.792282 0.185412
C8    C     C_3   0.791183 0.000144 0.207718 0.185403
C9    C     C_3   0.764422 0.520117 0.791192 -0.150486
C10   C     C_3   0.235577 0.519841 0.208709 -0.150462
C11   C     C_3   0.264423 0.019700 0.791341 -0.150453
C12   C     C_3   0.735583 0.022006 0.209526 -0.150629
C13   C     C_3   0.736136 0.557658 0.774951 -0.156373
C14   C     C_3   0.263861 0.557607 0.224761 -0.156377
C15   C     C_3   0.236140 0.057580 0.775384 -0.156378
C16   C     C_3   0.763879 0.057974 0.227027 -0.156353
C17   C     C_1   0.837125 0.500072 0.663277 -0.070445
C18   C     C_1   0.162875 0.500073 0.336722 -0.070444
C19   C     C_1   0.337125 0.000073 0.663278 -0.070444
C20   C     C_1   0.662875 0.000072 0.336722 -0.070440
C21   C     C_1   0.662887 0.500112 0.838171 -0.069208
C22   C     C_1   0.337112 0.500112 0.161829 -0.069208
C23   C     C_1   0.162887 0.000112 0.838171 -0.069209
C24   C     C_1   0.837113 0.000113 0.161829 -0.069206
C25   C     C_R   0.030870 0.539382 0.251693 -0.105669
C26   C     C_R   0.969126 0.539375 0.748310 -0.105672
C27   C     C_R   0.530870 0.039383 0.251693 -0.105654
C28   C     C_R   0.469129 0.039380 0.748308 -0.105671
C29   C     C_R   0.031034 0.538046 0.186768 0.375434
C30   C     C_R   0.968961 0.538037 0.813236 0.375438
C31   C     C_R   0.531033 0.038048 0.186768 0.375433
C32   C     C_R   0.468965 0.038044 0.813233 0.375436
C33   C     C_R   0.001312 0.501672 0.184761 -0.121243
C34   C     C_R   0.998687 0.501671 0.815239 -0.121260
C35   C     C_R   0.501312 0.001672 0.184761 -0.121242
C36   C     C_R   0.498688 0.001672 0.815239 -0.121246
C37   C     C_R   0.973413 0.464380 0.244847 -0.246955
C38   C     C_R   0.026591 0.464387 0.755148 -0.246942
C39   C     C_R   0.473414 0.964380 0.244847 -0.246952
C40   C     C_R   0.526588 0.964382 0.755152 -0.246958
C41   C     C_R   0.974791 0.462795 0.307159 -0.195868
C42   C     C_R   0.025214 0.462801 0.692836 -0.195869
C43   C     C_R   0.474792 0.962794 0.307158 -0.195866
C44   C     C_R   0.525210 0.962796 0.692840 -0.195878
C45   C     C_R   0.919822 0.500003 0.579971 0.862206
C46   C     C_R   0.080178 0.500003 0.420029 0.862194
C47   C     C_R   0.419822 0.000003 0.579971 0.862198
C48   C     C_R   0.580178 0.000003 0.420029 0.862195
C49   C     C_R   0.002878 0.500400 0.311475 -0.136640
C50   C     C_R   0.997123 0.500400 0.688523 -0.136638
C51   C     C_R   0.502878 0.000400 0.311475 -0.136641
C52   C     C_R   0.497122 0.000400 0.688524 -0.136640
C53   C     C_R   0.500000 0.380974 0.000000 0.777834
C54   C     C_R   0.000000 0.880974 0.000000 0.777836
C55   C     C_R   0.580166 0.499989 0.920116 0.820330
C56   C     C_R   0.419834 0.499989 0.079884 0.820329
C57   C     C_R   0.080166 0.999989 0.920116 0.820330
C58   C     C_R   0.919834 0.999989 0.079884 0.820328
C59   C     C_R   0.500000 0.618760 1.000000 0.774397
C60   C     C_R   0.000000 0.118760 1.000000 0.774395
C61   C     C_R   0.000000 0.380749 0.000000 0.779446
C62   C     C_R   0.500000 0.880749 0.000000 0.779448
C63   C     C_R   0.000268 0.500745 0.118885 0.850307
C64   C     C_R   0.999732 0.500745 0.881115 0.850302
C65   C     C_R   0.500268 0.000745 0.118885 0.850312
C66   C     C_R   0.499732 0.000745 0.881115 0.850310
C67   C     C_R   0.000000 0.619007 0.000000 0.819045
C68   C     C_R   0.500000 0.119007 0.000000 0.819050
C69   C     C_R   0.473299 0.282021 0.066140 -0.167635
C70   C     C_R   0.526701 0.282021 0.933860 -0.167633
C71   C     C_R   0.973299 0.782021 0.066140 -0.167627
C72   C     C_R   0.026701 0.782021 0.933860 -0.167636
C73   C     C_R   0.972782 0.717928 0.065886 -0.162464
C74   C     C_R   0.027218 0.717928 0.934114 -0.162475
C75   C     C_R   0.472782 0.217928 0.065886 -0.162469
C76   C     C_R   0.527218 0.217928 0.934114 -0.162472
C77   C     C_R   0.000000 0.685856 0.000000 -0.009992
C78   C     C_R   0.500000 0.185856 0.000000 -0.009995
C79   C     C_3   0.735617 0.480152 0.710622 -0.156921
C80   C     C_3   0.264384 0.480429 0.289476 -0.156918
C81   C     C_3   0.235616 0.980569 0.710474 -0.156918
C82   C     C_3   0.764378 0.978263 0.288659 -0.156943
C83   C     C_R   0.500000 0.314102 0.000000 -0.010340
C84   C     C_R   0.000000 0.814102 0.000000 -0.010335
C85   C     C_R   0.526990 0.717708 0.012719 -0.175130
C86   C     C_R   0.473010 0.717708 0.987281 -0.175129
C87   C     C_R   0.026989 0.217708 0.012719 -0.175127
C88   C     C_R   0.973010 0.217708 0.987281 -0.175138
C89   C     C_R   0.027504 0.281806 0.011436 -0.178518
C90   C     C_R   0.972496 0.281806 0.988564 -0.178523
C91   C     C_R   0.527504 0.781806 0.011435 -0.178519
C92   C     C_R   0.472496 0.781806 0.988565 -0.178517
C93   C     C_R   1.000000 0.313884 1.000000 -0.007770
C94   C     C_R   0.500000 0.813884 1.000000 -0.007769
C95   C     C_R   0.500000 0.685630 1.000000 -0.006275
C96   C     C_R   0.000000 0.185629 1.000000 -0.006279
C97   C     C_3   0.763626 0.537660 0.692595 -0.157710
C98   C     C_3   0.236373 0.537886 0.307216 -0.157705
C99   C     C_3   0.263628 0.037999 0.692879 -0.157702
C100  C     C_3   0.736384 0.036087 0.308664 -0.157741
C101  C     C_1   0.874873 0.500022 0.625205 -0.151056
C102  C     C_1   0.125127 0.500022 0.374794 -0.151055
C103  C     C_1   0.374873 0.000022 0.625206 -0.151055
C104  C     C_1   0.625127 0.000021 0.374794 -0.151049
C105  C     C_1   0.625129 0.500061 0.875680 -0.170190
C106  C     C_1   0.374871 0.500061 0.124319 -0.170191
C107  C     C_1   0.125129 0.000061 0.875680 -0.170190
C108  C     C_1   0.874871 0.000062 0.124320 -0.170191
C109  C     C_3   0.763888 0.442611 0.726872 -0.157183
C110  C     C_3   0.236114 0.442663 0.273415 -0.157209
C111  C     C_3   0.263884 0.942690 0.726440 -0.157222
C112  C     C_3   0.736096 0.942294 0.271150 -0.156997
C113  C     C_3   0.791207 0.500120 0.709533 0.185141
C114  C     C_3   0.208793 0.500120 0.290467 0.185139
C115  C     C_3   0.291207 0.000120 0.709533 0.185140
C116  C     C_3   0.708793 0.000119 0.290467 0.185141
C117  C     C_3   0.736397 0.462604 0.809233 -0.155078
C118  C     C_3   0.263605 0.462379 0.190955 -0.155082
C119  C     C_3   0.236394 0.962265 0.808950 -0.155085
C120  C     C_3   0.763593 0.964176 0.189507 -0.155046
Cu1   Cu    Cu3+1 1.000000 0.438200 0.500000 0.964596
Cu2   Cu    Cu3+1 0.500000 0.938200 0.500000 0.964590
Cu3   Cu    Cu3+1 1.000000 0.561810 0.500000 1.006081
Cu4   Cu    Cu3+1 0.500000 0.061810 0.500000 1.006090
Cu5   Cu    Cu3+1 0.500010 0.499870 0.938220 0.962344
Cu6   Cu    Cu3+1 0.499990 0.499870 0.061780 0.962337
Cu7   Cu    Cu3+1 0.000010 0.999870 0.938220 0.962334
Cu8   Cu    Cu3+1 0.999990 0.999870 0.061780 0.962347
Cu9   Cu    Cu3+1 0.041440 0.499890 0.958590 0.940770
Cu10  Cu    Cu3+1 0.958560 0.499890 0.041410 0.940783
Cu11  Cu    Cu3+1 0.541440 0.999890 0.958590 0.940766
Cu12  Cu    Cu3+1 0.458560 0.999890 0.041410 0.940776
H1    H     H_    0.775295 0.568535 0.644141 0.134038
H2    H     H_    0.224702 0.568945 0.355516 0.134049
H3    H     H_    0.275300 0.069153 0.644657 0.134055
H4    H     H_    0.724724 0.065668 0.358156 0.133962
H5    H     H_    0.953017 0.433379 0.353146 0.155294
H6    H     H_    0.046991 0.433391 0.646846 0.155287
H7    H     H_    0.453018 0.933377 0.353144 0.155294
H8    H     H_    0.546985 0.933381 0.646853 0.155297
H9    H     H_    0.452444 0.306571 0.117457 0.140881
H10   H     H_    0.547556 0.306571 0.882543 0.140880
H11   H     H_    0.952445 0.806571 0.117457 0.140868
H12   H     H_    0.047555 0.806571 0.882543 0.140881
H13   H     H_    0.951759 0.693372 0.117116 0.142734
H14   H     H_    0.048241 0.693372 0.882884 0.142737
H15   H     H_    0.451759 0.193372 0.117116 0.142739
H16   H     H_    0.548241 0.193372 0.882884 0.142737
H17   H     H_    0.548064 0.693151 0.022317 0.138694
H18   H     H_    0.451936 0.693151 0.977683 0.138694
H19   H     H_    0.048064 0.193151 0.022317 0.138693
H20   H     H_    0.951936 0.193151 0.977683 0.138706
H21   H     H_    0.048751 0.306363 0.020604 0.136774
H22   H     H_    0.951249 0.306363 0.979396 0.136777
H23   H     H_    0.548751 0.806363 0.020603 0.136776
H24   H     H_    0.451249 0.806363 0.979397 0.136774
H25   H     H_    0.723304 0.463707 0.677937 0.134075
H26   H     H_    0.276697 0.464212 0.322243 0.134081
H27   H     H_    0.223303 0.964469 0.677666 0.134085
H28   H     H_    0.776686 0.960264 0.320754 0.134025
H29   H     H_    0.724252 0.604987 0.795205 0.133274
H30   H     H_    0.275744 0.604893 0.204271 0.133275
H31   H     H_    0.224258 0.104844 0.795993 0.133275
H32   H     H_    0.775776 0.105564 0.208401 0.133267
H33   H     H_    0.776764 0.536557 0.823834 0.136231
H34   H     H_    0.223234 0.536053 0.175985 0.136235
H35   H     H_    0.276766 0.035796 0.824106 0.136237
H36   H     H_    0.723245 0.039998 0.177474 0.136203
H37   H     H_    0.724727 0.431728 0.857686 0.135540
H38   H     H_    0.275275 0.431318 0.142656 0.135537
H39   H     H_    0.224723 0.931111 0.857170 0.135533
H40   H     H_    0.775255 0.934595 0.140016 0.135578
H41   H     H_    0.775772 0.395282 0.706618 0.134096
H42   H     H_    0.224232 0.395377 0.293905 0.134084
H43   H     H_    0.275765 0.895425 0.705831 0.134078
H44   H     H_    0.724200 0.894705 0.289776 0.134169
H45   H     H_    0.951015 0.435598 0.242953 0.164218
H46   H     H_    0.048993 0.435610 0.757039 0.164225
H47   H     H_    0.451016 0.935596 0.242952 0.164220
H48   H     H_    0.548987 0.935600 0.757045 0.164222
O1    O     O_R   0.000010 0.447810 0.409820 -0.590793
O2    O     O_R   0.999990 0.447810 0.590180 -0.590790
O3    O     O_R   0.500010 0.947810 0.409820 -0.590796
O4    O     O_R   0.499990 0.947810 0.590180 -0.590789
O5    O     O_R   0.034990 0.499890 0.055220 -0.581835
O6    O     O_R   0.965010 0.499890 0.944780 -0.581820
O7    O     O_R   0.534990 0.999890 0.055220 -0.581836
O8    O     O_R   0.465010 0.999890 0.944780 -0.581830
O9    O     O_R   0.965000 0.499930 0.125200 -0.592679
O10   O     O_R   0.035000 0.499930 0.874800 -0.592679
O11   O     O_R   0.465000 0.999930 0.125200 -0.592676
O12   O     O_R   0.535000 0.999930 0.874800 -0.592680
O13   O     O_R   0.035030 0.590070 0.965060 -0.591561
O14   O     O_R   0.964970 0.590070 0.034940 -0.591541
O15   O     O_R   0.535030 0.090070 0.965060 -0.591562
O16   O     O_R   0.464970 0.090070 0.034940 -0.591553
O17   O     O_R   0.000010 0.552200 0.409870 -0.572560
O18   O     O_R   0.999990 0.552200 0.590130 -0.572564
O19   O     O_R   0.500010 0.052200 0.409870 -0.572561
O20   O     O_R   0.499990 0.052200 0.590130 -0.572559
O21   O     O_R   0.939540 0.447810 0.560460 -0.588238
O22   O     O_R   0.060460 0.447810 0.439540 -0.588242
O23   O     O_R   0.439540 0.947810 0.560460 -0.588240
O24   O     O_R   0.560460 0.947810 0.439540 -0.588247
O25   O     O_R   0.939550 0.552200 0.560510 -0.570086
O26   O     O_R   0.060450 0.552200 0.439490 -0.570085
O27   O     O_R   0.439550 0.052200 0.560510 -0.570085
O28   O     O_R   0.560450 0.052200 0.439490 -0.570077
O29   O     O_R   0.500010 0.409700 0.947870 -0.582689
O30   O     O_R   0.499990 0.409700 0.052130 -0.582691
O31   O     O_R   0.000010 0.909700 0.947870 -0.582689
O32   O     O_R   0.999990 0.909700 0.052130 -0.582694
O33   O     O_R   0.560470 0.499890 0.887380 -0.579549
O34   O     O_R   0.439530 0.499890 0.112620 -0.579550
O35   O     O_R   0.060470 0.999890 0.887380 -0.579552
O36   O     O_R   0.939530 0.999890 0.112620 -0.579542
O37   O     O_R   0.560460 0.499990 0.991770 -0.578566
O38   O     O_R   0.439540 0.499990 0.008230 -0.578562
O39   O     O_R   0.060460 0.999990 0.991770 -0.578562
O40   O     O_R   0.939540 0.999990 0.008230 -0.578569
O41   O     O_R   0.500010 0.590060 0.947790 -0.585289
O42   O     O_R   0.499990 0.590060 0.052210 -0.585290
O43   O     O_R   0.000010 0.090060 0.947790 -0.585287
O44   O     O_R   0.999990 0.090060 0.052210 -0.585291
O45   O     O_R   0.034970 0.409720 0.965020 -0.591864
O46   O     O_R   0.965030 0.409720 0.034980 -0.591869
O47   O     O_R   0.534970 0.909720 0.965020 -0.591865
O48   O     O_R   0.465030 0.909720 0.034980 -0.591865
C121  C     C_2   0.060509 0.580480 0.255414 0.851117
O49   O     O_2   0.064927 0.633953 0.234417 -0.555146
O50   O     O_R   0.084209 0.557555 0.280943 -0.788381
H49   H     H_    0.103644 0.589717 0.279909 0.330130
C122  C     C_2   0.939483 0.580467 0.744592 0.851125
O51   O     O_2   0.935058 0.633938 0.765599 -0.555144
O52   O     O_R   0.915787 0.557538 0.719057 -0.788382
H50   H     H_    0.896350 0.589696 0.720095 0.330120
C123  C     C_2   0.560508 0.080481 0.255415 0.851119
O53   O     O_2   0.564926 0.133955 0.234418 -0.555173
O54   O     O_R   0.584209 0.057557 0.280943 -0.788345
H51   H     H_    0.603643 0.089720 0.279909 0.330070
C124  C     C_2   0.439489 0.080477 0.744587 0.851120
O55   O     O_2   0.435070 0.133949 0.765586 -0.555142
O56   O     O_R   0.415790 0.057551 0.719057 -0.788384
H52   H     H_    0.396355 0.089712 0.720092 0.330134
O57   O     O_3   0.058103 0.575409 0.126961 -0.584848
C125  C     C_3   0.097967 0.547102 0.084785 0.093524
H53   H     H_    0.095693 0.497535 0.073689 0.134587
H54   H     H_    0.114034 0.550221 0.114166 0.142924
C126  C     C_3   0.124514 0.580694 0.010692 -0.288363
H55   H     H_    0.108748 0.578324 0.980737 0.236222
H56   H     H_    0.127606 0.630000 0.020850 0.231045
C127  C     C_3   0.168042 0.552255 0.962394 -0.950849
H57   H     H_    0.184674 0.555040 0.990761 0.261323
H58   H     H_    0.186483 0.577766 0.909176 0.260229
H59   H     H_    0.165715 0.503226 0.950310 0.255877
O58   O     O_3   0.941886 0.575391 0.873048 -0.584836
C128  C     C_3   0.902026 0.547069 0.915218 0.093525
H60   H     H_    0.904309 0.497509 0.926327 0.134616
H61   H     H_    0.885965 0.550163 0.885826 0.142891
C129  C     C_3   0.875466 0.580671 0.989301 -0.288348
H62   H     H_    0.891231 0.578337 0.019263 0.236207
H63   H     H_    0.872361 0.629968 0.979129 0.231048
C130  C     C_3   0.831946 0.552206 0.037601 -0.950838
H64   H     H_    0.815320 0.554942 0.009221 0.261319
H65   H     H_    0.813492 0.577734 0.090805 0.260231
H66   H     H_    0.834288 0.503191 0.049712 0.255875
O59   O     O_3   0.558102 0.075412 0.126962 -0.584854
C131  C     C_3   0.597966 0.047106 0.084785 0.093534
H67   H     H_    0.595693 0.997538 0.073690 0.134595
H68   H     H_    0.614033 0.050227 0.114165 0.142953
C132  C     C_3   0.624512 0.080698 0.010692 -0.288387
H69   H     H_    0.608745 0.078326 0.980737 0.236226
H70   H     H_    0.627602 0.130005 0.020850 0.231042
C133  C     C_3   0.668041 0.052261 0.962393 -0.950823
H71   H     H_    0.684673 0.055050 0.990759 0.261343
H72   H     H_    0.686481 0.077772 0.909175 0.260220
H73   H     H_    0.665714 0.003231 0.950311 0.255879
O60   O     O_3   0.441894 0.075405 0.873041 -0.584844
C134  C     C_3   0.402031 0.047094 0.915215 0.093520
H74   H     H_    0.404307 0.997529 0.926314 0.134593
H75   H     H_    0.385966 0.050207 0.885831 0.142915
C135  C     C_3   0.375481 0.080688 0.989305 -0.288358
H76   H     H_    0.391246 0.078326 0.019264 0.236217
H77   H     H_    0.372387 0.129993 0.979143 0.231047
C136  C     C_3   0.331954 0.052244 0.037603 -0.950850
H78   H     H_    0.315324 0.055020 0.009232 0.261322
H79   H     H_    0.313510 0.077759 0.090817 0.260230
H80   H     H_    0.334284 0.003218 0.049693 0.255877

loop_
_geom_bond_atom_site_label_1
_geom_bond_atom_site_label_2
_ccdc_geom_bond_type
C65   O7    A    
Cu9   O5    S    
Cu3   O18   S    
Cu12  O8    S    
C56   O38   A    
C135  H76   S    
C55   C105  S    
Cu1   O1    S    
C66   O8    A    
C26   C50   A    
C36   C66   S    
C98   C114  S    
C132  H69   S    
C29   C33   A    
Cu3   O25   S    
C130  H65   S    
C133  H71   S    
C9    C13   S    
C40   H48   S    
Cu5   O33   S    
C12   C16   S    
C11   C115  S    
C40   C44   A    
C5    C13   S    
C7    C15   S    
C8    C16   S    
O57   C125  S    
Cu4   O28   S    
C11   H35   S    
Cu8   O44   S    
C41   C49   A    
Cu7   O40   S    
C25   C29   A    
C126  H56   S    
C79   C109  S    
C27   C31   A    
C7    C119  S    
C28   C32   A    
C112  C120  S    
C1    O1    A    
C81   C99   S    
Cu2   O23   S    
C121  O49   D    
C82   H28   S    
C6    C80   S    
C23   C107  T    
C48   O28   A    
C92   C94   A    
C56   C106  S    
C72   C84   A    
C131  H68   S    
C87   C89   A    
C90   C93   A    
C71   H11   S    
C15   H31   S    
C72   H12   S    
C79   C97   S    
Cu11  O15   S    
C81   H27   S    
C87   C96   A    
Cu1   O21   S    
C136  H79   S    
C22   C106  T    
C91   C94   A    
Cu7   O35   S    
C68   O15   A    
C109  H41   S    
C134  H75   S    
C13   C97   S    
Cu1   Cu3   S    
C86   C95   A    
C5    C21   S    
Cu10  O46   S    
C73   C77   A    
C128  H61   S    
C64   O6    A    
C62   O47   A    
C119  H39   S    
C127  H57   S    
Cu11  O7    S    
C67   C77   S    
C97   H1    S    
C17   C113  S    
C16   H32   S    
Cu4   O19   S    
C126  H55   S    
C10   C118  S    
C32   C36   A    
C76   C78   A    
C86   H18   S    
C111  C119  S    
C124  O55   D    
C18   C102  T    
C2    C50   S    
C58   O40   A    
C65   O11   A    
C53   O30   A    
C74   C77   A    
C66   O12   A    
C5    C79   S    
C122  O51   D    
C110  C114  S    
C56   O34   A    
C10   H34   S    
Cu5   O38   S    
C44   C52   A    
C54   O32   A    
C123  O53   D    
O58   C128  S    
C11   C15   S    
C27   C51   A    
C14   C98   S    
C110  H42   S    
C30   C34   A    
C31   O59   S    
C10   C14   S    
Cu5   O29   S    
C16   C100  S    
C73   H13   S    
C59   O42   A    
C6    C14   S    
C80   H26   S    
Cu12  O11   S    
C33   C63   S    
C34   C64   S    
C76   H16   S    
C42   C50   A    
C127  H59   S    
Cu2   O3    S    
C7    C81   S    
Cu8   O36   S    
C26   C30   A    
C30   O58   S    
Cu2   Cu4   S    
C60   O43   A    
C112  C116  S    
Cu9   Cu10  S    
C46   O26   A    
C125  H53   S    
C126  C127  S    
C112  H44   S    
Cu3   O17   S    
C1    O17   A    
C129  H62   S    
C55   O33   A    
C39   H47   S    
O59   C131  S    
Cu5   O41   S    
C37   H45   S    
C48   O24   A    
C135  H77   S    
C61   O46   A    
C128  C129  S    
C9    C113  S    
C85   C95   A    
C7    C23   S    
C8    C24   S    
C133  H72   S    
C37   C41   A    
C117  H37   S    
C4    O20   A    
C135  C136  S    
Cu9   O45   S    
O60   C134  S    
Cu1   O2    S    
C3    O3    A    
C100  H4    S    
C12   C116  S    
C125  C126  S    
C132  C133  S    
C88   C96   A    
C42   H6    S    
C133  H73   S    
O54   H51   S    
C100  C116  S    
C54   C84   S    
C109  C117  S    
C130  H64   S    
C55   O37   A    
Cu11  O12   S    
C25   C121  S    
C8    C82   S    
Cu12  O48   S    
C99   C115  S    
C61   C93   S    
C35   C65   S    
C69   H9    S    
O56   H52   S    
C6    C22   S    
Cu2   O24   S    
Cu6   O34   S    
C57   O35   A    
C63   O5    A    
O52   H50   S    
C24   C108  T    
C90   H22   S    
C67   O14   A    
C41   H5    S    
C10   C114  S    
C44   H8    S    
C2    O18   A    
C129  C130  S    
C68   C78   S    
C47   C103  S    
C72   C74   A    
C3    C51   S    
C75   H15   S    
C33   C37   A    
Cu3   O26   S    
C82   C112  S    
C14   H30   S    
C35   C39   A    
C136  H78   S    
C64   O10   A    
Cu6   O42   S    
C99   H3    S    
C68   O16   A    
C70   C83   A    
C45   C101  S    
C60   C96   S    
C88   C90   A    
C62   C94   S    
Cu4   O27   S    
Cu5   Cu6   S    
C31   C35   A    
Cu10  O9    S    
C28   C124  S    
Cu7   Cu8   S    
C32   O60   S    
C27   C123  S    
C127  H58   S    
C45   O25   A    
C80   C98   S    
C29   O57   S    
C74   H14   S    
Cu10  O14   S    
C79   H25   S    
C38   C42   A    
Cu4   O20   S    
C53   C83   S    
C9    H33   S    
C134  H74   S    
C121  O50   S    
Cu8   O32   S    
C43   C51   A    
C69   C75   A    
C58   C108  S    
C25   C49   A    
Cu11  O47   S    
C46   O22   A    
C131  H67   S    
C53   O29   A    
C21   C105  T    
C130  H66   S    
C38   H46   S    
C9    C117  S    
C11   C119  S    
C18   C114  S    
C85   C91   A    
C46   C102  S    
C4    C52   S    
C111  H43   S    
Cu1   O22   S    
C128  H60   S    
C136  H80   S    
C62   O48   A    
C118  H38   S    
C48   C104  S    
C71   C73   A    
C2    O2    A    
C134  C135  S    
C17   C101  T    
C59   O41   A    
C12   C120  S    
C19   C103  T    
C81   C111  S    
C3    O19   A    
C43   H7    S    
Cu6   O37   S    
C109  C113  S    
Cu2   O4    S    
C87   H19   S    
C89   C93   A    
C88   H20   S    
C59   C95   S    
C60   O44   A    
C125  H54   S    
C70   H10   S    
C47   O23   A    
C36   C40   A    
C129  H63   S    
Cu6   O30   S    
C20   C116  S    
C120  H40   S    
C39   C43   A    
C57   O39   A    
C63   O9    A    
C61   O45   A    
C5    C117  S    
C124  O56   S    
C91   H23   S    
C69   C83   A    
C89   H21   S    
C131  C132  S    
C19   C115  S    
Cu9   O10   S    
C92   H24   S    
C4    O4    A    
C110  C118  S    
C122  O52   S    
Cu8   O39   S    
C26   C122  S    
Cu7   O31   S    
C54   O31   A    
C57   C107  S    
C123  O54   S    
C70   C76   A    
C97   C113  S    
C8    C120  S    
C71   C84   A    
C132  H70   S    
C34   C38   A    
C82   C100  S    
C15   C99   S    
C12   H36   S    
Cu9   O13   S    
Cu10  O6    S    
C13   H29   S    
C20   C104  T    
Cu7   O43   S    
C98   H2    S    
C47   O27   A    
C86   C92   A    
C28   C52   A    
C75   C78   A    
C85   H17   S    
C45   O21   A    
C80   C110  S    
O50   H49   S    
Cu12  O16   S    
C111  C115  S    
C67   O13   A    
C1    C49   S    
C6    C118  S    
Cu11  Cu12  S    
C58   O36   A    
