data_mof_unit_14402.cif
_audit_creation_date              2012-12-10T16:40:38-0500
_audit_creation_method            fapswitch 2.2
_symmetry_space_group_name_H-M    P1
_symmetry_Int_Tables_number       1
_space_group_crystal_system       triclinic
_cell_length_a                    16.97208
_cell_length_b                    16.97208
_cell_length_c                    16.972078
_cell_angle_alpha                 66.813048
_cell_angle_beta                  66.813044
_cell_angle_gamma                 66.813035
_cell_volume                      3962.67210454

loop_
_atom_site_label
_atom_site_type_symbol
_atom_type_description
_atom_site_fract_x
_atom_site_fract_y
_atom_site_fract_z
_atom_type_partial_charge
C1    C     C_R   0.602085 0.018055 0.596225 0.142749
C2    C     C_R   0.403775 0.981945 0.397915 0.142750
C3    C     C_R   0.018055 0.596224 0.602085 0.142749
C4    C     C_R   0.981945 0.397915 0.403775 0.142749
C5    C     C_R   0.596225 0.602085 0.018055 0.142749
C6    C     C_R   0.397915 0.403775 0.981945 0.142750
C7    C     C_R   0.021924 0.830036 0.567727 0.795664
C8    C     C_R   0.970059 0.170915 0.435663 0.788416
C9    C     C_R   0.830036 0.567727 0.021924 0.795665
C10   C     C_R   0.170915 0.435663 0.970059 0.788416
C11   C     C_R   0.567727 0.021924 0.830036 0.795666
C12   C     C_R   0.435663 0.970059 0.170915 0.788416
C13   C     C_R   0.432273 0.169964 0.978076 0.795664
C14   C     C_R   0.564337 0.829085 0.029941 0.788416
C15   C     C_R   0.978076 0.432273 0.169964 0.795665
C16   C     C_R   0.029941 0.564337 0.829085 0.788417
C17   C     C_R   0.169964 0.978076 0.432273 0.795664
C18   C     C_R   0.829085 0.029941 0.564337 0.788416
C19   C     C_R   0.552004 0.007346 0.545471 -0.263518
C20   C     C_R   0.454529 0.992654 0.447996 -0.263517
C21   C     C_R   0.007346 0.545471 0.552004 -0.263518
C22   C     C_R   0.992654 0.447996 0.454529 -0.263518
C23   C     C_R   0.545471 0.552004 0.007346 -0.263518
C24   C     C_R   0.447996 0.454529 0.992654 -0.263517
C25   C     C_R   0.593609 0.994876 0.458565 0.315256
C26   C     C_R   0.418445 0.988335 0.540175 0.307220
C27   C     C_R   0.994876 0.458565 0.593609 0.315257
C28   C     C_R   0.988336 0.540175 0.418445 0.307221
C29   C     C_R   0.458565 0.593609 0.994876 0.315257
C30   C     C_R   0.540175 0.418445 0.988336 0.307220
C31   C     C_R   0.541435 0.005124 0.406391 0.315257
C32   C     C_R   0.459825 0.011664 0.581555 0.307220
C33   C     C_R   0.406391 0.541435 0.005123 0.315257
C34   C     C_R   0.581555 0.459825 0.011664 0.307221
C35   C     C_R   0.005124 0.406391 0.541435 0.315257
C36   C     C_R   0.011664 0.581555 0.459825 0.307220
C37   C     C_R   0.570554 0.004244 0.689794 -0.185938
C38   C     C_R   0.447303 0.959203 0.316665 -0.190912
C39   C     C_R   0.004244 0.689794 0.570553 -0.185937
C40   C     C_R   0.959203 0.316665 0.447303 -0.190912
C41   C     C_R   0.689794 0.570553 0.004244 -0.185937
C42   C     C_R   0.316665 0.447303 0.959203 -0.190912
C43   C     C_R   0.310206 0.995756 0.429447 -0.185937
C44   C     C_R   0.683334 0.040797 0.552697 -0.190912
C45   C     C_R   0.429446 0.310206 0.995756 -0.185938
C46   C     C_R   0.552697 0.683335 0.040796 -0.190912
C47   C     C_R   0.995756 0.429447 0.310206 -0.185937
C48   C     C_R   0.040797 0.552697 0.683334 -0.190912
C49   C     C_R   0.608220 0.029049 0.734001 -0.140413
C50   C     C_R   0.399097 0.954908 0.268463 -0.149139
C51   C     C_R   0.029049 0.734001 0.608221 -0.140413
C52   C     C_R   0.954908 0.268463 0.399097 -0.149138
C53   C     C_R   0.734001 0.608221 0.029049 -0.140413
C54   C     C_R   0.268463 0.399097 0.954908 -0.149139
C55   C     C_R   0.265999 0.970951 0.391779 -0.140413
C56   C     C_R   0.731537 0.045092 0.600903 -0.149138
C57   C     C_R   0.391779 0.265999 0.970951 -0.140413
C58   C     C_R   0.600903 0.731537 0.045092 -0.149138
C59   C     C_R   0.970951 0.391779 0.265999 -0.140414
C60   C     C_R   0.045092 0.600903 0.731537 -0.149138
C61   C     C_R   0.687635 0.054148 0.687113 -0.069007
C62   C     C_R   0.312886 0.945852 0.312365 -0.069007
C63   C     C_R   0.054148 0.687113 0.687635 -0.069007
C64   C     C_R   0.945852 0.312365 0.312887 -0.069007
C65   C     C_R   0.687113 0.687635 0.054148 -0.069007
C66   C     C_R   0.312365 0.312887 0.945852 -0.069007
Cu1   Cu    Cu3+1 0.995180 0.995180 0.424630 0.980954
Cu2   Cu    Cu3+1 0.004820 0.004820 0.575370 0.980954
Cu3   Cu    Cu3+1 0.995180 0.424630 0.995180 0.980954
Cu4   Cu    Cu3+1 0.004820 0.575370 0.004820 0.980954
Cu5   Cu    Cu3+1 0.424630 0.995180 0.995180 0.980954
Cu6   Cu    Cu3+1 0.575370 0.004820 0.004820 0.980954
H1    H     H_    0.516945 0.973959 0.729662 0.204677
H2    H     H_    0.518431 0.945459 0.288208 0.218834
H3    H     H_    0.973959 0.729662 0.516945 0.204677
H4    H     H_    0.945459 0.288208 0.518431 0.218833
H5    H     H_    0.729662 0.516945 0.973959 0.204677
H6    H     H_    0.288208 0.518431 0.945459 0.218834
H7    H     H_    0.270338 0.026041 0.483055 0.204677
H8    H     H_    0.711792 0.054541 0.481569 0.218834
H9    H     H_    0.483055 0.270338 0.026041 0.204677
H10   H     H_    0.481569 0.711792 0.054541 0.218833
H11   H     H_    0.026041 0.483055 0.270338 0.204677
H12   H     H_    0.054541 0.481569 0.711792 0.218834
O1    O     O_R   0.124540 0.978640 0.385460 -0.569800
O2    O     O_R   0.875460 0.021360 0.614540 -0.569094
O3    O     O_R   0.978640 0.385460 0.124540 -0.569800
O4    O     O_R   0.021360 0.614540 0.875460 -0.569094
O5    O     O_R   0.385460 0.124540 0.978640 -0.569800
O6    O     O_R   0.614540 0.875460 0.021360 -0.569094
O7    O     O_R   0.614540 0.021360 0.875460 -0.569801
O8    O     O_R   0.385460 0.978640 0.124540 -0.569094
O9    O     O_R   0.875460 0.614540 0.021360 -0.569801
O10   O     O_R   0.124540 0.385460 0.978640 -0.569093
O11   O     O_R   0.021360 0.875460 0.614540 -0.569801
O12   O     O_R   0.978640 0.124540 0.385460 -0.569094
O13   O     O_R   0.013780 0.867370 0.487190 -0.592235
O14   O     O_R   0.986220 0.132630 0.512810 -0.593579
O15   O     O_R   0.867370 0.487190 0.013780 -0.592235
O16   O     O_R   0.132630 0.512810 0.986220 -0.593579
O17   O     O_R   0.487190 0.013780 0.867370 -0.592235
O18   O     O_R   0.512810 0.986220 0.132630 -0.593579
O19   O     O_R   0.512810 0.132630 0.986220 -0.592236
O20   O     O_R   0.487190 0.867370 0.013780 -0.593579
O21   O     O_R   0.986220 0.512810 0.132630 -0.592235
O22   O     O_R   0.013780 0.487190 0.867370 -0.593579
O23   O     O_R   0.132630 0.986220 0.512810 -0.592235
O24   O     O_R   0.867370 0.013780 0.487190 -0.593579
O25   O     O_3   0.408080 0.035332 0.659328 -0.557300
C67   C     C_3   0.375683 0.129401 0.637447 0.063703
H13   H     H_    0.340544 0.156875 0.584848 0.127755
H14   H     H_    0.431373 0.159671 0.613901 0.139194
C68   C     C_3   0.309586 0.156205 0.720303 -0.715396
H15   H     H_    0.343084 0.130388 0.773702 0.264364
H16   H     H_    0.284115 0.230172 0.704254 0.197856
H17   H     H_    0.252408 0.128133 0.744469 0.254010
O26   O     O_3   0.579638 0.023950 0.315078 -0.549697
C69   C     C_3   0.548738 0.116887 0.276873 0.056232
H18   H     H_    0.567376 0.154947 0.304151 0.140555
H19   H     H_    0.474835 0.138759 0.289375 0.131593
C70   C     C_3   0.591508 0.139196 0.176344 -0.722864
H20   H     H_    0.574966 0.101718 0.147033 0.265058
H21   H     H_    0.565943 0.211748 0.145311 0.201764
H22   H     H_    0.665223 0.121287 0.161389 0.254464
O27   O     O_3   0.035333 0.659328 0.408080 -0.557301
C71   C     C_3   0.129402 0.637446 0.375684 0.063705
H23   H     H_    0.156876 0.584848 0.340544 0.127754
H24   H     H_    0.159672 0.613900 0.431374 0.139194
C72   C     C_3   0.156206 0.720303 0.309586 -0.715395
H25   H     H_    0.130389 0.773701 0.343084 0.264363
H26   H     H_    0.230173 0.704253 0.284116 0.197855
H27   H     H_    0.128135 0.744468 0.252408 0.254010
O28   O     O_3   0.023950 0.315078 0.579638 -0.549697
C73   C     C_3   0.116886 0.276872 0.548738 0.056231
H28   H     H_    0.154947 0.304150 0.567375 0.140554
H29   H     H_    0.138757 0.289374 0.474835 0.131594
C74   C     C_3   0.139195 0.176344 0.591509 -0.722864
H30   H     H_    0.101716 0.147032 0.574969 0.265059
H31   H     H_    0.211747 0.145311 0.565943 0.201763
H32   H     H_    0.121287 0.161390 0.665224 0.254464
O29   O     O_3   0.659327 0.408080 0.035334 -0.557300
C75   C     C_3   0.637446 0.375684 0.129403 0.063704
H33   H     H_    0.584847 0.340545 0.156877 0.127754
H34   H     H_    0.613900 0.431375 0.159672 0.139194
C76   C     C_3   0.720302 0.309587 0.156207 -0.715395
H35   H     H_    0.773701 0.343085 0.130390 0.264364
H36   H     H_    0.704252 0.284117 0.230174 0.197855
H37   H     H_    0.744467 0.252409 0.128136 0.254010
O30   O     O_3   0.315079 0.579639 0.023949 -0.549697
C77   C     C_3   0.276872 0.548739 0.116885 0.056233
H38   H     H_    0.304150 0.567376 0.154946 0.140553
H39   H     H_    0.289373 0.474836 0.138757 0.131593
C78   C     C_3   0.176344 0.591510 0.139194 -0.722863
H40   H     H_    0.147032 0.574970 0.101715 0.265059
H41   H     H_    0.145310 0.565945 0.211746 0.201764
H42   H     H_    0.161390 0.665225 0.121286 0.254463
O31   O     O_3   0.340672 0.964666 0.591920 -0.557300
C79   C     C_3   0.362554 0.870597 0.624316 0.063704
H43   H     H_    0.415153 0.843123 0.659456 0.127755
H44   H     H_    0.386101 0.840327 0.568626 0.139194
C80   C     C_3   0.279698 0.843793 0.690413 -0.715396
H45   H     H_    0.226299 0.869610 0.656914 0.264363
H46   H     H_    0.295747 0.769826 0.715882 0.197855
H47   H     H_    0.255532 0.871864 0.747591 0.254010
O32   O     O_3   0.684921 0.976051 0.420361 -0.549697
C81   C     C_3   0.723128 0.883114 0.451261 0.056231
H48   H     H_    0.695849 0.845053 0.432625 0.140553
H49   H     H_    0.710627 0.861243 0.525165 0.131594
C82   C     C_3   0.823656 0.860805 0.408491 -0.722865
H50   H     H_    0.852968 0.898284 0.425030 0.265059
H51   H     H_    0.854690 0.788254 0.434056 0.201764
H52   H     H_    0.838610 0.878713 0.334776 0.254464
O33   O     O_3   0.591920 0.340672 0.964668 -0.557301
C83   C     C_3   0.624317 0.362553 0.870599 0.063704
H53   H     H_    0.659456 0.415152 0.843125 0.127755
H54   H     H_    0.568627 0.386099 0.840328 0.139194
C84   C     C_3   0.690414 0.279697 0.843795 -0.715395
H55   H     H_    0.656916 0.226298 0.869612 0.264363
H56   H     H_    0.715884 0.295745 0.769828 0.197856
H57   H     H_    0.747592 0.255531 0.871867 0.254009
O34   O     O_3   0.420362 0.684922 0.976050 -0.549697
C85   C     C_3   0.451263 0.723128 0.883113 0.056231
H58   H     H_    0.432626 0.695849 0.845052 0.140554
H59   H     H_    0.525165 0.710626 0.861242 0.131594
C86   C     C_3   0.408492 0.823656 0.860804 -0.722864
H60   H     H_    0.425032 0.852967 0.898283 0.265059
H61   H     H_    0.434058 0.854689 0.788252 0.201764
H62   H     H_    0.334777 0.838610 0.878711 0.254464
O35   O     O_3   0.964667 0.591920 0.340672 -0.557301
C87   C     C_3   0.870598 0.624316 0.362554 0.063703
H63   H     H_    0.843124 0.659456 0.415152 0.127755
H64   H     H_    0.840328 0.568626 0.386100 0.139194
C88   C     C_3   0.843794 0.690414 0.279697 -0.715396
H65   H     H_    0.869611 0.656915 0.226298 0.264363
H66   H     H_    0.769827 0.715884 0.295746 0.197856
H67   H     H_    0.871866 0.747591 0.255531 0.254010
O36   O     O_3   0.976050 0.420362 0.684921 -0.549696
C89   C     C_3   0.883114 0.451262 0.723128 0.056231
H68   H     H_    0.845053 0.432626 0.695849 0.140553
H69   H     H_    0.861243 0.525165 0.710626 0.131595
C90   C     C_3   0.860805 0.408492 0.823656 -0.722865
H70   H     H_    0.898284 0.425031 0.852967 0.265060
H71   H     H_    0.788253 0.434057 0.854689 0.201763
H72   H     H_    0.878712 0.334777 0.838610 0.254464
C91   C     C_1   0.723437 0.091298 0.724924 0.311150
N1    N     N_1   0.752651 0.120690 0.754632 -0.292578
C92   C     C_1   0.275076 0.908702 0.276563 0.311150
N2    N     N_1   0.245368 0.879310 0.247349 -0.292578
C93   C     C_1   0.091298 0.724924 0.723437 0.311150
N3    N     N_1   0.120689 0.754632 0.752651 -0.292578
C94   C     C_1   0.908702 0.276563 0.275076 0.311150
N4    N     N_1   0.879310 0.247349 0.245368 -0.292578
C95   C     C_1   0.724924 0.723437 0.091298 0.311150
N5    N     N_1   0.754632 0.752651 0.120690 -0.292578
C96   C     C_1   0.276563 0.275076 0.908702 0.311150
N6    N     N_1   0.247349 0.245368 0.879310 -0.292578

loop_
_geom_bond_atom_site_label_1
_geom_bond_atom_site_label_2
_ccdc_geom_bond_type
C25   C31   A    
C39   C51   A    
Cu5   O20   S    
C34   O29   S    
C26   C32   A    
O32   C81   S    
C56   C61   A    
C6    C45   A    
Cu2   O2    S    
C82   H50   S    
C36   O27   S    
C8    O12   A    
C57   C66   A    
C96   N6    T    
Cu4   O4    S    
C28   O35   S    
C35   O28   S    
C73   C74   S    
C76   H35   S    
C90   H71   S    
C33   O30   S    
C21   C36   A    
C91   N1    T    
C48   H12   S    
C22   C35   A    
C74   H31   S    
C45   C57   A    
C59   C64   A    
C18   O2    A    
O27   C71   S    
C29   O34   S    
C60   C63   A    
C17   O1    A    
C23   C29   A    
C72   H25   S    
C17   O23   A    
C41   H5    S    
Cu2   O14   S    
Cu1   O24   S    
C86   H61   S    
C13   C57   S    
C10   O10   A    
C43   H7    S    
C55   C62   A    
C29   C33   A    
C3    C48   A    
C4    C22   S    
C26   O31   S    
C16   C60   S    
C69   H19   S    
C66   C96   S    
C8    O14   A    
C85   H58   S    
C14   O6    A    
C70   H22   S    
C37   H1    S    
C1    C44   A    
C87   C88   S    
C80   H46   S    
C83   H53   S    
C79   H44   S    
O31   C79   S    
C31   O26   S    
Cu5   O8    S    
C4    C40   A    
C84   H56   S    
C77   C78   S    
C27   O36   S    
C87   H64   S    
C64   C94   S    
C89   H68   S    
Cu2   O23   S    
C39   H3    S    
C78   H41   S    
C53   C65   A    
C8    C52   S    
C30   O33   S    
Cu3   O3    S    
C16   O22   A    
C68   H17   S    
C23   C34   A    
C65   C95   S    
Cu5   O17   S    
C74   H30   S    
C3    C39   A    
C9    O15   A    
O33   C83   S    
C69   H18   S    
C81   H49   S    
C82   H51   S    
C75   C76   S    
O35   C87   S    
C63   C93   S    
C10   C54   S    
C19   C32   A    
C76   H36   S    
Cu4   O16   S    
C48   C60   A    
C18   O24   A    
C14   C58   S    
C74   H32   S    
Cu1   O1    S    
Cu2   O11   S    
C49   C61   A    
C32   O25   S    
C30   C34   A    
C2    C20   S    
C92   N2    T    
C46   H10   S    
C44   H8    S    
Cu4   O9    S    
C51   C63   A    
Cu3   O10   S    
C52   C64   A    
Cu6   O7    S    
C86   H62   S    
C73   H29   S    
C71   C72   S    
C27   C35   A    
C40   C52   A    
C1    C19   S    
C67   H13   S    
C68   H16   S    
C85   C86   S    
C79   H43   S    
O34   C85   S    
Cu1   Cu2   S    
C87   H63   S    
C12   O18   A    
C11   C49   S    
C11   O7    A    
O28   C73   S    
C37   C49   A    
C2    C38   A    
C58   C65   A    
C14   O20   A    
C94   N4    T    
Cu5   O5    S    
C95   N5    T    
C2    C43   A    
C84   H57   S    
C6    C24   S    
C89   C90   S    
C88   H66   S    
C93   N3    T    
C11   O17   A    
C78   H42   S    
C10   O16   A    
C67   C68   S    
C41   C53   A    
C70   H20   S    
C83   C84   S    
C84   H55   S    
C54   C66   A    
Cu3   O15   S    
C43   C55   A    
C42   H6    S    
C47   H11   S    
Cu1   O12   S    
C50   C62   A    
C90   H72   S    
C75   H34   S    
C3    C21   S    
C24   C30   A    
C13   O19   A    
C9    O9    A    
C62   C92   S    
C80   H47   S    
C76   H37   S    
C15   O3    A    
C68   H15   S    
C38   H2    S    
C5    C41   A    
O36   C89   S    
C71   H24   S    
C7    O13   A    
C85   H59   S    
C13   O5    A    
C77   H38   S    
C15   C59   S    
C12   O8    A    
C45   H9    S    
C20   C26   A    
Cu4   O21   S    
C12   C50   S    
Cu3   O22   S    
C73   H28   S    
C38   C50   A    
Cu6   O19   S    
C18   C56   S    
C7    O11   A    
C5    C46   A    
C5    C23   S    
O26   C69   S    
C24   C33   A    
C90   H70   S    
C25   O32   S    
C72   H27   S    
C89   H69   S    
C7    C51   S    
Cu5   Cu6   S    
C80   H45   S    
O30   C77   S    
C42   C54   A    
C88   H67   S    
C44   C56   A    
C15   O21   A    
C86   H60   S    
C81   H48   S    
Cu6   O18   S    
C71   H23   S    
C17   C55   S    
C82   H52   S    
C83   H54   S    
C77   H39   S    
C21   C27   A    
Cu3   Cu4   S    
C19   C25   A    
C67   H14   S    
C70   H21   S    
Cu1   O13   S    
C47   C59   A    
C40   H4    S    
C9    C53   S    
C28   C36   A    
C81   C82   S    
C79   C80   S    
C88   H65   S    
C6    C42   A    
O25   C67   S    
C16   O4    A    
C75   H33   S    
C4    C47   A    
C22   C28   A    
Cu6   O6    S    
C78   H40   S    
O29   C75   S    
C69   C70   S    
C46   C58   A    
C61   C91   S    
C1    C37   A    
C72   H26   S    
C20   C31   A    
