data_mof_unit_54093.cif
_audit_creation_date              2013-03-05T16:31:28-0500
_audit_creation_method            fapswitch 2.2
_symmetry_space_group_name_H-M    P1
_symmetry_Int_Tables_number       1
_space_group_crystal_system       triclinic
_cell_length_a                    14.978702
_cell_length_b                    10.81888
_cell_length_c                    9.645474
_cell_angle_alpha                 89.982294
_cell_angle_beta                  90.161746
_cell_angle_gamma                 89.813154
_cell_volume                      1563.06125243

loop_
_atom_site_label
_atom_site_type_symbol
_atom_site_description
_atom_site_fract_x
_atom_site_fract_y
_atom_site_fract_z
_atom_type_partial_charge
O1    O     O_R   0.500000 0.319640 0.618810 -0.542268
O2    O     O_R   0.500010 0.319680 0.381230 -0.547750
C1    C     C_R   0.499676 0.262499 0.500055 0.896516
O3    O     O_R   0.370250 0.499950 0.618800 -0.548505
O4    O     O_R   0.370260 0.499990 0.381220 -0.532345
C2    C     C_R   0.329365 0.499624 0.499825 0.859389
Cu1   Cu    Cu3+1 0.500000 0.499980 0.640670 1.067642
Cu2   Cu    Cu3+1 0.500000 0.500020 0.359330 1.120756
O5    O     O_R   0.499990 0.680320 0.618770 -0.592707
O6    O     O_R   0.500000 0.680360 0.381190 -0.534981
O7    O     O_R   0.629740 0.500010 0.618780 -0.560349
O8    O     O_R   0.629750 0.500050 0.381200 -0.540761
C3    C     C_R   0.494108 0.737034 0.499646 0.806001
C4    C     C_R   0.670725 0.500290 0.500260 0.812680
C5    C     C_R   0.813606 0.605622 0.468614 -0.112808
C6    C     C_R   0.767063 0.498772 0.501439 -0.078090
C7    C     C_R   0.811767 0.390786 0.538203 -0.026809
C8    C     C_R   0.905208 0.387046 0.541374 -0.031141
C9    C     C_R   0.953179 0.494857 0.506266 -0.010510
C10   C     C_R   0.906904 0.605481 0.470268 0.055894
C11   C     C_R   0.951176 0.279109 0.581724 0.334316
C12   C     C_R   0.044955 0.277220 0.586150 0.371609
C13   C     C_R   0.094439 0.381932 0.540915 -0.106919
C14   C     C_R   0.047136 0.492485 0.506588 -0.030734
C15   C     C_R   0.093746 0.601776 0.472136 0.077135
C16   C     C_R   0.047721 0.710466 0.438884 -0.152264
C17   C     C_R   0.955001 0.713125 0.437257 0.396859
C18   C     C_R   0.189050 0.382627 0.528629 0.441343
C19   C     C_R   0.233029 0.494128 0.500009 -0.098930
C20   C     C_R   0.186233 0.602072 0.472155 -0.198950
H1    H     H_    0.776103 0.688309 0.443094 0.206693
H2    H     H_    0.772373 0.310566 0.563995 0.229777
H3    H     H_    0.222428 0.686326 0.448829 0.176438
H4    H     H_    0.084086 0.793903 0.413298 0.207062
C21   C     C_R   0.494344 0.061973 0.623125 0.091263
C22   C     C_R   0.491002 0.129108 0.499836 -0.093833
C23   C     C_R   0.469756 0.066048 0.376877 -0.142943
H5    H     H_    0.460967 0.116050 0.280917 0.239288
C24   C     C_R   0.461303 0.937128 0.375619 0.328279
C25   C     C_R   0.479676 0.869972 0.499149 -0.177554
C26   C     C_R   0.486829 0.935613 0.623245 0.030059
C27   C     C_3   0.547350 0.919993 0.745372 -0.426355
C28   C     C_3   0.558280 0.059927 0.743705 0.168627
H6    H     H_    0.510896 0.886100 0.838032 0.234188
H7    H     H_    0.609058 0.867186 0.719905 0.222298
H8    H     H_    0.531993 0.107717 0.837216 0.182301
C29   C     C_R   0.566731 0.556739 0.073189 0.080188
N1    N     N_R   0.500570 0.500930 0.147930 -0.244144
C30   C     C_R   0.431149 0.450172 0.073396 0.352822
C31   C     C_R   0.431901 0.448358 0.925527 0.336302
N2    N     N_R   0.500570 0.500890 0.852020 -0.233882
C32   C     C_R   0.567138 0.555359 0.926903 0.011198
C33   C     C_3   0.665188 0.526985 0.920920 0.115686
C34   C     C_3   0.665767 0.532913 0.079021 0.475385
H9    H     H_    0.703578 0.601994 0.869910 0.152175
N3    N     N_R   0.434651 0.877427 0.249174 0.155767
O9    O     O_R   0.368252 0.800116 0.249931 -0.324159
O10   O     O_R   0.465110 0.916441 0.130803 -0.326640
N4    N     N_R   0.650215 0.094205 0.710009 0.165746
O11   O     O_R   0.675868 0.107910 0.582077 -0.326725
O12   O     O_R   0.710320 0.089167 0.807438 -0.191320
N5    N     N_R   0.358467 0.391998 0.142845 0.168157
O13   O     O_R   0.280638 0.445810 0.143228 -0.270899
O14   O     O_R   0.363509 0.275067 0.172409 -0.302184
N6    N     N_R   0.363686 0.380706 0.855121 0.172965
O15   O     O_R   0.377615 0.265263 0.824446 -0.292222
O16   O     O_R   0.282320 0.423191 0.853690 -0.273342
Cl1   Cl    Cl    0.690252 0.375588 0.854361 -0.445377
N7    N     N_R   0.693149 0.416096 0.145100 0.186102
O17   O     O_R   0.777070 0.397392 0.173672 -0.249975
O18   O     O_R   0.637762 0.324113 0.156524 -0.297096
Cl2   Cl    Cl    0.724610 0.664153 0.144727 -0.522456
Cl3   Cl    Cl    0.891806 0.144306 0.630115 -0.332397
Cl4   Cl    Cl    0.095108 0.146947 0.666639 -0.339677
Cl5   Cl    Cl    0.255672 0.246666 0.527097 -0.456276
Cl6   Cl    Cl    0.902398 0.853979 0.393105 -0.412630

loop_
_geom_bond_atom_site_label_1
_geom_bond_atom_site_label_2
_geom_bond_distance
_ccdc_geom_bond_type
C25   C26   1.396003 A    
C8    C11   1.407909 A    
C26   C27   1.493596 S    
C21   C22   1.393955 A    
Cu1   Cu2   2.713658 S    
C33   C34   1.526329 S    
Cu1   O7    1.955365 S    
C16   C17   1.389065 A    
N5    O13   1.301380 A    
C18   C19   1.404052 A    
O4    C2    1.299214 A    
O7    C4    1.299124 A    
C5    C6    1.388835 A    
C11   Cl3   1.773717 S    
N3    O9    1.301644 A    
C8    C9    1.413519 A    
N7    O18   1.302532 A    
C33   Cl1   1.798331 S    
O5    C3    1.305029 A    
C3    C25   1.453693 S    
N5    O14   1.298626 A    
C16   H4    1.084573 S    
C29   N1    1.368953 A    
C6    C7    1.390070 A    
N6    O16   1.301179 A    
C13   C14   1.426575 A    
C19   C20   1.385901 A    
C21   C28   1.504624 S    
C28   N4    1.464676 S    
N4    O11   1.302011 A    
C11   C12   1.405293 A    
C27   H6    1.111427 S    
O3    Cu1   1.954312 S    
C28   H8    1.112140 S    
C31   N2    1.375265 A    
C33   H9    1.111619 S    
C5    C10   1.397520 A    
N4    O12   1.300570 A    
N2    C32   1.364995 A    
C14   C15   1.415056 A    
O3    C2    1.299238 A    
C24   C25   1.421137 A    
C15   C16   1.397896 A    
O1    C1    1.301800 A    
C27   H7    1.113097 S    
Cu2   N1    2.039116 S    
C23   H5    1.079453 S    
C24   N3    1.436477 S    
Cu2   O8    1.954310 S    
C7    C8    1.400327 A    
C13   C18   1.422477 A    
C29   C34   1.505731 S    
N1    C30   1.378187 A    
O8    C4    1.300583 A    
C30   C31   1.426487 A    
C4    C6    1.443083 S    
C27   C28   1.523365 S    
C12   Cl4   1.772747 S    
C17   Cl6   1.764731 S    
C32   C33   1.500690 S    
C15   C20   1.385347 A    
Cu1   O5    1.962412 S    
C22   C23   1.404676 A    
C30   N5    1.427728 S    
C20   H3    1.085932 S    
O1    Cu1   1.962502 S    
O2    Cu2   1.962412 S    
O6    C3    1.299946 A    
O4    Cu2   1.955368 S    
C5    H1    1.082689 S    
C29   C32   1.411109 A    
C10   C17   1.408265 A    
C9    C10   1.423511 A    
O2    C1    1.302282 A    
Cu1   N2    2.038592 S    
C23   C24   1.400959 A    
C34   N7    1.471859 S    
C1    C22   1.449396 S    
N3    O10   1.301449 A    
C9    C14   1.407502 A    
N7    O17   1.301283 A    
C21   C26   1.372069 A    
C31   N6    1.429040 S    
C2    C19   1.444413 S    
C34   Cl2   1.788884 S    
Cu2   O6    1.962502 S    
N6    O15   1.299954 A    
C7    H2    1.080438 S    
C12   C13   1.424824 A    
C18   Cl5   1.774897 S    
