data_mof_unit_33039.cif
_audit_creation_date              2012-12-11T15:31:51-0500
_audit_creation_method            fapswitch 2.2
_symmetry_space_group_name_H-M    P1
_symmetry_Int_Tables_number       1
_space_group_crystal_system       triclinic
_cell_length_a                    13.55682
_cell_length_b                    13.599441
_cell_length_c                    27.635965
_cell_angle_alpha                 90.647478
_cell_angle_beta                  89.978039
_cell_angle_gamma                 119.887712
_cell_volume                      4417.11547576

loop_
_atom_site_label
_atom_site_type_symbol
_atom_type_description
_atom_site_fract_x
_atom_site_fract_y
_atom_site_fract_z
_atom_type_partial_charge
C1    C     C_R   0.619681 0.898142 0.431333 0.543268
C2    C     C_R   0.595884 0.346454 0.215329 -0.097689
C3    C     C_R   0.585489 0.330136 0.265454 0.269211
C4    C     C_R   0.662005 0.306868 0.290332 0.036994
C5    C     C_R   0.678129 0.334768 0.189525 -0.020425
C6    C     C_1   0.690476 0.358942 0.138560 -0.057277
C7    C     C_1   0.648740 0.289185 0.341868 -0.008937
C8    C     C_1   0.700294 0.387757 0.096902 -0.014943
C9    C     C_1   0.235244 0.863063 0.381999 -0.014775
C10   C     C_R   0.178647 0.928900 0.264021 -0.133054
C11   C     C_R   0.166851 0.924422 0.213628 -0.163282
C12   C     C_R   0.600005 0.218901 0.431477 0.540135
C13   C     C_R   0.178049 0.751719 0.210851 0.284376
C14   C     C_R   0.192245 0.758054 0.261300 -0.084722
C15   C     C_R   0.190331 0.845196 0.288062 -0.007830
C16   C     C_R   0.165432 0.835584 0.186792 0.042457
C17   C     C_1   0.138319 0.822484 0.135731 -0.041985
C18   C     C_1   0.210199 0.853661 0.339610 -0.058411
C19   C     C_1   0.104792 0.800169 0.094396 -0.030676
C20   C     C_1   0.636415 0.863406 0.384256 -0.027926
C21   C     C_R   0.562372 0.745009 0.265235 -0.095487
C22   C     C_R   0.569175 0.737224 0.214985 -0.108102
C23   C     C_R   0.280052 0.878937 0.430341 0.540857
C24   C     C_R   0.766434 0.891074 0.217422 0.008596
C25   C     C_R   0.758472 0.896696 0.267997 -0.110521
C26   C     C_R   0.656953 0.824800 0.291830 0.024819
C27   C     C_R   0.670013 0.810360 0.190744 0.029208
C28   C     C_1   0.675586 0.798332 0.139015 -0.052866
C29   C     C_1   0.646712 0.841936 0.342718 -0.064318
C30   C     C_1   0.691036 0.787551 0.096801 -0.010242
C31   C     C_R   0.644393 0.288123 0.613103 0.025850
C32   C     C_R   0.732872 0.284309 0.637694 -0.118737
C33   C     C_R   0.749497 0.310229 0.686536 -0.120209
C34   C     C_R   0.620637 0.900746 0.568893 0.543733
C35   C     C_R   0.680194 0.343653 0.710958 0.036202
C36   C     C_R   0.602054 0.361970 0.684925 -0.123190
C37   C     C_R   0.583557 0.333464 0.636108 -0.131905
C38   C     C_R   0.584002 0.315146 0.790411 -0.117634
C39   C     C_R   0.589481 0.330533 0.840309 -0.123356
C40   C     C_R   0.793875 0.406721 0.837569 -0.124521
C41   C     C_R   0.788850 0.394765 0.787827 -0.123787
C42   C     C_R   0.684429 0.351859 0.763747 0.037870
C43   C     C_R   0.695161 0.380437 0.863854 0.027072
C44   C     C_R   0.225274 0.866399 0.615340 0.013722
C45   C     C_R   0.602486 0.224641 0.567927 0.540794
C46   C     C_R   0.269229 0.962438 0.645975 -0.139363
C47   C     C_R   0.244772 0.951253 0.694840 -0.130856
C48   C     C_R   0.174972 0.843964 0.713970 0.018323
C49   C     C_R   0.123385 0.748467 0.683202 -0.121121
C50   C     C_R   0.147312 0.758235 0.633593 -0.015767
C51   C     C_R   0.161872 0.743064 0.789897 -0.124983
C52   C     C_R   0.134494 0.724110 0.838568 -0.130196
C53   C     C_R   0.107022 0.887343 0.841366 -0.139150
C54   C     C_R   0.133732 0.905815 0.792583 -0.127272
C55   C     C_R   0.157279 0.831299 0.766254 0.038702
C56   C     C_R   0.279022 0.881571 0.568006 0.534110
C57   C     C_R   0.102070 0.793211 0.864103 0.023912
C58   C     C_R   0.641427 0.859908 0.614446 0.022640
C59   C     C_R   0.554020 0.760622 0.635250 -0.125601
C60   C     C_R   0.563929 0.733695 0.682712 -0.122374
C61   C     C_R   0.661665 0.805034 0.709697 0.041064
C62   C     C_R   0.751860 0.900310 0.688002 -0.116476
C63   C     C_R   0.741916 0.927514 0.640659 -0.129693
C64   C     C_R   0.770158 0.795458 0.779117 -0.144901
C65   C     C_R   0.783851 0.789915 0.828250 -0.169131
C66   C     C_R   0.590249 0.750802 0.842949 0.258751
C67   C     C_1   0.631014 0.264417 0.383915 -0.003671
C68   C     C_R   0.578566 0.760862 0.792669 -0.115142
C69   C     C_R   0.668851 0.783927 0.761062 -0.008663
C70   C     C_R   0.696107 0.770886 0.860329 0.059121
C71   C     C_R   0.050458 0.762036 0.047920 0.541674
C72   C     C_R   0.714210 0.435572 0.049666 0.545803
C73   C     C_R   0.722753 0.771100 0.049226 0.550734
C74   C     C_R   0.044589 0.755810 0.910645 0.537481
C75   C     C_R   0.708655 0.429539 0.912107 0.541037
C76   C     C_R   0.718737 0.764149 0.911252 0.586033
C77   C     C_R   0.745335 0.294139 0.264423 -0.039014
C78   C     C_R   0.752547 0.308735 0.213932 -0.133223
Cr1   Cr    Cr6+3 0.417720 0.831920 0.499820 1.030417
Cr2   Cr    Cr6+3 0.668190 0.085770 0.500360 1.005117
Cr3   Cr    Cr6+3 0.414060 0.082260 0.499840 1.015886
Cr4   Cr    Cr6+3 0.908000 0.821090 0.979770 1.015355
Cr5   Cr    Cr6+3 0.912420 0.571130 0.979880 1.012980
Cr6   Cr    Cr6+3 0.657970 0.566940 0.980940 1.034529
H1    H     H_    0.495306 0.674680 0.194934 0.128327
H2    H     H_    0.831320 0.958404 0.288786 0.110331
H3    H     H_    0.782133 0.250916 0.620559 0.127091
H4    H     H_    0.501784 0.277566 0.772606 0.099503
H5    H     H_    0.512416 0.309198 0.860021 0.124724
H6    H     H_    0.810703 0.295725 0.705636 0.099491
H7    H     H_    0.867579 0.424194 0.768187 0.097517
H8    H     H_    0.876969 0.446028 0.854719 0.134034
H9    H     H_    0.551139 0.392459 0.702809 0.103071
H10   H     H_    0.816234 0.299952 0.193710 0.116386
H11   H     H_    0.516546 0.339356 0.617383 0.125061
H12   H     H_    0.329553 0.046056 0.632901 0.140908
H13   H     H_    0.183252 0.686760 0.770347 0.091832
H14   H     H_    0.132324 0.651491 0.855332 0.119064
H15   H     H_    0.285100 0.025913 0.718060 0.108520
H16   H     H_    0.130369 0.974799 0.774930 0.100388
H17   H     H_    0.082902 0.942270 0.860297 0.125722
H18   H     H_    0.064171 0.666367 0.698011 0.105000
H19   H     H_    0.475605 0.706614 0.615757 0.130340
H20   H     H_    0.540394 0.369779 0.196636 0.119379
H21   H     H_    0.839726 0.810949 0.755221 0.125058
H22   H     H_    0.863618 0.799887 0.841412 0.135516
H23   H     H_    0.494396 0.658874 0.698722 0.096279
H24   H     H_    0.501905 0.755590 0.778224 0.097658
H25   H     H_    0.827949 0.956801 0.708419 0.105288
H26   H     H_    0.810409 0.004503 0.625560 0.123906
H27   H     H_    0.179343 0.997938 0.284194 0.114332
H28   H     H_    0.158486 0.990114 0.195810 0.126956
H29   H     H_    0.204897 0.694922 0.279458 0.120471
H30   H     H_    0.482854 0.689969 0.283248 0.121501
O1    O     O_R   0.302900 0.805360 0.446400 -0.505124
O2    O     O_R   0.657980 0.180990 0.549630 -0.508741
O3    O     O_R   0.503420 0.197810 0.553190 -0.522924
O4    O     O_R   0.320350 0.978840 0.548910 -0.508490
O5    O     O_3   0.499990 0.999990 0.500010 -0.242507
O6    O     O_R   0.819150 0.845650 0.033320 -0.504726
O7    O     O_R   0.006060 0.815720 0.028680 -0.502484
O8    O     O_R   0.028100 0.664460 0.032550 -0.504209
O9    O     O_R   0.811290 0.477490 0.029660 -0.495714
O10   O     O_R   0.638120 0.455970 0.034270 -0.508319
O11   O     O_R   0.667540 0.672320 0.030160 -0.493448
O12   O     O_R   0.522090 0.841370 0.450730 -0.489349
O13   O     O_R   0.814460 0.840990 0.926980 -0.526141
O14   O     O_R   0.001710 0.811400 0.930110 -0.509093
O15   O     O_R   0.023410 0.659800 0.926210 -0.525060
O16   O     O_R   0.806940 0.473170 0.931090 -0.507150
O17   O     O_R   0.633420 0.451310 0.927930 -0.516940
O18   O     O_R   0.663190 0.668000 0.931580 -0.478180
O19   O     O_3   0.826130 0.653050 0.980200 -0.251362
O20   O     O_R   0.693280 0.995650 0.447220 -0.518457
O21   O     O_R   0.657260 0.178740 0.451050 -0.500030
O22   O     O_R   0.502640 0.195380 0.446850 -0.503761
O23   O     O_R   0.319630 0.976590 0.450330 -0.496952
O24   O     O_R   0.303680 0.807790 0.552740 -0.501064
O25   O     O_R   0.522820 0.843620 0.549310 -0.502601
O26   O     O_R   0.694060 0.998080 0.553560 -0.522976
C79   C     C_R   0.826892 0.268000 0.289161 0.025274
C80   C     C_R   0.944550 0.338470 0.282660 -0.106179
C81   C     C_R   0.022100 0.314812 0.305602 -0.118944
C82   C     C_R   0.982992 0.220914 0.335595 -0.113468
C83   C     C_R   0.866314 0.150328 0.342443 -0.114276
C84   C     C_R   0.788307 0.172615 0.318911 -0.089635
H31   H     H_    0.976323 0.412277 0.260230 0.101477
H32   H     H_    0.112522 0.369561 0.300247 0.105035
H33   H     H_    0.043048 0.202755 0.353476 0.108478
H34   H     H_    0.836499 0.077636 0.365637 0.133224
H35   H     H_    0.698126 0.115288 0.323746 0.116608
C85   C     C_R   0.873884 0.974402 0.193444 0.028417
C86   C     C_R   0.927763 0.939758 0.159223 -0.078335
C87   C     C_R   0.024520 0.020278 0.134914 -0.109496
C88   C     C_R   0.072275 0.135328 0.146493 -0.114897
C89   C     C_R   0.022078 0.170143 0.181771 -0.115869
C90   C     C_R   0.922693 0.090520 0.204669 -0.099992
H36   H     H_    0.895084 0.850697 0.151198 0.114651
H37   H     H_    0.064096 0.993329 0.107880 0.126591
H38   H     H_    0.148565 0.197368 0.128390 0.109481
H39   H     H_    0.059682 0.258840 0.191236 0.102579
H40   H     H_    0.883084 0.119527 0.230776 0.128009
C91   C     C_R   0.088066 0.655649 0.601977 0.048976
C92   C     C_R   0.034911 0.658945 0.558794 -0.070045
C93   C     C_R   0.974809 0.561120 0.530166 -0.103163
C94   C     C_R   0.966782 0.459145 0.544401 -0.098035
C95   C     C_R   0.019297 0.454915 0.587189 -0.116007
C96   C     C_R   0.079568 0.552501 0.615923 -0.091766
H41   H     H_    0.038495 0.736750 0.547652 0.095969
H42   H     H_    0.933764 0.564211 0.497090 0.110787
H43   H     H_    0.919663 0.383360 0.522342 0.116418
H44   H     H_    0.012936 0.375842 0.598208 0.096200
H45   H     H_    0.119721 0.547591 0.648972 0.089838
O27   O     O_3   0.506377 0.733745 0.876306 -0.554608
C97   C     C_3   0.396556 0.652641 0.859598 -0.013373
H46   H     H_    0.396378 0.579351 0.840955 0.118503
H47   H     H_    0.362943 0.692980 0.834803 0.129967
C98   C     C_3   0.316837 0.607205 0.902618 -0.356355
H48   H     H_    0.311792 0.677392 0.921225 0.170971
H49   H     H_    0.230350 0.542682 0.890061 0.084321
H50   H     H_    0.348413 0.567248 0.928571 0.162126
O28   O     O_3   0.506258 0.345780 0.290883 -0.551998
C99   C     C_3   0.396887 0.251520 0.282446 -0.009461
H51   H     H_    0.393171 0.171700 0.294363 0.137303
H52   H     H_    0.372740 0.243451 0.243484 0.121041
C100  C     C_3   0.310023 0.267324 0.311280 -0.366310
H53   H     H_    0.312337 0.346832 0.300410 0.155435
H54   H     H_    0.223236 0.194906 0.304291 0.085617
H55   H     H_    0.329168 0.271852 0.350581 0.168599
O29   O     O_3   0.185273 0.667843 0.185143 -0.559471
C101  C     C_3   0.074545 0.576424 0.176196 -0.008692
H56   H     H_    0.032731 0.596675 0.146475 0.154844
H57   H     H_    0.019694 0.554303 0.208825 0.112496
C102  C     C_3   0.083415 0.473694 0.160647 -0.370982
H58   H     H_    0.126680 0.452937 0.189538 0.143035
H59   H     H_    0.997336 0.399968 0.154026 0.095212
H60   H     H_    0.133529 0.492141 0.126817 0.170594

loop_
_geom_bond_atom_site_label_1
_geom_bond_atom_site_label_2
_ccdc_geom_bond_type
C51   H13   S    
C48   C55   S    
C66   C68   A    
C21   C26   A    
C88   C89   A    
O29   C101  S    
Cr1   O1    S    
C15   C18   S    
C41   C42   A    
C71   O8    A    
C102  H59   S    
C35   C36   A    
C45   O2    A    
C24   C27   A    
Cr4   O6    S    
C83   C84   A    
Cr2   O20   S    
C64   H21   S    
C97   H47   S    
C66   C70   A    
C53   C54   A    
Cr3   O23   S    
C93   C94   A    
Cr2   O21   S    
C92   C93   A    
C78   H10   S    
Cr5   O15   S    
C2    C3    A    
C10   C15   A    
C99   H52   S    
C5    C6    S    
C73   O11   A    
C102  H60   S    
C45   O3    A    
C81   C82   A    
Cr3   O3    S    
C34   O25   A    
C58   C63   A    
C47   H15   S    
C37   H11   S    
C22   H1    S    
C52   H14   S    
C86   H36   S    
C35   C42   S    
O27   C97   S    
C44   C50   A    
C24   C85   S    
C17   C19   T    
C46   C47   A    
C19   C71   S    
C36   H9    S    
C40   C43   A    
C74   O14   A    
Cr2   O2    S    
C44   C46   A    
C68   C69   A    
C12   O21   A    
Cr1   O5    S    
C11   H28   S    
C12   O22   A    
Cr4   O7    S    
C83   H34   S    
C75   O16   A    
C102  H58   S    
C50   C91   S    
Cr2   O5    S    
C94   H43   S    
C73   O6    A    
C21   C22   A    
C72   O10   A    
C54   H16   S    
C92   H41   S    
C81   H32   S    
C4    C7    S    
C75   O17   A    
C98   H48   S    
C97   C98   S    
C20   C29   T    
C43   C75   S    
C96   H45   S    
C12   C67   S    
Cr6   O19   S    
C8    C72   S    
C51   C52   A    
C98   H50   S    
C24   C25   A    
Cr5   O16   S    
Cr1   O25   S    
C52   C57   A    
C99   C100  S    
C53   H17   S    
C49   H18   S    
C30   C73   S    
C53   C57   A    
C16   C17   S    
C6    C8    T    
C25   C26   A    
C77   C78   A    
C32   H3    S    
C23   O1    A    
Cr3   O4    S    
Cr6   O18   S    
C40   H8    S    
C13   O29   S    
C101  H56   S    
C38   H4    S    
C60   C61   A    
C57   C74   S    
C99   H51   S    
C101  H57   S    
C82   H33   S    
C56   O24   A    
C11   C16   A    
C44   C56   S    
C47   C48   A    
C2    H20   S    
C62   C63   A    
C3    C4    A    
C10   H27   S    
C64   C69   A    
C1    O12   A    
O28   C99   S    
Cr4   O14   S    
C87   C88   A    
C60   H23   S    
C79   C84   A    
C100  H53   S    
C40   C41   A    
C41   H7    S    
Cr1   O12   S    
C89   H39   S    
C22   C27   A    
C79   C80   A    
C72   O9    A    
C70   C76   S    
C94   C95   A    
C13   C16   A    
C2    C5    A    
C100  H54   S    
C1    O20   A    
C93   H42   S    
C65   H22   S    
C95   C96   A    
C87   H37   S    
Cr3   O22   S    
C61   C69   S    
Cr6   O11   S    
C54   C55   A    
C89   C90   A    
C1    C20   S    
C88   H38   S    
C14   C15   A    
C56   O4    A    
C80   H31   S    
C23   O23   A    
C31   C32   A    
C9    C23   S    
C21   H30   S    
C98   H49   S    
C38   C42   A    
C95   H44   S    
Cr6   O10   S    
C14   H29   S    
Cr3   O5    S    
Cr6   O17   S    
C82   C83   A    
C59   H19   S    
C64   C65   A    
C63   H26   S    
C28   C30   T    
C91   C96   A    
C58   C59   A    
C101  C102  S    
C4    C77   A    
C97   H46   S    
Cr2   O26   S    
C33   H6    S    
C32   C33   A    
C76   O18   A    
C100  H55   S    
C38   C39   A    
C62   H25   S    
Cr4   O19   S    
C48   C49   A    
C71   O7    A    
C34   O26   A    
C25   H2    S    
C33   C35   A    
C85   C90   A    
C51   C55   A    
Cr5   O8    S    
C61   C62   A    
C3    O28   S    
C77   C79   S    
Cr4   O13   S    
Cr5   O19   S    
C91   C92   A    
C10   C11   A    
C7    C67   T    
C84   H35   S    
C5    C78   A    
C31   C37   A    
C9    C18   T    
C59   C60   A    
Cr1   O24   S    
C46   H12   S    
C85   C86   A    
C39   C43   A    
C26   C29   S    
C36   C37   A    
C49   C50   A    
C31   C45   S    
C74   O15   A    
C27   C28   S    
C34   C58   S    
C76   O13   A    
C80   C81   A    
C66   O27   S    
C68   H24   S    
Cr5   O9    S    
C86   C87   A    
C13   C14   A    
C90   H40   S    
C39   H5    S    
C65   C70   A    
