data_mof_unit_63775.cif
_audit_creation_date              2012-12-10T17:44:24-0500
_audit_creation_method            fapswitch 2.2
_symmetry_space_group_name_H-M    P1
_symmetry_Int_Tables_number       1
_space_group_crystal_system       triclinic
_cell_length_a                    44.061216
_cell_length_b                    30.380463
_cell_length_c                    31.963875
_cell_angle_alpha                 89.997958
_cell_angle_beta                  136.398451
_cell_angle_gamma                 89.999912
_cell_volume                      29507.4839709

loop_
_atom_site_label
_atom_site_type_symbol
_atom_type_description
_atom_site_fract_x
_atom_site_fract_y
_atom_site_fract_z
_atom_type_partial_charge
C1    C     C_R   0.585127 0.999981 0.085009 0.785277
C2    C     C_R   0.414873 0.999982 0.914990 0.785253
C3    C     C_R   0.085127 0.499981 0.085009 0.785525
C4    C     C_R   0.914873 0.499983 0.914990 0.785247
C5    C     C_3   0.500140 0.000001 0.291473 0.146929
C6    C     C_3   0.499861 0.000001 0.708529 0.146927
C7    C     C_3   0.000116 0.500006 0.291451 0.146933
C8    C     C_3   0.999870 0.499990 0.708538 0.146906
C9    C     C_3   0.464184 0.018270 0.200667 0.315992
C10   C     C_3   0.536298 0.017286 0.799815 0.316019
C11   C     C_3   0.964226 0.518393 0.200707 0.316240
C12   C     C_3   0.038149 0.512672 0.801664 0.316323
C13   C     C_3   0.498188 0.041867 0.262250 -0.162345
C14   C     C_3   0.502946 0.041799 0.738881 -0.162326
C15   C     C_3   0.998308 0.541876 0.262370 -0.162386
C16   C     C_3   0.008059 0.541093 0.743984 -0.162322
C17   C     C_1   0.500351 0.999881 0.163149 -0.059451
C18   C     C_1   0.499646 0.999889 0.836848 -0.059448
C19   C     C_1   0.000341 0.499878 0.163141 -0.059425
C20   C     C_1   0.999633 0.499911 0.836835 -0.059426
C21   C     C_1   0.500120 0.999995 0.337316 -0.058119
C22   C     C_1   0.499882 0.999995 0.662686 -0.058122
C23   C     C_1   0.000106 0.499999 0.337305 -0.058125
C24   C     C_1   0.999888 0.499986 0.662691 -0.058119
C25   C     C_R   0.702681 0.039310 0.209208 -0.157865
C26   C     C_R   0.297315 0.039332 0.790891 -0.157924
C27   C     C_R   0.202676 0.539344 0.209097 -0.157470
C28   C     C_R   0.797325 0.539349 0.790867 -0.157700
C29   C     C_R   0.656830 0.039388 0.163033 -0.189510
C30   C     C_R   0.343167 0.039408 0.837063 -0.189579
C31   C     C_R   0.156825 0.539414 0.162920 -0.189278
C32   C     C_R   0.843176 0.539417 0.837048 -0.189595
C33   C     C_R   0.633531 0.000025 0.133236 -0.029201
C34   C     C_R   0.366469 0.000028 0.866765 -0.029248
C35   C     C_R   0.133530 0.500029 0.133239 -0.029156
C36   C     C_R   0.866470 0.500034 0.866758 -0.029199
C37   C     C_R   0.656902 0.960708 0.149966 -0.186430
C38   C     C_R   0.343099 0.960693 0.849941 -0.186434
C39   C     C_R   0.156908 0.460694 0.150090 -0.186319
C40   C     C_R   0.843093 0.460706 0.849932 -0.186444
C41   C     C_R   0.702769 0.960763 0.195865 -0.176797
C42   C     C_R   0.297233 0.960749 0.804045 -0.176805
C43   C     C_R   0.202775 0.460755 0.195995 -0.176744
C44   C     C_R   0.797226 0.460769 0.804023 -0.176786
C45   C     C_R   0.499984 0.999968 0.080165 0.828806
C46   C     C_R   0.500015 0.999969 0.919835 0.828843
C47   C     C_R   0.999983 0.499967 0.080164 0.828806
C48   C     C_R   0.000015 0.499970 0.919835 0.829051
C49   C     C_R   0.725728 0.999975 0.225921 0.091662
C50   C     C_R   0.274271 0.999980 0.774085 0.091646
C51   C     C_R   0.225729 0.499992 0.225938 0.091674
C52   C     C_R   0.774271 0.500002 0.774049 0.091690
C53   C     C_R   0.797231 0.007161 0.336100 0.285681
C54   C     C_R   0.202772 0.007257 0.663923 0.285699
C55   C     C_R   0.297239 0.507377 0.336085 0.286304
C56   C     C_R   0.702756 0.507401 0.663903 0.286324
C57   C     C_R   0.843316 0.006819 0.381323 -0.195647
C58   C     C_R   0.156686 0.006907 0.618696 -0.195646
C59   C     C_R   0.343323 0.507017 0.381306 -0.197007
C60   C     C_R   0.656671 0.507037 0.618687 -0.197018
C61   C     C_R   0.866275 0.000096 0.366657 -0.091797
C62   C     C_R   0.133725 0.000099 0.633347 -0.091780
C63   C     C_R   0.366277 0.500109 0.366660 -0.091576
C64   C     C_R   0.633722 0.500116 0.633336 -0.091561
C65   C     C_R   0.842703 0.993151 0.306007 -0.191993
C66   C     C_R   0.157297 0.993073 0.693984 -0.191980
C67   C     C_R   0.342700 0.492994 0.306038 -0.190400
C68   C     C_R   0.657303 0.492994 0.693960 -0.190407
C69   C     C_R   0.796903 0.992702 0.260749 -0.206867
C70   C     C_R   0.203096 0.992625 0.739242 -0.206877
C71   C     C_R   0.296901 0.492549 0.260788 -0.206499
C72   C     C_R   0.703102 0.492551 0.739206 -0.206650
C73   C     C_R   0.773939 0.999755 0.275221 0.019482
C74   C     C_R   0.226061 0.999764 0.724786 0.019464
C75   C     C_R   0.273941 0.499784 0.275236 0.019214
C76   C     C_R   0.726058 0.499797 0.724754 0.019251
C77   C     C_R   0.500001 0.914754 0.500000 0.784452
C78   C     C_R   0.000001 0.414761 0.500000 0.784207
C79   C     C_R   0.499995 0.999952 0.419816 0.828798
C80   C     C_R   0.500005 0.999952 0.580184 0.828797
C81   C     C_R   0.999995 0.499953 0.419816 0.828674
C82   C     C_R   0.000005 0.499950 0.580185 0.828688
C83   C     C_R   0.499999 0.084998 0.499999 0.783507
C84   C     C_R   0.999999 0.584997 0.499999 0.783524
C85   C     C_3   0.537496 0.980985 0.301652 -0.141670
C86   C     C_3   0.462004 0.982007 0.697851 -0.141697
C87   C     C_3   0.037408 0.480861 0.301572 -0.140972
C88   C     C_3   0.960089 0.486780 0.695936 -0.141147
C89   C     C_R   0.000000 0.085197 0.500000 0.793902
C90   C     C_R   0.500000 0.585188 0.499999 0.793701
C91   C     C_R   0.914680 0.999980 0.414740 0.812894
C92   C     C_R   0.085320 0.999979 0.585261 0.812870
C93   C     C_R   0.414680 0.499982 0.414740 0.812755
C94   C     C_R   0.585319 0.499984 0.585259 0.812741
C95   C     C_R   1.000000 0.914708 0.500000 0.795126
C96   C     C_R   0.500000 0.414708 0.500000 0.794982
C97   C     C_R   0.462415 0.797297 0.475209 -0.171006
C98   C     C_R   0.537590 0.797296 0.524791 -0.171035
C99   C     C_R   0.037221 0.297325 0.550829 -0.171024
C100  C     C_R   0.962781 0.297330 0.449169 -0.170985
C101  C     C_R   0.462282 0.843161 0.474762 -0.184717
C102  C     C_R   0.537722 0.843160 0.525239 -0.184745
C103  C     C_R   0.037366 0.343189 0.550649 -0.184914
C104  C     C_R   0.962636 0.343193 0.449350 -0.184789
C105  C     C_R   0.500002 0.866431 0.500001 -0.026179
C106  C     C_R   0.000001 0.366452 0.500000 -0.025545
C107  C     C_R   0.500002 0.774129 0.499999 0.101474
C108  C     C_R   0.000001 0.274160 0.499998 0.101250
C109  C     C_R   0.987678 0.202657 0.451622 -0.170452
C110  C     C_R   0.012323 0.202654 0.548376 -0.170461
C111  C     C_R   0.513416 0.702621 0.477663 -0.170092
C112  C     C_R   0.486589 0.702621 0.522336 -0.170117
C113  C     C_R   0.988004 0.156793 0.451833 -0.185796
C114  C     C_R   0.011997 0.156790 0.548165 -0.185796
C115  C     C_R   0.513081 0.656758 0.477204 -0.185750
C116  C     C_R   0.486921 0.656757 0.522794 -0.185744
C117  C     C_R   0.000001 0.133519 0.499999 -0.030130
C118  C     C_R   0.500000 0.633497 0.499999 -0.028490
C119  C     C_3   0.535427 0.022668 0.271516 -0.194691
C120  C     C_3   0.465201 0.023620 0.729109 -0.194713
C121  C     C_3   0.035484 0.522548 0.271579 -0.194871
C122  C     C_3   0.968366 0.527685 0.732264 -0.195095
C123  C     C_R   0.000001 0.225823 0.499998 0.101721
C124  C     C_R   0.500003 0.725789 0.500000 0.101924
C125  C     C_R   0.462481 0.202498 0.475456 -0.170837
C126  C     C_R   0.537514 0.202497 0.524539 -0.170843
C127  C     C_R   0.962504 0.702496 0.475538 -0.170799
C128  C     C_R   0.037492 0.702494 0.524457 -0.170799
C129  C     C_R   0.462345 0.156624 0.474998 -0.184854
C130  C     C_R   0.537650 0.156623 0.524998 -0.184867
C131  C     C_R   0.962367 0.656622 0.475079 -0.184787
C132  C     C_R   0.037629 0.656621 0.524917 -0.184852
C133  C     C_R   0.499998 0.133342 0.499998 -0.026556
C134  C     C_R   0.999998 0.633340 0.499998 -0.026535
C135  C     C_R   0.499997 0.225680 0.499998 0.101084
C136  C     C_R   0.999998 0.725677 0.499998 0.101074
C137  C     C_R   0.013140 0.797223 0.477305 -0.169638
C138  C     C_R   0.986857 0.797221 0.522693 -0.169600
C139  C     C_R   0.513197 0.297225 0.477381 -0.169642
C140  C     C_R   0.486798 0.297223 0.522616 -0.169627
C141  C     C_R   0.012802 0.843096 0.476843 -0.184482
C142  C     C_R   0.987196 0.843095 0.523157 -0.184519
C143  C     C_R   0.512859 0.343099 0.476919 -0.184494
C144  C     C_R   0.487138 0.343097 0.523081 -0.184511
C145  C     C_R   1.000000 0.866373 0.500000 -0.030424
C146  C     C_R   0.499999 0.366374 0.500000 -0.030396
C147  C     C_R   0.999998 0.774040 0.499999 0.101083
C148  C     C_R   0.499997 0.274042 0.499998 0.101055
C149  C     C_1   0.500153 0.999947 0.125235 -0.171204
C150  C     C_1   0.499845 0.999952 0.874763 -0.171206
C151  C     C_1   0.000148 0.499945 0.125232 -0.171210
C152  C     C_1   0.999839 0.499957 0.874757 -0.171212
C153  C     C_1   0.500074 0.999981 0.374990 -0.177422
C154  C     C_1   0.499927 0.999981 0.625011 -0.177426
C155  C     C_1   0.000069 0.499984 0.374987 -0.177419
C156  C     C_1   0.999930 0.499975 0.625014 -0.177424
C157  C     C_3   0.502590 0.958111 0.238743 -0.202803
C158  C     C_3   0.496276 0.958192 0.760130 -0.202811
C159  C     C_3   0.002428 0.458104 0.238588 -0.202822
C160  C     C_3   0.991178 0.458938 0.755039 -0.202619
C161  C     C_3   0.500588 0.999765 0.209273 0.126919
C162  C     C_3   0.499406 0.999777 0.790721 0.126934
C163  C     C_3   0.000572 0.499762 0.209259 0.126902
C164  C     C_3   0.999383 0.499825 0.790699 0.126878
C165  C     C_3   0.465158 0.976915 0.229291 -0.205565
C166  C     C_3   0.534205 0.975972 0.770076 -0.205583
C167  C     C_3   0.965057 0.477036 0.229192 -0.206239
C168  C     C_3   0.031005 0.471927 0.766883 -0.206095
Cu1   Cu    Cu3+1 0.500000 0.955920 0.000000 0.943704
Cu2   Cu    Cu3+1 0.000000 0.455920 0.000000 0.943600
Cu3   Cu    Cu3+1 0.500000 0.044010 0.000000 0.950589
Cu4   Cu    Cu3+1 0.000000 0.544010 0.000000 0.950452
Cu5   Cu    Cu3+1 0.544020 0.999870 0.544020 0.945324
Cu6   Cu    Cu3+1 0.455980 0.999870 0.455980 0.945351
Cu7   Cu    Cu3+1 0.044020 0.499870 0.544020 0.945455
Cu8   Cu    Cu3+1 0.955980 0.499870 0.455980 0.945445
Cu9   Cu    Cu3+1 0.999970 0.999960 0.541410 0.937079
Cu10  Cu    Cu3+1 0.000030 0.999960 0.458590 0.937105
Cu11  Cu    Cu3+1 0.499970 0.499960 0.541410 0.937484
Cu12  Cu    Cu3+1 0.500030 0.499960 0.458590 0.937513
H1    H     H_    0.564359 0.041167 0.288546 0.142041
H2    H     H_    0.436783 0.042899 0.712592 0.142068
H3    H     H_    0.064493 0.540938 0.288700 0.142078
H4    H     H_    0.942522 0.550304 0.718312 0.142192
H5    H     H_    0.720395 0.930210 0.208479 0.135997
H6    H     H_    0.279607 0.930184 0.791355 0.136019
H7    H     H_    0.220405 0.430190 0.208703 0.135936
H8    H     H_    0.779597 0.430208 0.791337 0.135936
H9    H     H_    0.861192 0.011467 0.428145 0.162649
H10   H     H_    0.138811 0.011621 0.571882 0.162623
H11   H     H_    0.361205 0.511803 0.428111 0.161954
H12   H     H_    0.638786 0.511828 0.571881 0.161956
H13   H     H_    0.859634 0.987708 0.293547 0.159973
H14   H     H_    0.140365 0.987561 0.706432 0.159951
H15   H     H_    0.359628 0.487407 0.293598 0.160251
H16   H     H_    0.640377 0.487398 0.706403 0.160222
H17   H     H_    0.779224 0.987194 0.214129 0.148665
H18   H     H_    0.220776 0.987050 0.785853 0.148655
H19   H     H_    0.279217 0.486901 0.214190 0.148871
H20   H     H_    0.720788 0.486896 0.785805 0.148746
H21   H     H_    0.433034 0.779863 0.455569 0.129498
H22   H     H_    0.566971 0.779861 0.544429 0.129472
H23   H     H_    0.066314 0.279889 0.590316 0.129639
H24   H     H_    0.933687 0.279897 0.409681 0.129669
H25   H     H_    0.432845 0.860389 0.455221 0.149623
H26   H     H_    0.567158 0.860388 0.544780 0.149604
H27   H     H_    0.066508 0.360428 0.590330 0.149103
H28   H     H_    0.933493 0.360436 0.409669 0.149151
H29   H     H_    0.978330 0.220097 0.414097 0.129395
H30   H     H_    0.021671 0.220091 0.585900 0.129366
H31   H     H_    0.523626 0.720055 0.459929 0.129137
H32   H     H_    0.476379 0.720054 0.540070 0.129135
H33   H     H_    0.978502 0.139569 0.414092 0.149199
H34   H     H_    0.021500 0.139563 0.585907 0.149192
H35   H     H_    0.523446 0.639518 0.459576 0.147805
H36   H     H_    0.476556 0.639517 0.540422 0.147805
H37   H     H_    0.433151 0.219931 0.456011 0.129983
H38   H     H_    0.566843 0.219929 0.543984 0.129983
H39   H     H_    0.933193 0.719929 0.456159 0.129975
H40   H     H_    0.066803 0.719926 0.543836 0.129988
H41   H     H_    0.568008 0.965462 0.344237 0.136499
H42   H     H_    0.431083 0.967319 0.654859 0.136539
H43   H     H_    0.067869 0.465240 0.344113 0.137190
H44   H     H_    0.927600 0.475999 0.651375 0.137258
H45   H     H_    0.432960 0.139396 0.455645 0.149703
H46   H     H_    0.567036 0.139394 0.544352 0.149703
H47   H     H_    0.933001 0.639393 0.455792 0.149697
H48   H     H_    0.066996 0.639390 0.544205 0.149705
H49   H     H_    0.023139 0.779792 0.459291 0.129659
H50   H     H_    0.976858 0.779788 0.540708 0.129671
H51   H     H_    0.523242 0.279793 0.459427 0.129678
H52   H     H_    0.476753 0.279791 0.540569 0.129680
H53   H     H_    0.022947 0.860332 0.458920 0.149454
H54   H     H_    0.977051 0.860330 0.541079 0.149443
H55   H     H_    0.523051 0.360336 0.459058 0.149444
H56   H     H_    0.476947 0.360334 0.540942 0.149442
H57   H     H_    0.495983 0.076209 0.271718 0.130891
H58   H     H_    0.506083 0.076069 0.730340 0.130917
H59   H     H_    0.996225 0.576225 0.271959 0.130899
H60   H     H_    0.015376 0.574718 0.739617 0.131079
H61   H     H_    0.435986 0.958648 0.211815 0.135430
H62   H     H_    0.562871 0.956919 0.787047 0.135390
H63   H     H_    0.935816 0.458872 0.211641 0.134684
H64   H     H_    0.057117 0.449500 0.781309 0.134475
H65   H     H_    0.504675 0.923827 0.228980 0.144371
H66   H     H_    0.493264 0.923978 0.768969 0.144359
H67   H     H_    0.004398 0.423812 0.228718 0.144372
H68   H     H_    0.983988 0.425353 0.759708 0.144418
H69   H     H_    0.720226 0.069857 0.231894 0.133708
H70   H     H_    0.279767 0.069890 0.768278 0.133709
H71   H     H_    0.220215 0.569909 0.231685 0.133801
H72   H     H_    0.779785 0.569912 0.768260 0.133780
H73   H     H_    0.639675 0.070163 0.151033 0.153081
H74   H     H_    0.360318 0.070196 0.849135 0.153098
H75   H     H_    0.139667 0.570204 0.150824 0.153094
H76   H     H_    0.860333 0.570202 0.849125 0.153040
H77   H     H_    0.639792 0.929949 0.127545 0.152784
H78   H     H_    0.360210 0.929919 0.872281 0.152834
H79   H     H_    0.139803 0.429917 0.127762 0.152760
H80   H     H_    0.860199 0.429932 0.872284 0.152767
O1    O     O_R   0.564270 0.962770 0.064270 -0.590711
O2    O     O_R   0.435730 0.962770 0.935730 -0.590720
O3    O     O_R   0.064270 0.462770 0.064270 -0.590751
O4    O     O_R   0.935730 0.462770 0.935730 -0.590740
O5    O     O_R   0.935700 0.999950 0.470690 -0.591153
O6    O     O_R   0.064300 0.999950 0.529310 -0.591128
O7    O     O_R   0.435700 0.499950 0.470690 -0.592933
O8    O     O_R   0.564300 0.499950 0.529310 -0.592935
O9    O     O_R   0.935690 0.999950 0.400690 -0.588434
O10   O     O_R   0.064310 0.999950 0.599310 -0.588431
O11   O     O_R   0.435690 0.499950 0.400690 -0.586533
O12   O     O_R   0.564310 0.499950 0.599310 -0.586549
O13   O     O_R   0.000020 0.935690 0.535010 -0.588637
O14   O     O_R   0.999980 0.935690 0.464990 -0.588624
O15   O     O_R   0.500020 0.435690 0.535010 -0.588642
O16   O     O_R   0.499980 0.435690 0.464990 -0.588639
O17   O     O_R   0.564210 0.037160 0.064210 -0.589330
O18   O     O_R   0.435790 0.037160 0.935790 -0.589372
O19   O     O_R   0.064210 0.537160 0.064210 -0.589283
O20   O     O_R   0.935790 0.537160 0.935790 -0.589417
O21   O     O_R   0.500000 0.962770 0.060460 -0.581242
O22   O     O_R   0.500000 0.962770 0.939540 -0.581282
O23   O     O_R   0.000000 0.462770 0.060460 -0.581261
O24   O     O_R   1.000000 0.462770 0.939540 -0.581363
O25   O     O_R   0.499940 0.037170 0.060400 -0.577090
O26   O     O_R   0.500060 0.037170 0.939600 -0.577101
O27   O     O_R   0.999940 0.537170 0.060400 -0.577069
O28   O     O_R   0.000060 0.537170 0.939600 -0.577267
O29   O     O_R   0.537150 0.935610 0.537150 -0.589351
O30   O     O_R   0.462850 0.935610 0.462850 -0.589334
O31   O     O_R   0.037150 0.435610 0.537150 -0.589182
O32   O     O_R   0.962850 0.435610 0.462850 -0.589150
O33   O     O_R   0.537160 0.999880 0.476700 -0.582090
O34   O     O_R   0.462840 0.999880 0.523300 -0.582082
O35   O     O_R   0.037160 0.499880 0.476700 -0.579731
O36   O     O_R   0.962840 0.499880 0.523300 -0.579728
O37   O     O_R   0.462760 0.999960 0.402300 -0.578001
O38   O     O_R   0.537240 0.999960 0.597700 -0.578013
O39   O     O_R   0.962760 0.499960 0.402300 -0.580388
O40   O     O_R   0.037240 0.499960 0.597700 -0.580405
O41   O     O_R   0.537180 0.064140 0.537190 -0.589081
O42   O     O_R   0.462820 0.064140 0.462810 -0.589081
O43   O     O_R   0.037180 0.564140 0.537190 -0.589048
O44   O     O_R   0.962820 0.564140 0.462810 -0.589068
O45   O     O_R   0.999920 0.064220 0.534910 -0.589520
O46   O     O_R   0.000080 0.064220 0.465090 -0.589527
O47   O     O_R   0.499920 0.564220 0.534910 -0.589245
O48   O     O_R   0.500080 0.564220 0.465090 -0.589233
N1    N     N_2   0.775045 0.012578 0.352960 -0.436624
H81   H     H_    0.743255 0.000821 0.322448 0.260968
C169  C     C_3   0.779908 0.055447 0.376992 -0.704715
H82   H     H_    0.762515 0.055857 0.390180 0.229794
H83   H     H_    0.765450 0.081251 0.342133 0.219881
H84   H     H_    0.815129 0.062995 0.417955 0.232579
N2    N     N_2   0.224961 0.012766 0.647079 -0.436607
H85   H     H_    0.256757 0.001025 0.677579 0.260981
C170  C     C_3   0.220079 0.055673 0.623106 -0.704719
H86   H     H_    0.237481 0.056153 0.609931 0.229815
H87   H     H_    0.234517 0.081441 0.657999 0.219884
H88   H     H_    0.184855 0.063217 0.582147 0.232574
N3    N     N_2   0.275059 0.512999 0.352930 -0.436063
H89   H     H_    0.243262 0.501269 0.322466 0.260994
C171  C     C_3   0.279958 0.555956 0.376814 -0.707014
H90   H     H_    0.262562 0.556524 0.389995 0.229961
H91   H     H_    0.265525 0.581675 0.341866 0.219788
H92   H     H_    0.315185 0.563502 0.417753 0.231508
N4    N     N_2   0.724930 0.513037 0.647050 -0.436043
H93   H     H_    0.756730 0.501315 0.677512 0.261029
C172  C     C_3   0.720013 0.555995 0.623153 -0.707082
H94   H     H_    0.737398 0.556571 0.609955 0.229979
H95   H     H_    0.734446 0.581715 0.658097 0.219750
H96   H     H_    0.684783 0.563537 0.582220 0.231496
N5    N     N_2   0.424519 0.038250 0.144758 -0.429289
H97   H     H_    0.408809 0.018754 0.107309 0.248986
C173  C     C_3   0.394998 0.055706 0.146614 -0.698596
H98   H     H_    0.366790 0.072142 0.102855 0.230449
H99   H     H_    0.412183 0.080447 0.183446 0.234580
H100  H     H_    0.382239 0.028732 0.153982 0.219537
N6    N     N_2   0.576489 0.036180 0.856249 -0.429332
H101  H     H_    0.591665 0.016261 0.893164 0.248961
C174  C     C_3   0.606471 0.052831 0.854855 -0.698585
H102  H     H_    0.635116 0.068490 0.899049 0.230435
H103  H     H_    0.589964 0.078035 0.818702 0.234602
H104  H     H_    0.618492 0.025524 0.846747 0.219539
N7    N     N_2   0.924628 0.538502 0.144851 -0.429235
H105  H     H_    0.908856 0.519059 0.107336 0.248945
C175  C     C_3   0.895155 0.556075 0.146734 -0.698564
H106  H     H_    0.867012 0.572604 0.103020 0.230636
H107  H     H_    0.912415 0.580765 0.183639 0.234599
H108  H     H_    0.882286 0.529156 0.153996 0.219237
N8    N     N_2   0.080353 0.526491 0.860113 -0.429447
H109  H     H_    0.092961 0.504870 0.894479 0.248862
C176  C     C_3   0.112163 0.539316 0.860549 -0.698674
H110  H     H_    0.142507 0.551351 0.906444 0.230563
H111  H     H_    0.098881 0.566343 0.827595 0.234750
H112  H     H_    0.120753 0.510727 0.849035 0.219169

loop_
_geom_bond_atom_site_label_1
_geom_bond_atom_site_label_2
_ccdc_geom_bond_type
C99   C103  A    
C4    C36   S    
C55   C59   A    
C172  H95   S    
C59   H11   S    
C116  H36   S    
Cu9   O10   S    
C119  C161  S    
C6    C166  S    
C48   O24   A    
Cu11  O12   S    
C37   H77   S    
C112  C124  A    
C23   C155  T    
C81   O39   A    
C82   O40   A    
C15   H59   S    
C100  C104  A    
C9    C13   S    
Cu5   O29   S    
C8    C168  S    
C54   C74   A    
C25   H69   S    
C12   C16   S    
C70   C74   A    
Cu6   O42   S    
Cu8   O32   S    
C53   N1    S    
C5    C13   S    
Cu3   O17   S    
C141  C145  A    
C17   C161  S    
C92   O6    A    
C125  C135  A    
C83   O41   A    
C168  H64   S    
C8    C16   S    
C11   C167  S    
C107  C124  S    
C160  H68   S    
C109  H29   S    
C41   C49   A    
C66   H14   S    
C8    C88   S    
C25   C29   A    
C127  H39   S    
C171  H90   S    
C46   O26   A    
C28   C32   A    
C127  C136  A    
C88   C122  S    
C173  H99   S    
C62   C66   A    
C13   H57   S    
C98   C102  A    
C87   H43   S    
C170  H88   S    
C1    O17   A    
Cu9   O5    S    
C110  C123  A    
C3    O19   A    
Cu7   Cu8   S    
Cu11  O15   S    
C68   C72   A    
C115  C118  A    
Cu1   O1    S    
C115  H35   S    
C80   C154  S    
C129  C133  A    
C4    O20   A    
C49   C73   S    
C165  H61   S    
C160  C164  S    
C111  C124  A    
C132  H48   S    
C57   C61   A    
C59   C63   A    
C78   C106  S    
C60   C64   A    
C26   C50   A    
C64   C94   S    
C89   O46   A    
C79   O33   A    
C2    O2    A    
C77   C105  S    
C159  C167  S    
Cu1   O21   S    
C88   C160  S    
C127  C131  A    
Cu12  O11   S    
C173  H98   S    
C97   C107  A    
C61   C65   A    
C5    C21   S    
C130  H46   S    
C132  C134  A    
N3    H89   S    
C21   C153  T    
C139  H51   S    
Cu8   O44   S    
C18   C150  T    
C120  H2    S    
C126  H38   S    
C6    C22   S    
C29   C33   A    
Cu8   O39   S    
C18   C162  S    
C114  H34   S    
N8    H109  S    
C56   N4    S    
C40   H80   S    
C66   C70   A    
C99   C108  A    
C95   O14   A    
C64   C68   A    
Cu10  O46   S    
C103  H27   S    
C50   C74   S    
Cu4   O28   S    
C6    C14   S    
C121  C163  S    
C122  C164  S    
Cu2   O4    S    
C157  C161  S    
C85   C119  S    
C16   C122  S    
C84   O44   A    
C139  C143  A    
C116  C118  A    
C58   H10   S    
C19   C151  T    
C88   H44   S    
C128  H40   S    
Cu10  O9    S    
C4    O4    A    
C5    C85   S    
C44   C52   A    
C160  C168  S    
C70   H18   S    
Cu1   Cu3   S    
C11   C15   S    
C38   H78   S    
Cu12  O8    S    
C27   C51   A    
C25   C49   A    
C174  H103  S    
C139  C148  A    
C100  C108  A    
C30   C34   A    
C138  H50   S    
C10   C14   S    
C157  C165  S    
C77   O30   A    
N4    C172  S    
C90   O47   A    
C109  C123  A    
Cu5   O33   S    
Cu7   O43   S    
C171  H91   S    
Cu2   O24   S    
C57   H9    S    
C125  C129  A    
C79   C153  S    
C92   O10   A    
C93   O11   A    
C3    C35   S    
C60   H12   S    
C94   O12   A    
C11   C163  S    
C19   C163  S    
C9    C161  S    
C102  H26   S    
C47   O23   A    
C42   C50   A    
C113  C117  A    
C141  H53   S    
C89   C117  S    
C26   C30   A    
C29   H73   S    
C169  H83   S    
C96   O16   A    
C112  C116  A    
C27   H71   S    
C46   C150  S    
C7    C167  S    
C99   H23   S    
C97   H21   S    
C52   C76   S    
C2    O18   A    
Cu10  O6    S    
C10   C166  S    
C96   C146  S    
C167  H63   S    
C6    C86   S    
C31   H75   S    
Cu7   O31   S    
C91   O5    A    
C175  H108  S    
C2    C34   S    
C7    C23   S    
C7    C15   S    
C8    C24   S    
C37   C41   A    
Cu4   O19   S    
C24   C156  T    
C40   C44   A    
C16   H60   S    
C10   C162  S    
C129  H45   S    
C86   C120  S    
C157  H65   S    
C125  H37   S    
C58   C62   A    
C143  C146  A    
Cu12  O48   S    
C95   C145  S    
C131  C134  A    
C79   O37   A    
C104  C106  A    
C176  H110  S    
Cu9   O13   S    
C78   O31   A    
C9    N5    S    
C84   C134  S    
N5    H97   S    
C90   C118  S    
C128  C136  A    
C54   C58   A    
C83   O42   A    
C126  C130  A    
C20   C164  S    
C45   O25   A    
C102  C105  A    
C119  H1    S    
C170  H87   S    
C26   H70   S    
C176  H111  S    
C7    C87   S    
C30   H74   S    
C69   C73   A    
N7    C175  S    
Cu3   O26   S    
N2    H85   S    
C142  C145  A    
C110  H30   S    
C85   C157  S    
Cu11  O47   S    
C65   H13   S    
C175  H107  S    
N5    C173  S    
C53   C73   A    
C144  H56   S    
C137  H49   S    
C138  C142  A    
C175  H106  S    
C14   H58   S    
C53   C57   A    
Cu5   Cu6   S    
C27   C31   A    
C33   C37   A    
C98   C107  A    
C56   C60   A    
C35   C39   A    
C28   H72   S    
C89   O45   A    
C12   C164  S    
N6    H101  S    
Cu5   O38   S    
C32   H76   S    
Cu7   O40   S    
C68   H16   S    
Cu3   O18   S    
C39   H79   S    
C144  C146  A    
C47   C151  S    
C126  C135  A    
C140  H52   S    
C14   C120  S    
C48   C152  S    
C166  H62   S    
C31   C35   A    
C130  C133  A    
C108  C123  S    
C32   C36   A    
C176  H112  S    
C158  C166  S    
C87   C121  S    
C137  C141  A    
Cu6   O34   S    
C137  C147  A    
C140  C144  A    
Cu3   O25   S    
C81   C155  S    
C173  H100  S    
N8    C176  S    
C71   H19   S    
C93   O7    A    
C94   O8    A    
C63   C93   S    
C95   O13   A    
C9    C165  S    
N4    H93   S    
C47   O27   A    
C80   O38   A    
C100  H24   S    
C43   C51   A    
Cu2   Cu4   S    
C87   C159  S    
C65   C69   A    
Cu1   O2    S    
C55   N3    S    
C67   C71   A    
C104  H28   S    
C111  H31   S    
Cu11  Cu12  S    
C131  H47   S    
C20   C152  T    
Cu9   Cu10  S    
Cu11  O7    S    
C169  H82   S    
C56   C76   A    
Cu5   O41   S    
Cu7   O35   S    
C172  H94   S    
C11   N7    S    
Cu8   O36   S    
C113  H33   S    
C72   C76   A    
C140  C148  A    
C1    C33   S    
N1    H81   S    
C112  H32   S    
C51   C75   S    
C38   C42   A    
C77   O29   A    
C90   O48   A    
Cu1   O22   S    
C143  H55   S    
N3    C171  S    
C62   C92   S    
C5    C165  S    
C45   C149  S    
C109  C113  A    
C121  H3    S    
C82   C156  S    
Cu10  O14   S    
C122  H4    S    
C69   H17   S    
C46   O22   A    
C67   H15   S    
C128  C132  A    
C13   C119  S    
C101  C105  A    
C63   C67   A    
N2    C170  S    
C45   O21   A    
C114  C117  A    
C36   C40   A    
Cu4   O27   S    
C39   C43   A    
Cu2   O3    S    
C72   H20   S    
C84   O43   A    
C138  C147  A    
C41   H5    S    
C86   C158  S    
C159  H67   S    
Cu4   O20   S    
C101  H25   S    
C44   H8    S    
C1    O1    A    
C80   O34   A    
N6    C174  S    
C3    O3    A    
C172  H96   S    
C159  C163  S    
C10   N6    S    
C22   C154  T    
C174  H104  S    
C110  C114  A    
C15   C121  S    
C34   C38   A    
C98   H22   S    
C17   C149  T    
C91   O9    A    
C43   H7    S    
C12   C168  S    
C12   N8    S    
C78   O32   A    
C120  C162  S    
C158  H66   S    
Cu6   O37   S    
C171  H92   S    
Cu2   O23   S    
C81   O35   A    
C55   C75   A    
Cu12  O16   S    
C82   O36   A    
C71   C75   A    
C28   C52   A    
C42   H6    S    
N1    C169  S    
C85   H41   S    
C103  C106  A    
Cu9   O45   S    
C54   N2    S    
C170  H86   S    
C83   C133  S    
C136  C147  S    
C158  C162  S    
C61   C91   S    
C142  H54   S    
C135  C148  S    
Cu6   O30   S    
C169  H84   S    
C96   O15   A    
C174  H102  S    
C111  C115  A    
C86   H42   S    
N7    H105  S    
C97   C101  A    
C48   O28   A    
