data_mof_unit_31847.cif
_audit_creation_date              2012-12-10T17:21:16-0500
_audit_creation_method            fapswitch 2.2
_symmetry_space_group_name_H-M    P1
_symmetry_Int_Tables_number       1
_space_group_crystal_system       triclinic
_cell_length_a                    9.585229
_cell_length_b                    10.866957
_cell_length_c                    13.872888
_cell_angle_alpha                 92.48374
_cell_angle_beta                  84.671919
_cell_angle_gamma                 90.379464
_cell_volume                      1437.43142731

loop_
_atom_site_label
_atom_site_type_symbol
_atom_type_description
_atom_site_fract_x
_atom_site_fract_y
_atom_site_fract_z
_atom_type_partial_charge
C1    C     C_R   0.500682 0.736938 0.492392 0.798540
C2    C     C_1   0.463096 0.493356 0.785883 -0.177125
C3    C     C_R   0.253903 0.877567 0.436861 -0.157126
C4    C     C_R   0.123820 0.935390 0.448006 -0.157864
C5    C     C_R   0.110027 0.050062 0.495835 -0.141818
C6    C     C_R   0.228644 0.112171 0.523420 -0.165507
C7    C     C_R   0.364316 0.060371 0.502508 0.094656
C8    C     C_R   0.372797 0.934613 0.473506 0.096441
C9    C     C_R   0.499105 0.870754 0.483671 -0.120194
C10   C     C_R   0.621401 0.937026 0.498711 -0.211980
C11   C     C_R   0.618800 0.064179 0.506861 -0.213459
C12   C     C_R   0.477096 0.499343 0.682909 0.837104
C13   C     C_R   0.491747 0.127669 0.508974 -0.112755
C14   C     C_R   0.871966 0.336530 0.370988 -0.153441
C15   C     C_R   0.952080 0.256428 0.308181 -0.235310
C16   C     C_R   0.095727 0.256163 0.308373 -0.183117
C17   C     C_R   0.160152 0.336049 0.371305 -0.119738
C18   C     C_R   0.082721 0.419342 0.436812 0.187242
C19   C     C_R   0.933069 0.419477 0.436747 0.205214
C20   C     C_R   0.918629 0.577032 0.559834 -0.062349
C21   C     C_R   0.066604 0.577021 0.559791 -0.068604
C22   C     C_R   0.497741 0.262379 0.505213 0.776395
C23   C     C_R   0.522884 0.500303 0.317122 0.804612
C24   C     C_1   0.536860 0.504513 0.214142 -0.173339
C25   C     C_2   0.556605 0.515755 0.022683 0.376901
C26   C     C_2   0.444239 0.479094 0.977208 0.377432
C27   C     C_1   0.452891 0.486899 0.872485 -0.078213
C28   C     C_1   0.547276 0.509383 0.127475 -0.080789
Cu1   Cu    Cu3+1 0.359340 0.500010 0.500010 0.922396
Cu2   Cu    Cu3+1 0.640660 0.499990 0.499990 0.933633
H1    H     H_    0.762891 0.329132 0.364383 0.202183
H2    H     H_    0.902025 0.194067 0.258919 0.153908
H3    H     H_    0.158063 0.193297 0.259532 0.154998
H4    H     H_    0.270757 0.327490 0.365506 0.201487
H5    H     H_    0.115859 0.640210 0.608729 0.145320
H6    H     H_    0.719881 0.890659 0.504253 0.161921
H7    H     H_    0.033001 0.889559 0.422064 0.136077
H8    H     H_    0.007726 0.092293 0.509779 0.138562
H9    H     H_    0.210353 0.198223 0.564133 0.168184
H10   H     H_    0.716855 0.112705 0.513202 0.164857
H11   H     H_    0.857243 0.640198 0.608838 0.142890
N1    N     N_R   0.852210 0.498790 0.499090 -0.198000
N2    N     N_R   0.148080 0.498710 0.499060 -0.203468
O1    O     O_R   0.381190 0.680360 0.500010 -0.587574
O2    O     O_R   0.618760 0.680340 0.500000 -0.581311
O3    O     O_R   0.364420 0.499990 0.637850 -0.581662
O4    O     O_R   0.601990 0.499960 0.637840 -0.559145
O5    O     O_R   0.381240 0.319660 0.500000 -0.615494
O6    O     O_R   0.618810 0.319640 0.499990 -0.598885
O7    O     O_R   0.398010 0.500040 0.362160 -0.586182
O8    O     O_R   0.635580 0.500010 0.362150 -0.597609
O9    O     O_3   0.326217 0.434852 0.032566 -0.597259
C29   C     C_3   0.215688 0.399936 0.976516 0.071844
H12   H     H_    0.248909 0.323495 0.923469 0.148630
H13   H     H_    0.180063 0.479949 0.937884 0.147911
C30   C     C_3   0.092828 0.354865 0.043287 -0.780634
H14   H     H_    0.059044 0.428252 0.098596 0.253807
H15   H     H_    0.003622 0.330244 0.000467 0.199383
H16   H     H_    0.123897 0.272250 0.080482 0.246567
O10   O     O_3   0.674878 0.559773 0.967482 -0.596428
C31   C     C_3   0.786728 0.590952 0.023470 0.078592
H17   H     H_    0.819983 0.509451 0.061460 0.147776
H18   H     H_    0.756114 0.667508 0.077052 0.149671
C32   C     C_3   0.910839 0.633782 0.956844 -0.791931
H19   H     H_    0.881950 0.716930 0.919405 0.249611
H20   H     H_    0.000351 0.656751 0.999827 0.202781
H21   H     H_    0.943040 0.559689 0.901763 0.246167
H22   H     H_    0.260195 0.789432 0.397582 0.164620

loop_
_geom_bond_atom_site_label_1
_geom_bond_atom_site_label_2
_ccdc_geom_bond_type
C31   C32   S    
C22   O5    A    
C23   C24   S    
C19   N1    A    
Cu1   Cu2   S    
C21   H5    S    
C25   O10   S    
C26   O9    S    
C16   H3    S    
C9    C10   A    
Cu1   O3    S    
C1    O1    A    
C23   O8    A    
C3    H22   S    
C30   H16   S    
C7    C13   A    
C14   H1    S    
Cu2   O8    S    
C2    C12   S    
C32   H19   S    
C20   C21   A    
C29   H13   S    
C17   C18   A    
C1    C9    S    
C15   H2    S    
C29   H12   S    
Cu1   N2    S    
C25   C28   S    
C20   N1    A    
C11   C13   A    
C1    O2    A    
C26   C27   S    
C2    C27   T    
C12   O4    A    
C5    C6    A    
C4    H7    S    
Cu2   O6    S    
C30   H15   S    
C13   C22   S    
C20   H11   S    
C6    C7    A    
Cu1   O7    S    
C22   O6    A    
Cu1   O1    S    
C31   H17   S    
C3    C8    A    
C6    H9    S    
C16   C17   A    
C10   C11   A    
Cu1   O5    S    
C11   H10   S    
C32   H21   S    
C24   C28   T    
Cu2   O4    S    
C7    C8    A    
C5    H8    S    
C30   H14   S    
C12   O3    A    
C18   C19   A    
C17   H4    S    
C29   C30   S    
C18   N2    A    
C31   H18   S    
C14   C15   A    
O10   C31   S    
C23   O7    A    
C10   H6    S    
Cu2   O2    S    
C25   C26   D    
C21   N2    A    
C4    C5    A    
C14   C19   A    
Cu2   N1    S    
C3    C4    A    
C15   C16   A    
O9    C29   S    
C8    C9    A    
C32   H20   S    
