data_mof_unit_57392.cif
_audit_creation_date              2012-12-10T17:59:16-0500
_audit_creation_method            fapswitch 2.2
_symmetry_space_group_name_H-M    P1
_symmetry_Int_Tables_number       1
_space_group_crystal_system       triclinic
_cell_length_a                    10.861339
_cell_length_b                    9.505792
_cell_length_c                    10.776918
_cell_angle_alpha                 90.79874
_cell_angle_beta                  91.134145
_cell_angle_gamma                 90.501689
_cell_volume                      1112.29820923

loop_
_atom_site_label
_atom_site_type_symbol
_atom_type_description
_atom_site_fract_x
_atom_site_fract_y
_atom_site_fract_z
_atom_type_partial_charge
C1    C     C_R   0.262763 0.499259 0.500065 0.860717
C2    C     C_3   0.614028 0.572998 0.933965 -0.366356
C3    C     C_R   0.065033 0.388670 0.442476 -0.209841
C4    C     C_R   0.069846 0.606679 0.560124 -0.270647
C5    C     C_R   0.937235 0.390445 0.436513 0.398517
C6    C     C_R   0.942575 0.607890 0.563710 0.376025
C7    C     C_R   0.873510 0.500155 0.499587 -0.308559
C8    C     C_R   0.130336 0.497504 0.501544 -0.185026
C9    C     C_R   0.429764 0.072661 0.416152 -0.017598
C10   C     C_R   0.431497 0.923729 0.414375 -0.024556
C11   C     C_R   0.564441 0.927829 0.588675 0.056840
C12   C     C_R   0.566427 0.076570 0.587338 0.053489
C13   C     C_R   0.495113 0.498883 0.259613 0.846659
C14   C     C_R   0.738452 0.500354 0.499814 0.911071
C15   C     C_R   0.499992 0.500600 0.740309 0.814425
C16   C     C_3   0.380719 0.582815 0.068954 0.366053
C17   C     C_3   0.487183 0.342614 0.067467 0.348979
C18   C     C_3   0.382319 0.578447 0.924476 -0.455572
C19   C     C_3   0.491932 0.347194 0.924801 -0.435549
C20   C     C_3   0.612561 0.568119 0.076657 -0.585315
C21   C     C_3   0.492115 0.496838 0.121309 0.026742
C22   C     C_3   0.497455 0.500493 0.878101 0.042305
Cu1   Cu    Cu3+1 0.500020 0.640660 0.500000 0.998032
Cu2   Cu    Cu3+1 0.500020 0.359340 0.500000 1.018992
H1    H     H_    0.393591 0.694168 0.101649 0.063432
H2    H     H_    0.570821 0.287126 0.102821 0.114983
H3    H     H_    0.614114 0.873904 0.661056 0.184425
H4    H     H_    0.620144 0.134278 0.656968 0.128035
H5    H     H_    0.298115 0.524643 0.886108 0.180452
H6    H     H_    0.408997 0.294137 0.882728 0.201524
H7    H     H_    0.381580 0.688077 0.889495 0.139026
H8    H     H_    0.574045 0.288010 0.893500 0.140836
H9    H     H_    0.621033 0.677298 0.114837 0.205342
H10   H     H_    0.694340 0.509699 0.110911 0.232312
H11   H     H_    0.617822 0.684698 0.904682 0.221649
H12   H     H_    0.697883 0.519414 0.900065 0.210237
H13   H     H_    0.114674 0.305374 0.396198 0.217140
H14   H     H_    0.123063 0.689904 0.605946 0.203246
H15   H     H_    0.371526 0.128221 0.351707 0.147997
H16   H     H_    0.376686 0.866270 0.345593 0.117307
N1    N     N_R   0.500030 0.852070 0.500030 -0.173230
N2    N     N_R   0.500030 0.147930 0.500030 -0.164435
O1    O     O_R   0.319660 0.618740 0.499990 -0.596101
O2    O     O_R   0.319660 0.381260 0.499990 -0.588838
O3    O     O_R   0.499990 0.618790 0.317690 -0.615626
O4    O     O_R   0.499990 0.381210 0.317690 -0.543123
O5    O     O_R   0.680370 0.618830 0.500010 -0.518221
O6    O     O_R   0.680370 0.381170 0.500010 -0.525316
O7    O     O_R   0.500030 0.618780 0.682310 -0.582052
O8    O     O_R   0.500030 0.381220 0.682310 -0.614753
O9    O     O_3   0.267802 0.528426 0.113264 -0.533369
C23   C     C_3   0.168677 0.621342 0.089246 0.056520
H17   H     H_    0.092492 0.560146 0.043432 0.186145
H18   H     H_    0.190904 0.709376 0.025842 0.109733
C24   C     C_3   0.122205 0.682902 0.210397 -0.765305
H19   H     H_    0.199366 0.732055 0.264840 0.237858
H20   H     H_    0.051732 0.763967 0.190685 0.219294
H21   H     H_    0.079326 0.598667 0.265277 0.261057
O10   O     O_3   0.378366 0.271795 0.104328 -0.518083
C25   C     C_3   0.390687 0.124127 0.089849 0.038932
H22   H     H_    0.456592 0.083127 0.160300 0.141601
H23   H     H_    0.424676 0.093406 0.996702 0.126809
C26   C     C_3   0.265581 0.053694 0.104843 -0.741803
H24   H     H_    0.202231 0.084808 0.028032 0.266465
H25   H     H_    0.276181 0.937706 0.102322 0.174831
H26   H     H_    0.224553 0.085161 0.194429 0.264486
S1    S     S_3+6 0.864795 0.256401 0.343631 0.004261
O11   O     O_2   0.812467 0.146069 0.426600 -0.239879
O12   O     O_2   0.763269 0.317554 0.265394 -0.352552
O13   O     O_3   0.967511 0.180577 0.249485 -0.549682
H27   H     H_    0.921314 0.103717 0.205868 0.374308
S2    S     S_3+6 0.878307 0.745848 0.652602 -0.009720
O14   O     O_2   0.834270 0.857815 0.565847 -0.225107
O15   O     O_2   0.772544 0.692088 0.726231 -0.377018
O16   O     O_3   0.984034 0.817651 0.751252 -0.524131
H28   H     H_    0.001481 0.743520 0.812745 0.328278

loop_
_geom_bond_atom_site_label_1
_geom_bond_atom_site_label_2
_ccdc_geom_bond_type
C2    H11   S    
C24   H19   S    
C26   H25   S    
C16   C21   S    
Cu1   O3    S    
C1    C8    S    
Cu2   N2    S    
C16   O9    S    
C4    C8    A    
C6    S2    S    
C9    N2    A    
C12   H4    S    
C25   C26   S    
C17   H2    S    
C25   H23   S    
C13   O4    A    
Cu1   O7    S    
C9    H15   S    
Cu1   O1    S    
C10   H16   S    
C15   O8    A    
C12   N2    A    
C1    O1    A    
C15   C22   S    
C2    C22   S    
Cu1   Cu2   S    
O13   H27   S    
C9    C10   A    
C23   C24   S    
C5    S1    S    
C20   H10   S    
C26   H26   S    
O10   C25   S    
C10   N1    A    
S2    O16   S    
C19   H8    S    
C23   H18   S    
C7    C14   S    
Cu2   O8    S    
Cu1   O5    S    
C2    C20   S    
S1    O11   D    
Cu2   O6    S    
C19   C22   S    
S2    O15   D    
C3    C8    A    
C5    C7    A    
C14   O6    A    
C17   C21   S    
O9    C23   S    
C25   H22   S    
S1    O12   D    
O16   H28   S    
C1    O2    A    
C11   H3    S    
C13   C21   S    
C18   H5    S    
C14   O5    A    
C17   O10   S    
C20   H9    S    
C4    C6    A    
C4    H14   S    
C24   H20   S    
Cu2   O2    S    
C23   H17   S    
C2    H12   S    
C16   H1    S    
C18   C22   S    
S2    O14   D    
C3    C5    A    
C11   C12   A    
C6    C7    A    
Cu1   N1    S    
S1    O13   S    
Cu2   O4    S    
C13   O3    A    
C17   C19   S    
C11   N1    A    
C15   O7    A    
C26   H24   S    
C20   C21   S    
C3    H13   S    
C16   C18   S    
C24   H21   S    
C18   H7    S    
C19   H6    S    
