data_mof_unit_13191.cif
_audit_creation_date              2013-03-05T15:45:39-0500
_audit_creation_method            fapswitch 2.2
_symmetry_space_group_name_H-M    P1
_symmetry_Int_Tables_number       1
_space_group_crystal_system       triclinic
_cell_length_a                    15.07582
_cell_length_b                    11.082665
_cell_length_c                    9.936025
_cell_angle_alpha                 111.14696
_cell_angle_beta                  99.471455
_cell_angle_gamma                 91.251543
_cell_volume                      1521.24952356

loop_
_atom_site_label
_atom_site_type_symbol
_atom_site_description
_atom_site_fract_x
_atom_site_fract_y
_atom_site_fract_z
_atom_type_partial_charge
O1    O     O_R   0.508410 0.332340 0.577400 -0.575734
O2    O     O_R   0.491590 0.667660 0.422600 -0.592123
O3    O     O_R   0.481780 0.295500 0.332650 -0.596842
O4    O     O_R   0.518220 0.704500 0.667350 -0.585132
C1    C     C_R   0.496764 0.254540 0.440884 0.853153
C2    C     C_R   0.506408 0.745733 0.559326 0.850839
O5    O     O_R   0.383570 0.518390 0.622380 -0.575831
O6    O     O_R   0.616430 0.481610 0.377620 -0.578709
O7    O     O_R   0.356940 0.481550 0.377630 -0.579749
O8    O     O_R   0.643060 0.518450 0.622370 -0.586987
C3    C     C_R   0.328840 0.492038 0.497974 0.788135
C4    C     C_R   0.670988 0.510762 0.502981 0.781603
Cu1   Cu    Cu3+1 0.515770 0.521810 0.644910 0.949430
Cu2   Cu    Cu3+1 0.484230 0.478190 0.355090 0.940741
C5    C     C_R   0.821876 0.633682 0.539866 0.076061
C6    C     C_R   0.179709 0.373131 0.478615 0.058900
C7    C     C_R   0.768066 0.516380 0.506327 -0.085751
C8    C     C_R   0.231773 0.487707 0.496744 -0.084917
C9    C     C_R   0.806222 0.399421 0.478419 -0.165460
C10   C     C_R   0.193180 0.604812 0.526000 -0.154604
C11   C     C_R   0.898060 0.392280 0.476486 -0.036768
C12   C     C_R   0.103290 0.613236 0.543374 -0.026612
C13   C     C_R   0.954310 0.507054 0.512877 -0.036059
C14   C     C_R   0.047134 0.498435 0.507094 -0.034187
C15   C     C_R   0.918077 0.630283 0.557981 -0.024733
C16   C     C_R   0.084079 0.375633 0.466749 -0.046763
C17   C     C_R   0.933426 0.270952 0.434367 0.293395
C18   C     C_R   0.070603 0.735258 0.604259 0.280268
C19   C     C_R   0.024237 0.261401 0.421563 0.233311
C20   C     C_R   0.979917 0.743861 0.620991 0.211352
H1    H     H_    0.761915 0.312463 0.452030 0.179411
H2    H     H_    0.235888 0.691282 0.543982 0.176495
H3    H     H_    0.486036 0.864865 0.369639 0.184548
H4    H     H_    0.517996 0.135703 0.630992 0.186413
C21   C     C_2   0.495416 0.115236 0.407989 -0.345840
C22   C     C_2   0.510862 0.885186 0.592558 -0.330301
C23   C     C_2   0.506086 0.069897 0.516713 -0.150633
C24   C     C_2   0.499498 0.930648 0.483977 -0.174914
H5    H     H_    0.524442 0.951253 0.706705 0.155094
H6    H     H_    0.483315 0.049088 0.293895 0.146602
H7    H     H_    0.429977 0.436714 0.842701 0.134252
H8    H     H_    0.539198 0.606525 0.165701 0.129074
N1    N     N_2   0.460520 0.445420 0.137370 -0.144428
N2    N     N_2   0.539480 0.554580 0.862630 -0.148118
C25   C     C_2   0.497148 0.523339 0.085532 -0.050248
C26   C     C_2   0.485223 0.502102 0.919967 -0.039704
C27   C     C_3   0.775257 0.755646 0.542068 -0.357303
C28   C     C_3   0.719366 0.740280 0.391805 -0.452114
C29   C     C_3   0.703849 0.871571 0.378954 -0.744776
H9    H     H_    0.684654 0.940549 0.480282 0.283932
H10   H     H_    0.766517 0.912133 0.360829 0.323018
H11   H     H_    0.649096 0.859671 0.284536 0.215353
H12   H     H_    0.753617 0.681784 0.301729 0.236082
H13   H     H_    0.652448 0.691089 0.377353 0.244643
H14   H     H_    0.731522 0.781023 0.626343 0.180898
H15   H     H_    0.823631 0.840222 0.570226 0.277137
C30   C     C_3   0.227800 0.260777 0.501956 -0.393213
C31   C     C_3   0.258597 0.170716 0.363272 -0.346662
C32   C     C_3   0.271914 0.035584 0.366704 -0.689252
H16   H     H_    0.315184 0.042707 0.471560 0.250821
H17   H     H_    0.206058 0.983063 0.355429 0.311694
H18   H     H_    0.304602 0.978629 0.274016 0.226686
H19   H     H_    0.210613 0.162193 0.262533 0.268516
H20   H     H_    0.323245 0.213531 0.356128 0.188277
H21   H     H_    0.287746 0.299181 0.591615 0.172225
H22   H     H_    0.185074 0.206261 0.545368 0.251767
N3    N     N_R   0.876563 0.155136 0.402226 0.137862
O9    O     O_R   0.848947 0.131788 0.508479 -0.355091
O10   O     O_R   0.854337 0.071960 0.268110 -0.329776
N4    N     N_R   0.132693 0.849425 0.670168 0.148132
O11   O     O_R   0.137184 0.930635 0.603676 -0.312660
O12   O     O_R   0.193105 0.862159 0.785252 -0.379154
N5    N     N_R   0.050882 0.134963 0.346494 0.129562
O13   O     O_R   0.046223 0.046593 0.403384 -0.276471
O14   O     O_R   0.049333 0.097887 0.206036 -0.297780
N6    N     N_R   0.957262 0.860884 0.727447 0.131039
O15   O     O_R   0.919033 0.854776 0.833185 -0.344568
O16   O     O_R   0.977120 0.973867 0.722403 -0.246650
C33   C     C_3   0.608325 0.655463 0.968463 -0.170251
C34   C     C_3   0.684440 0.697750 0.905777 -0.348622
C35   C     C_3   0.747148 0.808100 0.024789 -0.769831
H23   H     H_    0.708623 0.891705 0.075677 0.261900
H24   H     H_    0.782249 0.774130 0.110091 0.266816
H25   H     H_    0.798786 0.841661 0.975813 0.316567
H26   H     H_    0.725917 0.615374 0.864205 0.249072
H27   H     H_    0.658159 0.734177 0.818866 0.251909
H28   H     H_    0.574053 0.742303 0.025498 0.151708
H29   H     H_    0.644706 0.618312 0.050325 0.150148
C36   C     C_3   0.394498 0.342418 0.027183 -0.152892
C37   C     C_3   0.353402 0.242436 0.077410 -0.393304
C38   C     C_3   0.276039 0.156721 0.959742 -0.755363
H30   H     H_    0.221463 0.216188 0.936670 0.269852
H31   H     H_    0.300691 0.103243 0.856683 0.274663
H32   H     H_    0.247524 0.085487 0.999599 0.291567
H33   H     H_    0.404796 0.177086 0.095480 0.237493
H34   H     H_    0.324930 0.290645 0.176044 0.256527
H35   H     H_    0.337763 0.389289 0.984270 0.161657
H36   H     H_    0.427626 0.284159 0.935097 0.140273

loop_
_geom_bond_atom_site_label_1
_geom_bond_atom_site_label_2
_geom_bond_distance
_ccdc_geom_bond_type
C3    C8    1.460992 S    
C17   C19   1.398436 A    
H4    C23   1.087716 S    
N5    O13   1.301190 A    
C5    C27   1.531896 S    
C30   H22   1.108363 S    
C9    H1    1.084260 S    
C33   H28   1.113065 S    
C35   H23   1.110690 S    
C30   C31   1.532652 S    
C37   H33   1.108902 S    
C25   C26   1.554153 S    
C28   H13   1.098819 S    
C34   H26   1.110377 S    
O1    C1    1.298191 A    
C9    C11   1.391410 A    
C14   C16   1.426920 A    
C5    C15   1.434774 A    
C19   N5    1.431906 S    
C15   C20   1.426051 A    
O4    Cu1   1.954164 S    
C34   H27   1.100718 S    
C29   H10   1.105877 S    
C4    C7    1.457885 S    
H7    C26   1.081664 S    
N4    O11   1.300842 A    
C11   C17   1.402198 A    
C32   H16   1.109941 S    
C12   C18   1.405188 A    
Cu1   Cu2   2.699466 S    
C6    C16   1.428755 A    
N5    O14   1.300840 A    
O2    C2    1.299111 A    
C33   H29   1.112032 S    
C35   H24   1.109702 S    
N2    C26   1.305199 D    
N2    C33   1.474745 S    
C31   H20   1.098617 S    
C28   H12   1.111758 S    
C32   H17   1.108225 S    
N3    O9    1.300738 A    
N6    O15   1.299780 A    
O4    C2    1.298891 A    
C30   H21   1.111831 S    
C38   H30   1.111073 S    
C31   C32   1.527103 S    
C36   H35   1.114648 S    
N3    O10   1.300395 A    
H8    C25   1.079234 S    
O5    C3    1.298987 A    
O7    Cu2   1.967907 S    
C23   C24   1.455252 S    
C38   H31   1.111281 S    
C20   N6    1.437344 S    
C27   C28   1.537633 S    
O6    C4    1.301253 A    
C29   H11   1.109043 S    
N1    C36   1.477298 S    
N1    C25   1.307530 D    
O3    Cu2   1.954166 S    
O8    C4    1.297974 A    
C28   C29   1.525553 S    
C10   C12   1.394953 A    
O7    C3    1.300515 A    
C12   C14   1.409613 A    
O1    Cu1   1.954634 S    
C22   C24   1.335028 D    
C35   H25   1.106258 S    
C27   H14   1.111260 S    
C10   H2    1.084664 S    
C31   H19   1.106628 S    
C5    C7    1.418289 A    
C32   H18   1.110385 S    
O6    Cu2   1.966579 S    
C21   C23   1.335426 D    
C22   H5    1.087298 S    
C18   N4    1.433408 S    
N6    O16   1.301488 A    
C34   C35   1.525075 S    
O3    C1    1.300147 A    
O8    Cu1   1.967907 S    
C37   H34   1.095822 S    
H3    C24   1.087839 S    
C36   H36   1.114323 S    
C11   C13   1.409961 A    
C21   H6    1.087342 S    
C38   H32   1.109802 S    
C37   C38   1.526791 S    
C1    C21   1.457092 S    
C18   C20   1.405317 A    
C7    C9    1.383353 A    
C2    C22   1.456744 S    
C8    C10   1.387026 A    
C6    C30   1.523928 S    
C13   C15   1.426865 A    
O2    Cu2   1.954634 S    
C17   N3    1.431939 S    
C13   C14   1.413883 A    
C33   C34   1.531885 S    
O5    Cu1   1.966579 S    
C16   C19   1.423002 A    
C6    C8    1.416285 A    
C29   H9    1.109962 S    
C27   H15   1.096579 S    
N4    O12   1.300823 A    
C36   C37   1.526915 S    
Cu1   N2    2.027901 S    
Cu2   N1    2.027901 S    
