data_mof_unit_66846.cif
_audit_creation_date              2013-03-05T15:53:54-0500
_audit_creation_method            fapswitch 2.2
_symmetry_space_group_name_H-M    P1
_symmetry_Int_Tables_number       1
_space_group_crystal_system       triclinic
_cell_length_a                    8.906007
_cell_length_b                    14.925704
_cell_length_c                    16.373001
_cell_angle_alpha                 93.85406
_cell_angle_beta                  94.115188
_cell_angle_gamma                 92.454668
_cell_volume                      2163.43208082

loop_
_atom_site_label
_atom_site_type_symbol
_atom_site_description
_atom_site_fract_x
_atom_site_fract_y
_atom_site_fract_z
_atom_type_partial_charge
P1    P     P_3+3 0.934880 0.713230 0.554140 0.593213
O1    O     O_2   0.106830 0.727750 0.529310 -0.279987
O2    O     O_3   0.863420 0.611560 0.536200 -0.381589
O3    O     O_3   0.352370 0.670610 0.385960 -0.320329
O4    O     O_2   0.275021 0.829363 0.438280 -0.343855
O5    O     O_3   0.979991 0.742288 0.659742 -0.496260
O6    O     O_3   0.329000 0.829629 0.284626 -0.498847
C1    C     C_3   0.396935 0.841538 0.138006 -0.704005
H1    H     H_    0.285593 0.861487 0.113746 0.190063
P2    P     P_3+3 0.367500 0.426600 0.319160 0.579991
P3    P     P_3+3 0.897503 0.593281 0.241747 0.534014
O7    O     O_2   0.193140 0.454660 0.305430 -0.315802
O8    O     O_3   0.941260 0.623660 0.347470 -0.350282
O9    O     O_2   0.994742 0.516055 0.213602 -0.354354
O10   O     O_3   0.382361 0.315025 0.278494 -0.608749
O11   O     O_3   0.945921 0.685923 0.185662 -0.485157
C2    C     C_3   0.937003 0.767887 0.234233 0.182481
H2    H     H_    0.016452 0.767595 0.289929 0.113820
C3    C     C_3   0.990025 0.849197 0.187358 -0.180762
H3    H     H_    0.111577 0.847388 0.189871 0.108347
C4    C     C_3   0.776992 0.342434 0.304760 0.264880
H4    H     H_    0.690618 0.368812 0.344543 0.113176
H5    H     H_    0.860280 0.397687 0.296228 0.121821
C5    C     C_3   0.695215 0.307038 0.222566 -0.726593
H6    H     H_    0.647234 0.239430 0.230944 0.268929
H7    H     H_    0.602517 0.349584 0.205437 0.180931
Ba1   Ba    Ba6+2 0.152520 0.545410 0.458840 1.733640
C6    C     C_3   0.901497 0.690064 0.712257 0.037642
H8    H     H_    0.785015 0.674108 0.687145 0.098155
C7    C     C_3   0.903273 0.741009 0.799438 0.252420
H9    H     H_    0.018306 0.744823 0.825163 0.163730
C8    C     C_3   0.286722 0.247872 0.304773 0.421333
C9    C     C_3   0.356616 0.157265 0.277925 -0.317789
H10   H     H_    0.477317 0.164788 0.297993 0.193744
P4    P     P_3+3 0.875420 0.286760 0.445790 0.601744
O12   O     O_2   0.703470 0.272190 0.470670 -0.276601
O13   O     O_3   0.946880 0.388430 0.463740 -0.367326
O14   O     O_3   0.457930 0.329380 0.613970 -0.293104
O15   O     O_3   0.850287 0.270941 0.339102 -0.506772
P5    P     P_3+3 0.915041 0.373737 0.759260 0.577820
O16   O     O_3   0.367050 0.547540 0.594170 -0.314816
O17   O     O_3   0.869040 0.376330 0.652460 -0.295384
O18   O     O_2   0.820552 0.450246 0.793164 -0.301156
O19   O     O_3   0.833554 0.278125 0.803697 -0.514601
Ba2   Ba    Ba6+2 0.657660 0.454590 0.541090 1.777676
P6    P     P_3+3 0.390103 0.788180 0.381746 0.537907
C10   C     C_3   0.379086 0.782091 0.213390 0.221382
H11   H     H_    0.486116 0.753639 0.226516 0.065866
O20   O     O_3   0.443250 0.452450 0.405760 -0.354510
C11   C     C_3   0.498630 0.741887 0.723872 0.664577
H12   H     H_    0.600765 0.725924 0.759638 -0.006160
C12   C     C_3   0.438676 0.835123 0.759877 -0.483798
P7    P     P_3+3 0.439816 0.562914 0.697047 0.558513
O21   O     O_2   0.617170 0.545280 0.694550 -0.347845
O22   O     O_3   0.391079 0.672282 0.730212 -0.587529
C13   C     C_3   0.904143 0.195343 0.787103 -0.042794
H13   H     H_    0.012895 0.210366 0.768796 0.084237
C14   C     C_3   0.930412 0.137067 0.866397 0.070622
P8    P     P_3+3 0.416450 0.214110 0.623293 0.653665
C15   C     C_3   0.463494 0.231795 0.795121 0.048978
O23   O     O_2   0.521855 0.167777 0.564634 -0.248649
O24   O     O_3   0.496702 0.183323 0.719785 -0.512718
C16   C     C_3   0.523863 0.173518 0.864174 -0.050636
H14   H     H_    0.643388 0.191751 0.875078 0.176796
H15   H     H_    0.510320 0.102956 0.840305 0.195587
C17   C     C_R   0.005739 0.943333 0.541906 -0.044635
C18   C     C_R   0.828510 0.804942 0.500853 0.257156
C19   C     C_R   0.682806 0.775307 0.466913 -0.185511
C20   C     C_R   0.582003 0.832351 0.429454 0.214514
C21   C     C_R   0.628906 0.922007 0.424984 -0.142908
C22   C     C_R   0.770587 0.958832 0.461376 -0.057550
C23   C     C_R   0.870865 0.901234 0.502080 -0.038064
H16   H     H_    0.646751 0.705371 0.469260 0.146734
C24   C     C_R   0.942941 0.096274 0.498702 -0.195344
C25   C     C_R   0.040959 0.038732 0.542008 0.033253
C26   C     C_R   0.981517 0.194032 0.502324 0.263888
C27   C     C_R   0.113448 0.225965 0.551142 -0.302823
C28   C     C_R   0.218123 0.168598 0.585047 0.309233
C29   C     C_R   0.176437 0.076612 0.584043 -0.180974
C30   C     C_R   0.810977 0.052717 0.456316 0.337328
H17   H     H_    0.550180 0.962109 0.392661 0.216843
H18   H     H_    0.251021 0.034816 0.616902 0.171204
H19   H     H_    0.140607 0.297436 0.559216 0.162907
H20   H     H_    0.083120 0.902238 0.574729 0.218620
C31   C     C_R   0.606663 0.530963 0.269929 -0.529270
C32   C     C_R   0.464882 0.491029 0.245765 0.307468
C33   C     C_R   0.416451 0.479295 0.161506 -0.314550
C34   C     C_R   0.506975 0.512152 0.101790 0.178009
C35   C     C_R   0.652146 0.547553 0.127530 -0.181480
C36   C     C_R   0.701879 0.556274 0.210986 0.293605
C37   C     C_R   0.380834 0.509605 0.851973 -0.308235
C38   C     C_R   0.343258 0.493047 0.767375 0.246560
C39   C     C_R   0.285280 0.478075 0.910107 0.263522
N1    N     N_2   0.462244 0.505862 0.015773 -0.038479
N2    N     N_2   0.325626 0.486023 0.996795 -0.023791
C40   C     C_R   0.210548 0.443267 0.740027 -0.279673
H21   H     H_    0.481880 0.550053 0.872233 0.197219
H22   H     H_    0.727725 0.567234 0.082241 0.191759
C41   C     C_R   0.107520 0.417820 0.796645 0.274463
C42   C     C_R   0.143604 0.438926 0.881364 -0.175101
H23   H     H_    0.309924 0.443307 0.143108 0.201109
H24   H     H_    0.063413 0.421141 0.925016 0.166614
H25   H     H_    0.648375 0.535438 0.333890 0.165653
H26   H     H_    0.180510 0.431804 0.674825 0.153917
C43   C     C_2   0.275474 0.701935 0.186869 0.905990
O25   O     O_2   0.211839 0.691737 0.117766 -0.564539
O26   O     O_R   0.260514 0.635448 0.240235 -0.735807
H27   H     H_    0.220679 0.578712 0.209175 0.356777
C44   C     C_2   0.790555 0.302395 0.151109 1.271931
O27   O     O_2   0.805945 0.230074 0.113858 -0.483787
O28   O     O_R   0.853288 0.381261 0.124055 -0.768693
H28   H     H_    0.920946 0.370247 0.077687 0.371406
C45   C     C_2   0.982722 0.605519 0.721509 1.025825
O29   O     O_2   0.979322 0.548293 0.664873 -0.562707
O30   O     O_R   0.062155 0.591575 0.795303 -0.816252
H29   H     H_    0.156106 0.632073 0.805124 0.329995
N3    N     N_R   0.864544 0.834940 0.800229 0.258987
O31   O     O_R   0.891298 0.883512 0.869072 -0.223907
O32   O     O_R   0.846065 0.875587 0.732830 -0.282609
N4    N     N_R   0.819309 0.692981 0.858665 0.228699
O33   O     O_R   0.845450 0.715537 0.936611 -0.250646
O34   O     O_R   0.739595 0.619307 0.837049 -0.430008
C46   C     C_2   0.132303 0.246670 0.261374 1.012967
O35   O     O_2   0.100210 0.302934 0.213080 -0.588771
O36   O     O_R   0.034160 0.172797 0.268820 -0.784253
H30   H     H_    0.943977 0.169712 0.227715 0.407724
N5    N     N_R   0.281736 0.260972 0.393409 0.183198
O37   O     O_R   0.193121 0.320423 0.420993 -0.442789
O38   O     O_R   0.404094 0.250123 0.438447 -0.303624
N6    N     N_R   0.345169 0.141382 0.187468 0.258046
O39   O     O_R   0.463291 0.152667 0.146496 -0.288497
O40   O     O_R   0.219285 0.111802 0.147368 -0.249069
C47   C     C_2   0.294651 0.075857 0.317426 1.107345
O41   O     O_2   0.260786 0.006631 0.275258 -0.581912
O42   O     O_R   0.282465 0.077468 0.402014 -0.778139
H31   H     H_    0.249323 0.016691 0.420354 0.338230
C48   C     C_2   0.461194 0.786935 0.068521 1.163039
O43   O     O_2   0.397373 0.783698 0.999795 -0.502283
O44   O     O_R   0.587876 0.736957 0.083329 -0.796075
H32   H     H_    0.616928 0.702739 0.031746 0.364847
N7    N     N_R   0.535924 0.746235 0.639256 0.174823
O45   O     O_R   0.647761 0.800023 0.626045 -0.513855
O46   O     O_R   0.438308 0.719492 0.578685 -0.326502
C49   C     C_2   0.522770 0.868940 0.841927 1.251219
O47   O     O_2   0.606802 0.821149 0.879091 -0.530033
O48   O     O_R   0.482810 0.947995 0.883291 -0.650788
H33   H     H_    0.394786 0.975495 0.853580 0.289525
C50   C     C_2   0.446404 0.907174 0.697218 1.087613
O49   O     O_2   0.521075 0.977518 0.712493 -0.607623
O50   O     O_R   0.369972 0.890394 0.619716 -0.719506
H34   H     H_    0.406714 0.932130 0.578212 0.317487
N8    N     N_R   0.282203 0.821727 0.780128 0.235104
O51   O     O_R   0.175331 0.867123 0.746692 -0.337012
O52   O     O_R   0.258918 0.783516 0.847455 -0.375970
C51   C     C_2   0.486019 0.929562 0.153430 1.325098
O53   O     O_2   0.516456 0.972254 0.094991 -0.484067
O54   O     O_R   0.528220 0.965137 0.232738 -0.729953
H35   H     H_    0.583645 0.025317 0.232109 0.363818
C52   C     C_2   0.963309 0.938841 0.230611 1.149884
O55   O     O_2   0.918797 0.001050 0.191977 -0.487936
O56   O     O_R   0.991804 0.949993 0.315721 -0.820908
H36   H     H_    0.987599 0.014800 0.337034 0.355323
C53   C     C_2   0.833906 0.146976 0.709079 1.087010
O57   O     O_2   0.773376 0.190624 0.656875 -0.557044
O58   O     O_R   0.855687 0.056143 0.690590 -0.710439
H37   H     H_    0.793353 0.031445 0.639189 0.347997
N9    N     N_R   0.801986 0.076537 0.880166 0.226772
O59   O     O_R   0.741698 0.021393 0.821491 -0.338328
O60   O     O_R   0.767825 0.063880 0.954774 -0.182713
C54   C     C_2   0.061810 0.075396 0.858182 1.138070
O61   O     O_2   0.129452 0.069077 0.795780 -0.662727
O62   O     O_R   0.098443 0.020989 0.922395 -0.614988
H38   H     H_    0.174743 0.975239 0.908457 0.371517
N10   N     N_R   0.959805 0.198628 0.941147 0.247376
O63   O     O_R   0.865624 0.260219 0.957867 -0.341005
O64   O     O_R   0.067855 0.185962 0.996532 -0.235910
C55   C     C_2   0.302155 0.246499 0.800585 0.841871
O65   O     O_2   0.226541 0.262561 0.739402 -0.742808
O66   O     O_R   0.245394 0.257988 0.877171 -0.760981
H39   H     H_    0.139303 0.276323 0.874207 0.310136
C56   C     C_2   0.542338 0.323541 0.809184 1.009705
O67   O     O_2   0.570273 0.366675 0.751595 -0.527203
O68   O     O_R   0.582002 0.360074 0.889205 -0.743704
H40   H     H_    0.636335 0.421201 0.892031 0.357106
N11   N     N_R   0.459974 0.182547 0.944260 0.322417
O69   O     O_R   0.384642 0.114647 0.969699 -0.221771
O70   O     O_R   0.500928 0.250356 0.996323 -0.237244
N12   N     N_R   0.720949 0.101273 0.401918 0.233262
O71   O     O_R   0.756451 0.104340 0.326729 -0.417202
O72   O     O_R   0.584541 0.116117 0.419207 -0.374440
C57   C     C_2   0.782383 0.778579 0.263095 0.929070
O73   O     O_2   0.706220 0.839363 0.242158 -0.648326
O74   O     O_R   0.730669 0.719976 0.317779 -0.841070
H41   H     H_    0.619570 0.707031 0.315626 0.280209
N13   N     N_R   0.932412 0.843575 0.100878 0.318980
O75   O     O_R   0.025386 0.831094 0.043919 -0.226646
O76   O     O_R   0.797331 0.867731 0.080054 -0.245460

loop_
_geom_bond_atom_site_label_1
_geom_bond_atom_site_label_2
_geom_bond_distance
_ccdc_geom_bond_type
P2    Ba1   3.523460 S    
C9    N6    1.479588 S    
C33   C34   1.410719 A    
C16   H15   1.097050 S    
C3    N13   1.466724 S    
O54   H35   1.007261 S    
O5    C6    1.401887 S    
C51   O54   1.389064 S    
N6    O40   1.302267 A    
C53   O57   1.218367 D    
P5    C41   1.856023 S    
N5    O38   1.293569 A    
O56   H36   1.009168 S    
C46   O35   1.220473 D    
N9    O60   1.303793 A    
O3    P6    1.779364 S    
P7    O21   1.615316 D    
C2    C57   1.499041 S    
C43   O26   1.374018 S    
C13   C53   1.505688 S    
O58   H37   1.012949 S    
C24   C26   1.480892 A    
C15   C16   1.552073 S    
C8    N5    1.455383 S    
N12   O72   1.291920 A    
C6    H8    1.098367 S    
C14   C54   1.527433 S    
O62   H38   1.010536 S    
C5    H7    1.095024 S    
C18   C23   1.468647 A    
P2    O10   1.765397 S    
C44   O28   1.394017 S    
C31   C32   1.392244 A    
C7    H9    1.077063 S    
P3    O9    1.536985 D    
N11   O70   1.300681 A    
C54   O61   1.223081 D    
C27   H19   1.080890 S    
O30   H29   1.007791 S    
C40   C41   1.408934 A    
C56   O67   1.211203 D    
C38   C40   1.397703 A    
C13   H13   1.053711 S    
C15   O24   1.443276 S    
P1    O1    1.621777 D    
C21   H17   1.074801 S    
C1    C51   1.502232 S    
O19   C13   1.428856 S    
N10   O63   1.299510 A    
O14   Ba2   2.898320 S    
P1    C18   1.919751 S    
C33   H23   1.083024 S    
N7    O45   1.291946 A    
P5    O18   1.544178 D    
C17   C23   1.425034 A    
C52   O55   1.222247 D    
C19   C20   1.401320 A    
C55   O66   1.388110 S    
C11   C12   1.602416 S    
O26   H27   0.996031 S    
C52   O56   1.395852 S    
C21   C22   1.427573 A    
P5    O19   1.794225 S    
C31   H25   1.082506 S    
C11   N7    1.452641 S    
Ba1   Ba2   4.864176 S    
C56   O68   1.399914 S    
C48   O43   1.220713 D    
C39   N2    1.434655 S    
C24   C30   1.429117 A    
C4    H4    1.111036 S    
C47   O42   1.395640 S    
C8    C46   1.500821 S    
C14   N10   1.480860 S    
P8    C28   1.911722 S    
C22   C30   1.441051 A    
N4    O34   1.297385 A    
C2    H2    1.113750 S    
C51   O53   1.224502 D    
N10   O64   1.302864 A    
O2    Ba1   3.118664 S    
P7    O22   1.767290 S    
C30   N12   1.412595 S    
C31   C36   1.390031 A    
C34   N1    1.431608 S    
P4    C26   1.955472 S    
P8    O23   1.541951 D    
C24   C25   1.435156 A    
O48   H33   1.009637 S    
O7    Ba1   2.826592 S    
C18   C19   1.415139 A    
O6    P6    1.801196 S    
O42   H31   1.013214 S    
C26   C27   1.418669 A    
C49   O48   1.393112 S    
N9    O59   1.292466 A    
N3    O32   1.298224 A    
C28   C29   1.405543 A    
O11   C2    1.421961 S    
N13   O75   1.300284 A    
C16   N11   1.466696 S    
C19   H16   1.082889 S    
C27   C28   1.402986 A    
O2    Ba2   2.920976 S    
C37   H21   1.080770 S    
C57   O73   1.209074 D    
C1    C48   1.514865 S    
P1    O2    1.620073 S    
P4    O12   1.622127 D    
O6    C10   1.432946 S    
P4    O15   1.743876 S    
O68   H40   1.010931 S    
C57   O74   1.381589 S    
C37   C39   1.412034 A    
C48   O44   1.394737 S    
P3    O11   1.765678 S    
Ba1   O16   2.817577 S    
C10   H11   1.073630 S    
C4    O15   1.403051 S    
Ba2   O20   2.816903 S    
C12   N8    1.463987 S    
P7    C38   1.838366 S    
C42   H24   1.083448 S    
C9    H10   1.100056 S    
C1    H1    1.101991 S    
O12   Ba2   2.940789 S    
C11   H12   1.089947 S    
C12   C49   1.533779 S    
C5    H6    1.099907 S    
C14   N9    1.466676 S    
C39   C42   1.403440 A    
O16   P7    1.757416 S    
O1    Ba1   2.940036 S    
P2    O7    1.629586 D    
N8    O52   1.300252 A    
Ba2   O21   2.826679 S    
O74   H41   0.997640 S    
C4    H5    1.108060 S    
O36   H30   1.007582 S    
N13   O76   1.299368 A    
O13   Ba2   3.119566 S    
N5    O37   1.292841 A    
P4    Ba2   3.577119 S    
C37   C38   1.404288 A    
O3    Ba1   2.898881 S    
N4    O33   1.299662 A    
P1    Ba1   3.576372 S    
C45   O29   1.215592 D    
C43   O25   1.225518 D    
C15   C56   1.507757 S    
C40   H26   1.082144 S    
P2    C32   1.831530 S    
P8    O24   1.783709 S    
O28   H28   1.011835 S    
P4    O13   1.620087 S    
C32   C33   1.412657 A    
C5    C44   1.493760 S    
C50   O50   1.398207 S    
C16   H14   1.086489 S    
O10   C8    1.397391 S    
C29   H18   1.071993 S    
O44   H32   1.012798 S    
C7    N3    1.457512 S    
O66   H39   0.993643 S    
O4    P6    1.548792 D    
C11   O22   1.396817 S    
C41   C42   1.412512 A    
C35   H22   1.083141 S    
C49   O47   1.215686 D    
C3    C52   1.507462 S    
C8    C9    1.562403 S    
C3    H3    1.081941 S    
N7    O46   1.300764 A    
N6    O39   1.298610 A    
C15   C55   1.470928 S    
C1    C10   1.580894 S    
C6    C7    1.570272 S    
N3    O31   1.299866 A    
P3    O8    1.770981 S    
P3    C36   1.829853 S    
N11   O69   1.299731 A    
C47   O41   1.217676 D    
C7    N4    1.471401 S    
Ba1   O13   2.920478 S    
C17   C25   1.444725 A    
P5    O17   1.770502 S    
C2    C3    1.553385 S    
C13   C14   1.619389 S    
C50   O49   1.219919 D    
N1    N2    1.251854 D    
C20   C21   1.392918 A    
C46   O36   1.394776 S    
C6    C45   1.492239 S    
C17   H20   1.080440 S    
O14   P8    1.763181 S    
C9    C47   1.516126 S    
C22   C23   1.427642 A    
C34   C35   1.400615 A    
C12   C50   1.538138 S    
C55   O65   1.209856 D    
C4    C5    1.533430 S    
P1    O5    1.767373 S    
P6    C20   1.899571 S    
O16   Ba2   3.137993 S    
O50   H34   1.014034 S    
O8    Ba1   2.865518 S    
C53   O58   1.393951 S    
N8    O51   1.301933 A    
C54   O62   1.399804 S    
C10   C43   1.499836 S    
C35   C36   1.401620 A    
C44   O27   1.221525 D    
P2    O20   1.543149 S    
C25   C29   1.420987 A    
O17   Ba2   2.866260 S    
N12   O71   1.296075 A    
Ba1   O20   3.138982 S    
C45   O30   1.388282 S    
