data_mof_unit_11985.cif
_audit_creation_date              2012-12-11T14:56:31-0500
_audit_creation_method            fapswitch 2.2
_symmetry_space_group_name_H-M    P1
_symmetry_Int_Tables_number       1
_space_group_crystal_system       triclinic
_cell_length_a                    10.593775
_cell_length_b                    10.654703
_cell_length_c                    17.10784
_cell_angle_alpha                 80.586815
_cell_angle_beta                  89.730221
_cell_angle_gamma                 119.446655
_cell_volume                      1650.75604294

loop_
_atom_site_label
_atom_site_type_symbol
_atom_type_description
_atom_site_fract_x
_atom_site_fract_y
_atom_site_fract_z
_atom_type_partial_charge
C1    C     C_R   0.222120 0.853909 0.128617 0.556444
C2    C     C_R   0.796322 0.409667 0.265339 -0.147424
C3    C     C_R   0.787220 0.399821 0.186560 -0.182554
C4    C     C_R   0.651976 0.344874 0.156293 0.064192
C5    C     C_1   0.669067 0.848807 0.205407 -0.026975
C6    C     C_1   0.680488 0.839341 0.274839 -0.025905
C7    C     C_1   0.180080 0.825360 0.211134 -0.033065
C8    C     C_1   0.151044 0.819463 0.279757 -0.033708
C9    C     C_1   0.645935 0.326396 0.778452 -0.034565
C10   C     C_1   0.653324 0.348349 0.707844 -0.044852
C11   C     C_R   0.493998 0.791423 0.773089 -0.149101
C12   C     C_R   0.636300 0.280590 0.086158 0.570435
C13   C     C_R   0.506266 0.774201 0.695138 0.195078
C14   C     C_R   0.643000 0.860234 0.649530 0.097000
C15   C     C_R   0.755908 0.981608 0.676959 0.193382
C16   C     C_R   0.738949 0.999066 0.755044 -0.141116
C17   C     C_R   0.612421 0.896915 0.804532 -0.057418
C18   C     C_R   0.302948 0.981750 0.746834 -0.173473
C19   C     C_R   0.269535 0.959106 0.670660 -0.124762
C20   C     C_R   0.165172 0.819859 0.659338 0.008318
C21   C     C_R   0.096881 0.702242 0.723872 -0.076525
C22   C     C_R   0.125138 0.724869 0.800761 0.220156
C23   C     C_R   0.640620 0.858314 0.125340 0.563534
C24   C     C_R   0.231474 0.866291 0.811843 0.019074
C25   C     C_R   0.686635 0.810114 0.357227 0.546008
C26   C     C_R   0.689776 0.396701 0.394503 0.549466
C27   C     C_R   0.103991 0.810339 0.359204 0.546553
C28   C     C_R   0.674134 0.806262 0.582251 0.593762
C29   C     C_R   0.679516 0.383691 0.624679 0.544884
C30   C     C_R   0.102033 0.803334 0.584897 0.551445
C31   C     C_R   0.278628 0.897687 0.888582 0.510936
C32   C     C_R   0.637912 0.285482 0.861200 0.549346
C33   C     C_R   0.599661 0.895713 0.889377 0.552069
C34   C     C_R   0.527866 0.320047 0.202780 0.237930
C35   C     C_R   0.539130 0.332439 0.282748 -0.128554
C36   C     C_R   0.671257 0.370084 0.314528 -0.001445
Cr1   Cr    Cr6+3 0.402240 0.783890 0.019450 1.049752
Cr2   Cr    Cr6+3 0.382360 0.097900 0.991800 1.074513
Cr3   Cr    Cr6+3 0.715380 0.118170 0.988700 1.053316
Cr4   Cr    Cr6+3 0.936650 0.882420 0.465510 1.070871
Cr5   Cr    Cr6+3 0.605770 0.565620 0.493360 1.060042
Cr6   Cr    Cr6+3 0.921340 0.550490 0.496380 1.053140
H1    H     H_    0.320752 0.050915 0.621015 0.140962
H2    H     H_    0.011828 0.595420 0.715330 0.160230
H3    H     H_    0.445260 0.311056 0.320205 0.120188
H4    H     H_    0.902416 0.449171 0.287460 0.157028
H5    H     H_    0.884480 0.424762 0.150954 0.151081
H6    H     H_    0.393152 0.717675 0.810520 0.149296
H7    H     H_    0.827482 0.086762 0.778246 0.146292
H8    H     H_    0.383328 0.089956 0.755392 0.121904
O1    O     O_R   0.521780 0.757110 0.108900 -0.492921
O2    O     O_R   0.513330 0.228330 0.898660 -0.519309
O3    O     O_R   0.739230 0.266130 0.888050 -0.488834
O4    O     O_R   0.712580 0.991850 0.918770 -0.493288
O5    O     O_3   0.499990 0.999980 0.999980 -0.316077
O6    O     O_R   0.083770 0.911170 0.376030 -0.510375
O7    O     O_R   0.808770 0.880340 0.383890 -0.499657
O8    O     O_R   0.584340 0.689460 0.394160 -0.509587
O9    O     O_R   0.614320 0.443940 0.423590 -0.506240
O10   O     O_R   0.805020 0.410040 0.421340 -0.512391
O11   O     O_R   0.049240 0.685450 0.403290 -0.501656
O12   O     O_R   0.275160 0.783810 0.101120 -0.498478
O13   O     O_R   0.077520 0.903010 0.551800 -0.494717
O14   O     O_R   0.802980 0.872780 0.546830 -0.450448
O15   O     O_R   0.578090 0.681300 0.569920 -0.455926
O16   O     O_R   0.608530 0.436370 0.586530 -0.493720
O17   O     O_R   0.798770 0.401880 0.597100 -0.501184
O18   O     O_R   0.043450 0.677890 0.566230 -0.501326
O19   O     O_3   0.821250 0.666180 0.485090 -0.277878
O20   O     O_R   0.237900 0.972600 0.090980 -0.472122
O21   O     O_R   0.511190 0.220540 0.061620 -0.432198
O22   O     O_R   0.736920 0.257720 0.063840 -0.525282
O23   O     O_R   0.710450 0.984050 0.081720 -0.488775
O24   O     O_R   0.524090 0.765520 0.933110 -0.495294
O25   O     O_R   0.277300 0.791600 0.938160 -0.510081
O26   O     O_R   0.240210 0.981010 0.915190 -0.499127
O27   O     O_3   0.396783 0.278269 0.170475 -0.661535
H9    H     H_    0.322360 0.263921 0.211720 0.322777
O28   O     O_3   0.042675 0.609126 0.862436 -0.680015
H10   H     H_    0.031723 0.648925 0.908797 0.350398
O29   O     O_3   0.388859 0.668619 0.664346 -0.671249
H11   H     H_    0.304926 0.613363 0.705785 0.327322
O30   O     O_3   0.883612 0.076772 0.628529 -0.666053
H12   H     H_    0.950069 0.154517 0.657133 0.328058

loop_
_geom_bond_atom_site_label_1
_geom_bond_atom_site_label_2
_ccdc_geom_bond_type
Cr1   O24   S    
Cr2   O20   S    
C19   C20   A    
C1    O12   A    
O29   H11   S    
C7    C8    T    
C20   C30   S    
O27   H9    S    
C2    H4    S    
Cr4   O13   S    
C25   O7    A    
C18   C24   A    
C21   C22   A    
Cr3   O4    S    
C22   O28   S    
C18   C19   A    
C34   O27   S    
C5    C6    T    
Cr1   O1    S    
C6    C25   S    
Cr2   O2    S    
C15   C16   A    
C13   O29   S    
C34   C35   A    
C32   O2    A    
C27   O11   A    
C9    C32   S    
C29   O17   A    
C23   O1    A    
Cr3   O5    S    
Cr2   O5    S    
C35   C36   A    
C16   C17   A    
Cr4   O6    S    
Cr3   O22   S    
C4    C12   S    
C26   O9    A    
C12   O22   A    
C13   C14   A    
Cr2   O26   S    
Cr6   O18   S    
C11   H6    S    
C17   C33   S    
C23   O23   A    
C19   H1    S    
Cr1   O12   S    
C4    C34   A    
Cr4   O19   S    
C16   H7    S    
Cr5   O9    S    
Cr6   O10   S    
C27   O6    A    
Cr5   O15   S    
Cr6   O19   S    
C29   O16   A    
C21   H2    S    
C31   O25   A    
O30   H12   S    
C5    C23   S    
Cr6   O11   S    
C28   O14   A    
C26   C36   S    
C12   O21   A    
Cr6   O17   S    
C22   C24   A    
C25   O8    A    
C3    C4    A    
C35   H3    S    
C32   O3    A    
C18   H8    S    
Cr5   O19   S    
C9    C10   T    
C2    C36   A    
C33   O4    A    
Cr2   O21   S    
C11   C17   A    
Cr4   O7    S    
C1    C7    S    
Cr5   O8    S    
C15   O30   S    
Cr5   O16   S    
C1    O20   A    
Cr4   O14   S    
C2    C3    A    
C24   C31   S    
C11   C13   A    
C10   C29   S    
C31   O26   A    
Cr3   O3    S    
C3    H5    S    
C28   O15   A    
Cr3   O23   S    
Cr1   O25   S    
O28   H10   S    
Cr1   O5    S    
C33   O24   A    
C20   C21   A    
C8    C27   S    
C14   C15   A    
C14   C28   S    
C30   O13   A    
C26   O10   A    
C30   O18   A    
