data_mof_unit_52534.cif
_audit_creation_date              2012-12-10T17:02:30-0500
_audit_creation_method            fapswitch 2.2
_symmetry_space_group_name_H-M    P1
_symmetry_Int_Tables_number       1
_space_group_crystal_system       triclinic
_cell_length_a                    10.850535
_cell_length_b                    10.95266
_cell_length_c                    9.700476
_cell_angle_alpha                 107.829299
_cell_angle_beta                  94.736894
_cell_angle_gamma                 92.610106
_cell_volume                      1090.65898076

loop_
_atom_site_label
_atom_site_type_symbol
_atom_type_description
_atom_site_fract_x
_atom_site_fract_y
_atom_site_fract_z
_atom_type_partial_charge
C1    C     C_R   0.483803 0.254217 0.446368 0.896739
C2    C     C_R   0.510470 0.744597 0.554279 0.899286
C3    C     C_2   0.464347 0.115130 0.428351 -0.470372
C4    C     C_2   0.512837 0.880975 0.571481 -0.421667
C5    C     C_2   0.428200 0.067629 0.534176 0.313357
C6    C     C_2   0.418269 0.929840 0.512598 0.300521
C7    C     C_2   0.489583 0.528795 0.083092 0.047969
C8    C     C_2   0.476577 0.504990 0.924833 0.096196
C9    C     C_R   0.261280 0.492579 0.504239 0.851886
C10   C     C_R   0.737477 0.512085 0.495874 0.774601
C11   C     C_R   0.129424 0.616186 0.775016 -0.102274
C12   C     C_R   0.874559 0.448856 0.218920 -0.102609
C13   C     C_R   0.092135 0.729956 0.872459 0.395910
C14   C     C_R   0.915868 0.355157 0.100136 0.391947
C15   C     C_R   0.977874 0.775864 0.839971 -0.074586
C16   C     C_R   0.021208 0.291497 0.124416 -0.125199
C17   C     C_R   0.904150 0.708412 0.713109 -0.198922
C18   C     C_R   0.087993 0.328138 0.262326 -0.230364
C19   C     C_R   0.948132 0.603177 0.610418 0.102121
C20   C     C_R   0.047184 0.424253 0.379984 0.090257
C21   C     C_R   0.070481 0.569773 0.631569 0.019904
C22   C     C_R   0.927546 0.464598 0.361664 -0.020864
C23   C     C_R   0.872008 0.533400 0.485509 -0.148468
C24   C     C_R   0.124270 0.485518 0.511755 -0.116306
Cu1   Cu    Cu3+1 0.521920 0.521810 0.644910 1.067342
Cu2   Cu    Cu3+1 0.478080 0.478190 0.355090 1.034542
H1    H     H_    0.813460 0.740807 0.692377 0.141926
H2    H     H_    0.172293 0.282103 0.276907 0.155519
H3    H     H_    0.595854 0.941312 0.626308 0.136004
H4    H     H_    0.478962 0.047994 0.323407 0.174697
H5    H     H_    0.404556 0.438595 0.857499 0.210757
H6    H     H_    0.539486 0.615869 0.154392 0.166310
H7    H     H_    0.624798 0.618464 0.927100 0.224286
H8    H     H_    0.399738 0.361941 0.067256 0.245997
N1    N     N_2   0.445130 0.445420 0.137360 -0.277536
N2    N     N_2   0.554870 0.554580 0.862640 -0.268082
O1    O     O_R   0.511700 0.332340 0.577400 -0.494553
O2    O     O_R   0.488300 0.667660 0.422600 -0.556194
O3    O     O_R   0.474680 0.295500 0.332650 -0.579382
O4    O     O_R   0.525320 0.704500 0.667350 -0.573556
O5    O     O_R   0.338170 0.518410 0.622370 -0.585382
O6    O     O_R   0.661830 0.481590 0.377630 -0.591188
O7    O     O_R   0.301150 0.481570 0.377630 -0.543971
O8    O     O_R   0.698850 0.518430 0.622370 -0.540004
C25   C     C_1   0.068820 0.197874 0.005574 0.407176
N3    N     N_1   0.105216 0.122833 0.908506 -0.084827
C26   C     C_1   0.926581 0.881530 0.942693 0.361563
N4    N     N_1   0.884605 0.965409 0.025136 -0.238030
C27   C     C_1   0.166418 0.519928 0.840199 0.410540
N5    N     N_1   0.189106 0.443111 0.896000 -0.223076
C28   C     C_1   0.814963 0.556584 0.193574 0.406922
N6    N     N_1   0.771415 0.645286 0.174726 -0.303269
S1    S     S_3+6 0.175299 0.801058 0.045318 0.026263
O9    O     O_2   0.093584 0.783289 0.156472 -0.258826
O10   O     O_2   0.294588 0.739248 0.058849 -0.275563
O11   O     O_3   0.208457 0.958813 0.073261 -0.526034
H9    H     H_    0.149525 0.003845 0.140646 0.337375
S2    S     S_3+6 0.838250 0.320274 0.922133 0.023646
O12   O     O_2   0.711585 0.369197 0.930829 -0.274430
O13   O     O_2   0.911045 0.384373 0.835009 -0.300071
O14   O     O_3   0.823913 0.160551 0.838206 -0.521184
H10   H     H_    0.777208 0.149518 0.742495 0.383049
S3    S     S_3+6 0.267309 0.849784 0.473566 0.109259
O15   O     O_2   0.262868 0.732657 0.342587 -0.194875
O16   O     O_2   0.236955 0.808018 0.601393 -0.265852
O17   O     O_3   0.160746 0.948929 0.445810 -0.424406
H11   H     H_    0.196719 0.992735 0.381488 0.343643
S4    S     S_3+6 0.386172 0.159711 0.704060 0.025719
O18   O     O_2   0.500013 0.231986 0.795976 -0.290541
O19   O     O_2   0.292920 0.250395 0.680864 -0.301630
O20   O     O_3   0.324090 0.063943 0.790492 -0.438998
H12   H     H_    0.395573 0.032118 0.836114 0.369861

loop_
_geom_bond_atom_site_label_1
_geom_bond_atom_site_label_2
_ccdc_geom_bond_type
C6    S3    S    
C16   C25   S    
C3    H4    S    
C19   C23   A    
S3    O16   D    
C9    C24   S    
C11   C27   S    
C1    O1    A    
C10   C23   S    
C10   O6    A    
C12   C14   A    
C2    O2    A    
C2    C4    S    
C26   N4    T    
C15   C26   S    
C3    C5    D    
Cu1   O1    S    
C12   C28   S    
S2    O14   S    
S1    O10   D    
O17   H11   S    
Cu1   Cu2   S    
S3    O17   S    
O20   H12   S    
S4    O18   D    
S1    O9    D    
S1    O11   S    
C11   C13   A    
O14   H10   S    
S4    O20   S    
Cu1   O8    S    
C16   C18   A    
C2    O4    A    
C17   C19   A    
C5    S4    S    
Cu2   O7    S    
H8    N1    S    
S2    O13   D    
C13   S1    S    
C13   C15   A    
Cu1   O4    S    
C5    C6    S    
C14   S2    S    
C14   C16   A    
Cu2   O3    S    
C9    O7    A    
C1    O3    A    
Cu1   N2    S    
C10   O8    A    
S3    O15   D    
C17   H1    S    
C12   C22   A    
Cu2   N1    S    
C7    C8    S    
H7    N2    S    
C18   H2    S    
O11   H9    S    
Cu2   O6    S    
C18   C20   A    
C4    C6    D    
C27   N5    T    
C8    N2    D    
C21   C24   A    
Cu1   O5    S    
C15   C17   A    
S4    O19   D    
C20   C24   A    
C22   C23   A    
Cu2   O2    S    
C7    H6    S    
C9    O5    A    
C19   C21   A    
S2    O12   D    
C25   N3    T    
C8    H5    S    
C7    N1    D    
C11   C21   A    
C28   N6    T    
C20   C22   A    
C4    H3    S    
C1    C3    S    
