data_mof_unit_61052.cif
_audit_creation_date              2013-03-05T16:25:41-0500
_audit_creation_method            fapswitch 2.2
_symmetry_space_group_name_H-M    P1
_symmetry_Int_Tables_number       1
_space_group_crystal_system       triclinic
_cell_length_a                    18.266185
_cell_length_b                    30.599374
_cell_length_c                    30.631613
_cell_angle_alpha                 89.999839
_cell_angle_beta                  90.284978
_cell_angle_gamma                 89.960214
_cell_volume                      17120.8287578

loop_
_atom_site_label
_atom_site_type_symbol
_atom_site_description
_atom_site_fract_x
_atom_site_fract_y
_atom_site_fract_z
_atom_type_partial_charge
O1    O     O_R   0.500000 0.730040 0.321660 -0.559262
O2    O     O_R   0.500000 0.730040 0.678340 -0.559389
O3    O     O_R   0.000000 0.230040 0.321660 -0.559000
O4    O     O_R   0.000000 0.230040 0.678340 -0.559038
O5    O     O_R   0.000000 0.730040 0.821660 -0.559214
O6    O     O_R   0.000000 0.730040 0.178340 -0.594270
O7    O     O_R   0.500000 0.230040 0.821660 -0.559121
O8    O     O_R   0.500000 0.230040 0.178340 -0.559058
O9    O     O_R   0.500000 0.678320 0.269940 -0.631966
O10   O     O_R   0.500000 0.678320 0.730060 -0.633274
O11   O     O_R   1.000000 0.178320 0.269940 -0.633352
O12   O     O_R   0.000000 0.178320 0.730060 -0.633449
O13   O     O_R   0.000000 0.678320 0.769940 -0.633822
O14   O     O_R   0.000000 0.678320 0.230060 -0.623451
O15   O     O_R   0.500000 0.178320 0.769940 -0.633444
O16   O     O_R   0.500000 0.178320 0.230060 -0.633327
C1    C     C_R   0.500852 0.689890 0.309978 0.884915
C2    C     C_R   0.499144 0.689893 0.690024 0.884846
C3    C     C_R   0.000855 0.189888 0.309981 0.884788
C4    C     C_R   0.999201 0.189900 0.690028 0.884889
C5    C     C_R   0.999073 0.689887 0.809988 0.885086
C6    C     C_R   0.000157 0.689936 0.189899 0.914891
C7    C     C_R   0.500784 0.189899 0.809972 0.884729
C8    C     C_R   0.499138 0.189890 0.190019 0.884629
O17   O     O_R   0.392670 0.775850 0.275850 -0.610966
O18   O     O_R   0.392670 0.775850 0.724150 -0.620774
O19   O     O_R   0.607330 0.775850 0.275850 -0.610097
O20   O     O_R   0.607330 0.775850 0.724150 -0.597575
O21   O     O_R   0.892670 0.275850 0.275850 -0.603614
O22   O     O_R   0.892670 0.275850 0.724150 -0.615168
O23   O     O_R   0.107330 0.275850 0.275850 -0.614395
O24   O     O_R   0.107330 0.275850 0.724150 -0.603285
O25   O     O_R   0.892670 0.775850 0.775850 -0.613825
O26   O     O_R   0.892670 0.775850 0.224150 -0.615219
O27   O     O_R   0.107330 0.775850 0.775850 -0.604947
O28   O     O_R   0.107330 0.775850 0.224150 -0.608889
O29   O     O_R   0.392670 0.275850 0.775850 -0.604591
O30   O     O_R   0.392670 0.275850 0.224150 -0.613170
O31   O     O_R   0.607330 0.275850 0.775850 -0.613978
O32   O     O_R   0.607330 0.275850 0.224150 -0.605046
O33   O     O_R   0.392690 0.724130 0.224130 -0.601872
O34   O     O_R   0.392690 0.724130 0.775870 -0.611228
O35   O     O_R   0.607310 0.724130 0.224130 -0.625001
O36   O     O_R   0.607310 0.724130 0.775870 -0.623866
O37   O     O_R   0.892690 0.224130 0.224130 -0.613775
O38   O     O_R   0.892690 0.224130 0.775870 -0.619938
O39   O     O_R   0.107310 0.224130 0.224130 -0.620389
O40   O     O_R   0.107310 0.224130 0.775870 -0.613927
O41   O     O_R   0.892690 0.724130 0.724130 -0.614225
O42   O     O_R   0.892690 0.724130 0.275870 -0.623513
O43   O     O_R   0.107310 0.724130 0.724130 -0.619922
O44   O     O_R   0.107310 0.724130 0.275870 -0.607702
O45   O     O_R   0.392690 0.224130 0.724130 -0.610568
O46   O     O_R   0.392690 0.224130 0.275870 -0.623566
O47   O     O_R   0.607310 0.224130 0.724130 -0.623105
O48   O     O_R   0.607310 0.224130 0.275870 -0.610332
C9    C     C_R   0.358973 0.749915 0.249985 0.926263
C10   C     C_R   0.358972 0.750081 0.750000 0.913524
C11   C     C_R   0.641027 0.750060 0.249993 0.912196
C12   C     C_R   0.641026 0.749895 0.750020 0.927731
C13   C     C_R   0.858973 0.249904 0.249995 0.927967
C14   C     C_R   0.858973 0.250074 0.749994 0.912975
C15   C     C_R   0.141026 0.250070 0.249985 0.913300
C16   C     C_R   0.141027 0.249899 0.750025 0.928647
C17   C     C_R   0.858972 0.749915 0.749981 0.914930
C18   C     C_R   0.858973 0.750063 0.249984 0.913892
C19   C     C_R   0.141026 0.750064 0.749995 0.926062
C20   C     C_R   0.141027 0.749902 0.250025 0.950096
C21   C     C_R   0.358974 0.249911 0.749989 0.928883
C22   C     C_R   0.358972 0.250066 0.249987 0.912709
C23   C     C_R   0.641027 0.250062 0.749992 0.912353
C24   C     C_R   0.641027 0.249907 0.250032 0.928599
Zn1   Zn    Zn3+2 0.500000 0.784520 0.284530 1.049977
Zn2   Zn    Zn3+2 0.500000 0.784520 0.715470 1.049080
Zn3   Zn    Zn3+2 0.000000 0.284520 0.284530 1.050420
Zn4   Zn    Zn3+2 1.000000 0.284520 0.715470 1.049623
Zn5   Zn    Zn3+2 0.000000 0.784520 0.784530 1.049290
Zn6   Zn    Zn3+2 0.000000 0.784520 0.215470 1.028849
Zn7   Zn    Zn3+2 0.500000 0.284520 0.784530 1.049315
Zn8   Zn    Zn3+2 0.500000 0.284520 0.215470 1.050388
Zn9   Zn    Zn3+2 0.500000 0.715450 0.215460 1.007743
Zn10  Zn    Zn3+2 0.500000 0.715450 0.784540 0.999238
Zn11  Zn    Zn3+2 1.000000 0.215450 0.215460 1.000668
Zn12  Zn    Zn3+2 0.000000 0.215450 0.784540 1.000965
Zn13  Zn    Zn3+2 0.000000 0.715450 0.715460 0.999004
Zn14  Zn    Zn3+2 0.000000 0.715450 0.284540 1.007408
Zn15  Zn    Zn3+2 0.500000 0.215450 0.715460 1.001988
Zn16  Zn    Zn3+2 0.500000 0.215450 0.284540 1.001600
O49   O     O_R   0.500000 0.821650 0.230050 -0.628751
O50   O     O_R   0.500000 0.821650 0.769950 -0.628816
O51   O     O_R   1.000000 0.321650 0.230050 -0.629149
O52   O     O_R   0.000000 0.321650 0.769950 -0.628997
O53   O     O_R   1.000000 0.821650 0.730050 -0.627866
O54   O     O_R   0.000000 0.821650 0.269950 -0.628275
O55   O     O_R   0.500000 0.321650 0.730050 -0.629768
O56   O     O_R   0.500000 0.321650 0.269950 -0.629563
O57   O     O_R   0.500000 0.769930 0.178330 -0.616056
O58   O     O_R   0.500000 0.769930 0.821670 -0.615844
O59   O     O_R   0.000000 0.269930 0.178330 -0.616019
O60   O     O_R   1.000000 0.269930 0.821670 -0.616018
O61   O     O_R   1.000000 0.769930 0.678330 -0.617121
O62   O     O_R   0.000000 0.769930 0.321670 -0.617372
O63   O     O_R   0.500000 0.269930 0.678330 -0.614685
O64   O     O_R   0.500000 0.269930 0.321670 -0.615322
C25   C     C_R   0.500213 0.809958 0.190002 0.908796
C26   C     C_R   0.500189 0.809950 0.810000 0.909874
C27   C     C_R   0.999731 0.309961 0.189980 0.909739
C28   C     C_R   0.000251 0.309964 0.810019 0.910113
C29   C     C_R   0.999811 0.809949 0.689999 0.910378
C30   C     C_R   0.999795 0.809957 0.309997 0.909702
C31   C     C_R   0.500274 0.309965 0.689989 0.909876
C32   C     C_R   0.499706 0.309971 0.310020 0.910072
C33   C     C_1   0.282416 0.749762 0.249997 -0.138864
C34   C     C_1   0.282415 0.750223 0.749967 -0.165946
C35   C     C_1   0.717583 0.750194 0.249986 -0.167960
C36   C     C_1   0.717582 0.749741 0.750041 -0.150910
C37   C     C_1   0.782417 0.249754 0.250010 -0.142952
C38   C     C_1   0.782417 0.250211 0.749957 -0.171629
C39   C     C_1   0.217581 0.250206 0.249981 -0.171451
C40   C     C_1   0.217585 0.249747 0.750051 -0.141454
C41   C     C_1   0.782416 0.749754 0.749993 -0.157002
C42   C     C_1   0.782416 0.750200 0.249952 -0.169066
C43   C     C_1   0.217581 0.750211 0.749994 -0.160584
C44   C     C_1   0.217583 0.749751 0.250046 -0.129889
C45   C     C_1   0.282418 0.249757 0.750005 -0.142502
C46   C     C_1   0.282415 0.250208 0.249952 -0.170125
C47   C     C_1   0.717584 0.250201 0.749986 -0.170415
C48   C     C_1   0.717583 0.249752 0.250057 -0.144033
C49   C     C_R   0.445119 0.655774 0.373512 -0.038239
C50   C     C_R   0.555085 0.655574 0.626656 -0.044311
C51   C     C_R   0.945511 0.156029 0.373792 -0.040872
C52   C     C_R   0.055744 0.155182 0.627086 -0.043610
C53   C     C_R   0.052838 0.656788 0.875045 -0.039852
C54   C     C_R   0.033280 0.664460 0.117212 0.021957
C55   C     C_R   0.444194 0.155215 0.872899 -0.043866
C56   C     C_R   0.554455 0.155983 0.126206 -0.041230
C57   C     C_R   0.500050 0.656352 0.342231 -0.075483
C58   C     C_R   0.499902 0.656362 0.657771 -0.076116
C59   C     C_R   0.000030 0.156352 0.342246 -0.075977
C60   C     C_R   0.999921 0.156386 0.657777 -0.074307
C61   C     C_R   0.999749 0.656382 0.842320 -0.079812
C62   C     C_R   0.996963 0.657432 0.156498 -0.097966
C63   C     C_R   0.500038 0.156381 0.842220 -0.074278
C64   C     C_R   0.499937 0.156357 0.157751 -0.075914
C65   C     C_R   0.548643 0.621002 0.338892 -0.180730
C66   C     C_R   0.450979 0.621204 0.660968 -0.181929
C67   C     C_R   0.048180 0.120805 0.338719 -0.181685
C68   C     C_R   0.950203 0.121609 0.660614 -0.182942
C69   C     C_R   0.952829 0.620332 0.837982 -0.180148
C70   C     C_R   0.953609 0.620060 0.161866 -0.190093
C71   C     C_R   0.549743 0.121558 0.839380 -0.182883
C72   C     C_R   0.451748 0.120865 0.161265 -0.181531
H1    H     H_    0.588675 0.619583 0.312940 0.153292
H2    H     H_    0.410731 0.619939 0.686807 0.154783
H3    H     H_    0.087885 0.119209 0.312599 0.153049
H4    H     H_    0.909393 0.120662 0.686151 0.153526
H5    H     H_    0.914236 0.618232 0.811085 0.156294
H6    H     H_    0.921436 0.615329 0.191106 0.159486
H7    H     H_    0.590565 0.120580 0.813849 0.153513
H8    H     H_    0.412040 0.119309 0.187384 0.153085
C73   C     C_R   0.548547 0.588742 0.370935 -0.203273
C74   C     C_R   0.451059 0.588944 0.628922 -0.203598
C75   C     C_R   0.048107 0.088561 0.370776 -0.202460
C76   C     C_R   0.950276 0.089349 0.628574 -0.201076
C77   C     C_R   0.952639 0.588183 0.870144 -0.205655
C78   C     C_R   0.953544 0.587991 0.129654 -0.198852
C79   C     C_R   0.549649 0.089290 0.871410 -0.201291
C80   C     C_R   0.451798 0.088629 0.129199 -0.202624
H9    H     H_    0.588475 0.562575 0.369595 0.151916
H10   H     H_    0.410903 0.562930 0.630149 0.152535
H11   H     H_    0.087711 0.062228 0.369278 0.150845
H12   H     H_    0.909513 0.063666 0.629499 0.158239
H13   H     H_    0.914065 0.561377 0.867927 0.150232
H14   H     H_    0.921425 0.558595 0.134221 0.149219
H15   H     H_    0.590415 0.063575 0.870488 0.157909
H16   H     H_    0.412180 0.062336 0.130692 0.150876
C81   C     C_R   0.498219 0.591412 0.405224 -0.032566
C82   C     C_R   0.501689 0.591422 0.594777 -0.032505
C83   C     C_R   0.998221 0.091446 0.405273 -0.031860
C84   C     C_R   0.001678 0.091418 0.594810 -0.037290
C85   C     C_R   0.001083 0.591688 0.905575 -0.029587
C86   C     C_R   0.998650 0.592923 0.093073 -0.026151
C87   C     C_R   0.498239 0.091399 0.905170 -0.037098
C88   C     C_R   0.501696 0.091466 0.094708 -0.031904
C89   C     C_R   0.443669 0.623246 0.404456 -0.037641
C90   C     C_R   0.556501 0.623049 0.595710 -0.040421
C91   C     C_R   0.944056 0.123512 0.404751 -0.039663
C92   C     C_R   0.057118 0.122646 0.596147 -0.040920
C93   C     C_R   0.054121 0.624357 0.906092 -0.034824
C94   C     C_R   0.034939 0.632196 0.085980 -0.071098
C95   C     C_R   0.442800 0.122673 0.903832 -0.041030
C96   C     C_R   0.555883 0.123474 0.095241 -0.039765
C97   C     C_3   0.419850 0.653597 0.439871 -0.550113
C98   C     C_3   0.580885 0.653313 0.560375 -0.546302
C99   C     C_3   0.921118 0.153974 0.440278 -0.549089
C100  C     C_3   0.082832 0.152732 0.560999 -0.544705
C101  C     C_3   0.074441 0.655112 0.942040 -0.566969
C102  C     C_3   0.113172 0.640604 0.074783 -0.544664
C103  C     C_3   0.417067 0.152773 0.938981 -0.545059
C104  C     C_3   0.578851 0.153919 0.059721 -0.549275
C105  C     C_3   0.422241 0.689614 0.405856 1.173139
C106  C     C_3   0.578537 0.689331 0.594393 1.177739
C107  C     C_3   0.923520 0.189976 0.406248 1.176671
C108  C     C_3   0.080543 0.188763 0.595006 1.174763
C109  C     C_3   0.072150 0.691036 0.907910 1.181950
C110  C     C_3   0.111445 0.676243 0.109218 1.142594
C111  C     C_3   0.419375 0.188809 0.904982 1.175183
C112  C     C_3   0.576479 0.189914 0.093761 1.176916
C113  C     C_R   0.461749 0.880538 0.161111 0.135927
C114  C     C_R   0.460629 0.880188 0.838961 0.133998
C115  C     C_R   0.036844 0.381029 0.161802 0.131881
C116  C     C_R   0.963312 0.381126 0.838149 0.134356
C117  C     C_R   0.039378 0.880161 0.661046 0.131125
C118  C     C_R   0.038404 0.880462 0.338928 0.135324
C119  C     C_R   0.463491 0.381112 0.661620 0.134763
C120  C     C_R   0.535170 0.381530 0.337976 0.136480
C121  C     C_R   0.501969 0.842498 0.157012 -0.184070
C122  C     C_R   0.501679 0.842442 0.843038 -0.183237
C123  C     C_R   0.998328 0.342456 0.156884 -0.189101
C124  C     C_R   0.001682 0.342469 0.843110 -0.190920
C125  C     C_R   0.998358 0.842438 0.656954 -0.187875
C126  C     C_R   0.998076 0.842492 0.342992 -0.185195
C127  C     C_R   0.502010 0.342506 0.656959 -0.186771
C128  C     C_R   0.498058 0.342512 0.343081 -0.188225
C129  C     C_R   0.543726 0.836314 0.118967 -0.294549
C130  C     C_R   0.543858 0.836418 0.881186 -0.295429
C131  C     C_R   0.958883 0.335618 0.117825 -0.282561
C132  C     C_R   0.041051 0.335573 0.882192 -0.281792
C133  C     C_R   0.956268 0.836421 0.618776 -0.290016
C134  C     C_R   0.956266 0.836362 0.381019 -0.293147
C135  C     C_R   0.541954 0.335760 0.618296 -0.285120
C136  C     C_R   0.459639 0.335358 0.382229 -0.284127
H17   H     H_    0.576233 0.807022 0.114592 0.198067
H18   H     H_    0.576916 0.807319 0.885574 0.198084
H19   H     H_    0.927837 0.305881 0.112711 0.202989
H20   H     H_    0.072000 0.305780 0.887336 0.203405
H21   H     H_    0.923243 0.807337 0.614373 0.204923
H22   H     H_    0.923687 0.807121 0.385369 0.199832
H23   H     H_    0.573102 0.306025 0.613431 0.198193
H24   H     H_    0.429606 0.305308 0.387482 0.198989
C137  C     C_R   0.544154 0.868661 0.086594 0.647598
C138  C     C_R   0.544103 0.868715 0.913604 0.649012
C139  C     C_R   0.958749 0.367902 0.085391 0.650279
C140  C     C_R   0.041223 0.367865 0.914617 0.649780
C141  C     C_R   0.956052 0.868710 0.586352 0.650019
C142  C     C_R   0.955862 0.868701 0.413398 0.648704
C143  C     C_R   0.542307 0.368094 0.585905 0.649495
C144  C     C_R   0.459326 0.367690 0.414618 0.648478
C145  C     C_R   0.500984 0.906447 0.091936 -0.249918
C146  C     C_R   0.500309 0.906281 0.908218 -0.250504
C147  C     C_R   0.999865 0.406325 0.091737 -0.232287
C148  C     C_R   0.000228 0.406360 0.908237 -0.233182
C149  C     C_R   0.999787 0.906260 0.591761 -0.253506
C150  C     C_R   0.999112 0.906425 0.408085 -0.251675
C151  C     C_R   0.500933 0.406472 0.591898 -0.232514
C152  C     C_R   0.499203 0.406500 0.408119 -0.231662
C153  C     C_R   0.460133 0.910774 0.129501 0.045763
C154  C     C_R   0.458807 0.910358 0.870630 0.038657
C155  C     C_R   0.038756 0.411245 0.130182 0.030871
C156  C     C_R   0.961449 0.411357 0.869758 0.039882
C157  C     C_R   0.041232 0.910322 0.629369 0.038549
C158  C     C_R   0.040047 0.910687 0.370548 0.046027
C159  C     C_R   0.461826 0.411378 0.630040 0.040500
C160  C     C_R   0.536873 0.411822 0.369528 0.040528
C161  C     C_3   0.408819 0.939915 0.153414 -0.461666
C162  C     C_3   0.407096 0.939335 0.846518 -0.447593
C163  C     C_3   0.087057 0.441319 0.155376 -0.451127
C164  C     C_3   0.913230 0.441510 0.844553 -0.467029
C165  C     C_3   0.092803 0.939305 0.653529 -0.447498
C166  C     C_3   0.091407 0.939768 0.346650 -0.461006
C167  C     C_3   0.412673 0.441242 0.654656 -0.464696
C168  C     C_3   0.584003 0.442285 0.344289 -0.468711
C169  C     C_3   0.409998 0.904910 0.189597 -0.441264
C170  C     C_3   0.408483 0.904389 0.810288 -0.443579
C171  C     C_3   0.085606 0.406348 0.191579 -0.432122
C172  C     C_3   0.914628 0.406527 0.808357 -0.430926
C173  C     C_3   0.091386 0.904367 0.689766 -0.444248
C174  C     C_3   0.090203 0.904772 0.310458 -0.441987
C175  C     C_3   0.413889 0.406222 0.690825 -0.431007
C176  C     C_3   0.582759 0.407251 0.308137 -0.429705
H25   H     H_    0.434960 0.971245 0.163197 0.196051
H26   H     H_    0.432886 0.970766 0.836883 0.199726
H27   H     H_    0.355021 0.942963 0.136569 0.217272
H28   H     H_    0.353339 0.942167 0.863127 0.219483
H29   H     H_    0.141607 0.445322 0.139968 0.221829
H30   H     H_    0.941649 0.472311 0.835541 0.195759
H31   H     H_    0.058701 0.472163 0.164391 0.198502
H32   H     H_    0.858683 0.445607 0.859950 0.218947
H33   H     H_    0.146604 0.942133 0.636977 0.217768
H34   H     H_    0.145200 0.942745 0.363504 0.216984
H35   H     H_    0.066911 0.970737 0.663130 0.200295
H36   H     H_    0.065309 0.971133 0.336867 0.196063
H37   H     H_    0.440443 0.472188 0.664056 0.195663
H38   H     H_    0.638724 0.446777 0.359677 0.219433
H39   H     H_    0.358368 0.445061 0.638569 0.220309
H40   H     H_    0.554752 0.472878 0.335249 0.196781
H41   H     H_    0.436318 0.916121 0.220412 0.210200
H42   H     H_    0.434540 0.915752 0.779605 0.209840
H43   H     H_    0.356996 0.887534 0.193457 0.201304
H44   H     H_    0.355663 0.886805 0.806172 0.202927
H45   H     H_    0.139217 0.389922 0.196893 0.203710
H46   H     H_    0.943338 0.417256 0.778300 0.209597
H47   H     H_    0.056939 0.417130 0.221641 0.209540
H48   H     H_    0.860980 0.390193 0.803033 0.202569
H49   H     H_    0.144232 0.886781 0.693944 0.200169
H50   H     H_    0.143183 0.887328 0.306604 0.200789
H51   H     H_    0.065214 0.915739 0.720418 0.210944
H52   H     H_    0.063916 0.916025 0.279641 0.210242
H53   H     H_    0.441868 0.417049 0.721258 0.209183
H54   H     H_    0.636691 0.391306 0.302818 0.203902
H55   H     H_    0.360376 0.389614 0.695441 0.204601
H56   H     H_    0.553274 0.417735 0.278075 0.209442
O65   O     O_R   0.439370 0.954170 0.954170 -0.627863
O66   O     O_R   0.439370 0.954170 0.045830 -0.630802
O67   O     O_R   0.560630 0.954170 0.954170 -0.576803
O68   O     O_R   0.560630 0.954170 0.045830 -0.573384
O69   O     O_R   0.939370 0.454170 0.954170 -0.613395
O70   O     O_R   0.939370 0.454170 0.045830 -0.594098
O71   O     O_R   0.060630 0.454170 0.954170 -0.590343
O72   O     O_R   0.060630 0.454170 0.045830 -0.611024
O73   O     O_R   0.939370 0.954170 0.454170 -0.572045
O74   O     O_R   0.939370 0.954170 0.545830 -0.575083
O75   O     O_R   0.060630 0.954170 0.454170 -0.631741
O76   O     O_R   0.060630 0.954170 0.545830 -0.629409
O77   O     O_R   0.439370 0.454170 0.454170 -0.591430
O78   O     O_R   0.439370 0.454170 0.545830 -0.613131
O79   O     O_R   0.560630 0.454170 0.454170 -0.612869
O80   O     O_R   0.560630 0.454170 0.545830 -0.590535
C177  C     C_R   0.499966 0.939799 0.940076 0.963077
C178  C     C_R   0.500191 0.939824 0.059943 0.964607
C179  C     C_R   0.999954 0.439855 0.940053 0.970988
C180  C     C_R   0.000077 0.439844 0.059940 0.967829
C181  C     C_R   0.999840 0.939820 0.440060 0.963870
C182  C     C_R   0.000065 0.939797 0.559922 0.962712
C183  C     C_R   0.499854 0.439885 0.440032 0.971872
C184  C     C_R   0.500182 0.439848 0.559945 0.971680
O81   O     O_R   0.439410 0.545780 0.454170 -0.616270
O82   O     O_R   0.439410 0.545780 0.545830 -0.632412
O83   O     O_R   0.560590 0.545780 0.454170 -0.632070
O84   O     O_R   0.560590 0.545780 0.545830 -0.616493
O85   O     O_R   0.939410 0.045780 0.454170 -0.616878
O86   O     O_R   0.939410 0.045780 0.545830 -0.631926
O87   O     O_R   0.060590 0.045780 0.454170 -0.630088
O88   O     O_R   0.060590 0.045780 0.545830 -0.616171
O89   O     O_R   0.939410 0.545780 0.954170 -0.629114
O90   O     O_R   0.939410 0.545780 0.045830 -0.626018
O91   O     O_R   0.060590 0.545780 0.954170 -0.617702
O92   O     O_R   0.060590 0.545780 0.045830 -0.627727
O93   O     O_R   0.439410 0.045780 0.954170 -0.616200
O94   O     O_R   0.439410 0.045780 0.045830 -0.630173
O95   O     O_R   0.560590 0.045780 0.954170 -0.632134
O96   O     O_R   0.560590 0.045780 0.045830 -0.617065
C185  C     C_R   0.499752 0.560130 0.439775 0.870545
C186  C     C_R   0.500217 0.560133 0.560226 0.870136
C187  C     C_R   0.999753 0.060138 0.439789 0.872090
C188  C     C_R   0.000218 0.060141 0.560228 0.871423
C189  C     C_R   0.999999 0.560164 0.939842 0.875651
C190  C     C_R   0.999983 0.559736 0.060526 0.874508
C191  C     C_R   0.499751 0.060139 0.939769 0.871434
C192  C     C_R   0.500216 0.060141 0.060207 0.872202
Zn17  Zn    Zn3+2 0.419100 0.999980 0.000000 0.985074
Zn18  Zn    Zn3+2 0.580900 0.999980 0.000000 1.045266
Zn19  Zn    Zn3+2 0.919100 0.499980 0.000000 1.016092
Zn20  Zn    Zn3+2 0.080900 0.499980 0.000000 1.019859
Zn21  Zn    Zn3+2 0.919100 0.999980 0.500000 1.048964
Zn22  Zn    Zn3+2 0.080900 0.999980 0.500000 0.983311
Zn23  Zn    Zn3+2 0.419100 0.499980 0.500000 1.018155
Zn24  Zn    Zn3+2 0.580900 0.499980 0.500000 1.018824
H57   H     H_    0.363665 0.646046 0.451413 0.213905
H58   H     H_    0.539325 0.657064 0.534003 0.191737
H59   H     H_    0.461660 0.657173 0.466122 0.192200
H60   H     H_    0.637099 0.645540 0.548997 0.214794
H61   H     H_    0.864995 0.146687 0.452091 0.214957
H62   H     H_    0.041882 0.156789 0.534331 0.192204
H63   H     H_    0.963326 0.157356 0.466331 0.192114
H64   H     H_    0.139110 0.144549 0.550022 0.213803
H65   H     H_    0.031072 0.657986 0.967252 0.199757
H66   H     H_    0.119292 0.653305 0.041017 0.205817
H67   H     H_    0.130324 0.648507 0.954977 0.209903
H68   H     H_    0.149675 0.612755 0.083335 0.213119
H69   H     H_    0.360782 0.144634 0.949944 0.213678
H70   H     H_    0.536647 0.157356 0.033668 0.192204
H71   H     H_    0.458001 0.156790 0.965658 0.192199
H72   H     H_    0.634968 0.146571 0.047908 0.214677
F1    F     F_    0.354273 0.707323 0.396365 -0.654433
F2    F     F_    0.525559 0.720645 0.585936 -0.633231
F3    F     F_    0.475570 0.720711 0.414166 -0.632733
F4    F     F_    0.646586 0.706762 0.604090 -0.648809
F5    F     F_    0.855664 0.208004 0.397087 -0.650281
F6    F     F_    0.028391 0.220467 0.586181 -0.632220
F7    F     F_    0.977366 0.220821 0.414300 -0.632756
F8    F     F_    0.148751 0.205689 0.605196 -0.652030
F9    F     F_    0.016841 0.721205 0.914771 -0.637125
F10   F     F_    0.119225 0.717897 0.092279 -0.634017
F11   F     F_    0.139679 0.709905 0.900172 -0.650569
F12   F     F_    0.156835 0.668054 0.144646 -0.674373
F13   F     F_    0.351173 0.205794 0.894781 -0.652090
F14   F     F_    0.522662 0.220824 0.085715 -0.632754
F15   F     F_    0.471522 0.220469 0.913823 -0.632242
F16   F     F_    0.644351 0.207862 0.102928 -0.650569
F17   F     F_    0.584935 0.862718 0.050139 -0.592061
F18   F     F_    0.585488 0.862983 0.950094 -0.591612
F19   F     F_    0.920100 0.361377 0.047979 -0.626855
F20   F     F_    0.079770 0.361275 0.952061 -0.626450
F21   F     F_    0.914726 0.862993 0.549840 -0.586540
F22   F     F_    0.915003 0.862815 0.449825 -0.588650
F23   F     F_    0.581207 0.361591 0.548808 -0.627440
F24   F     F_    0.421873 0.360802 0.452175 -0.628048

loop_
_geom_bond_atom_site_label_1
_geom_bond_atom_site_label_2
_geom_bond_distance
_ccdc_geom_bond_type
O65   Zn17  2.019222 S    
C49   C105  1.493979 S    
O94   Zn17  2.016937 S    
C115  C155  1.339627 A    
O29   C21   1.277573 A    
C102  C110  1.517594 S    
O45   C21   1.277979 A    
C52   C92   1.374823 A    
C53   C93   1.374584 A    
C163  C171  1.541404 S    
O17   C9    1.277588 A    
C56   C96   1.374811 A    
C49   C89   1.374816 A    
C99   C107  1.517445 S    
C162  H28   1.111489 S    
C102  H68   1.112136 S    
C149  C182  1.415740 S    
C97   C105  1.517476 S    
C138  F18   1.357595 S    
C108  F6    1.384882 S    
C118  C126  1.382080 A    
O81   Zn23  2.019500 S    
O48   C24   1.278034 A    
C18   C42   1.398396 S    
C134  H22   1.083510 S    
O3    C3    1.279748 A    
C133  H21   1.083522 S    
O39   Zn11  1.994689 S    
C100  C108  1.517497 S    
O86   C188  1.271680 A    
C50   C106  1.493972 S    
O57   C25   1.275947 A    
C22   C46   1.398401 S    
C167  C175  1.541418 S    
C104  C112  1.517443 S    
C164  H32   1.111485 S    
C32   C128  1.420654 S    
O34   C10   1.277610 A    
C173  H49   1.111667 S    
O87   C187  1.271388 A    
O76   C182  1.268490 A    
C16   C40   1.398409 S    
C78   H14   1.083702 S    
C137  F17   1.357583 S    
C36   C41   1.184273 T    
O78   C184  1.267853 A    
Zn12  O60   2.018078 S    
O51   C27   1.278444 A    
O86   Zn21  2.016937 S    
C153  C161  1.488573 S    
C40   C45   1.184274 T    
C116  C124  1.382486 A    
C141  C149  1.409205 A    
O10   Zn10  2.018855 S    
C109  F11   1.383818 S    
C110  F12   1.385144 S    
C107  F5    1.383816 S    
O22   Zn4   1.997646 S    
C113  C153  1.339457 A    
O46   C22   1.277593 A    
O12   C4    1.276437 A    
O72   C180  1.267978 A    
O13   C5    1.276981 A    
O24   C16   1.277536 A    
Zn15  O63   2.018073 S    
O38   C14   1.277595 A    
C25   C121  1.419155 S    
C152  C160  1.380429 A    
C176  H56   1.111657 S    
C73   C81   1.401600 A    
C50   C58   1.390893 A    
C29   C125  1.418896 S    
C161  H27   1.111497 S    
O7    Zn7   2.018075 S    
C93   C101  1.494116 S    
O96   Zn18  2.019146 S    
C84   C188  1.427778 S    
C135  C143  1.401246 A    
C19   C43   1.398384 S    
O28   C20   1.277490 A    
Zn6   O54   2.018860 S    
C150  C158  1.380905 A    
C67   H3    1.083630 S    
C102  H66   1.111095 S    
O85   Zn21  2.019500 S    
O58   C26   1.275698 A    
C113  C121  1.382073 A    
Zn2   O50   2.018860 S    
O44   Zn14  1.997283 S    
C108  F8    1.383823 S    
O1    Zn1   2.018075 S    
O39   C15   1.277651 A    
C62   C70   1.401600 A    
C33   C44   1.184269 T    
C65   C73   1.392079 A    
O10   C2    1.276485 A    
C71   C79   1.391969 A    
C96   C104  1.494233 S    
C37   C48   1.184276 T    
O40   C16   1.278029 A    
O78   Zn23  2.016652 S    
C148  C179  1.414350 S    
O33   C9    1.277980 A    
C82   C90   1.393148 A    
C39   C46   1.184271 T    
C139  F19   1.357832 S    
C49   C57   1.390973 A    
C3    C59   1.424864 S    
C117  C157  1.339682 A    
O31   C23   1.277921 A    
C1    C57   1.424658 S    
C86   C94   1.390417 A    
O19   Zn1   1.997283 S    
C176  H54   1.111773 S    
C122  C130  1.408498 A    
O47   C23   1.277648 A    
C71   H7    1.083649 S    
C51   C91   1.374874 A    
O46   Zn16  1.994328 S    
C151  C184  1.414572 S    
O80   Zn24  2.019571 S    
C78   C86   1.402331 A    
O26   C18   1.277992 A    
O48   Zn16  1.997283 S    
O69   C179  1.267906 A    
O12   Zn12  2.018855 S    
O81   C185  1.267923 A    
C110  F10   1.383846 S    
C146  C177  1.415747 S    
C8    C64   1.424818 S    
O90   Zn19  2.016937 S    
C143  F23   1.357800 S    
C105  F1    1.383822 S    
O6    Zn6   2.018080 S    
C81   C185  1.427176 S    
C70   C78   1.391610 A    
O37   C13   1.277977 A    
C140  F20   1.357826 S    
O93   Zn17  2.019500 S    
O52   C28   1.278409 A    
C103  H69   1.111569 S    
C68   H4    1.083647 S    
C156  C164  1.488380 S    
O3    Zn3   2.018075 S    
C157  C165  1.488559 S    
O35   C11   1.277620 A    
C133  C141  1.400939 A    
C162  H26   1.111752 S    
C159  C167  1.488418 S    
C163  H31   1.111796 S    
C168  C176  1.541376 S    
O82   C186  1.271541 A    
C164  C172  1.541449 S    
O37   Zn11  1.996923 S    
C117  C125  1.381968 A    
Zn16  O64   2.018078 S    
C112  F14   1.384896 S    
O20   C12   1.277514 A    
O21   C13   1.277588 A    
O60   C28   1.275946 A    
O73   C181  1.266390 A    
C68   C76   1.391999 A    
O23   C15   1.277900 A    
C69   C77   1.392231 A    
O14   Zn14  2.018855 S    
O64   C32   1.276138 A    
C9    C33   1.398408 S    
C100  H62   1.111750 S    
O44   C20   1.278071 A    
C85   C189  1.425801 S    
C136  C144  1.401123 A    
O4    C4    1.279482 A    
C165  H33   1.111489 S    
C15   C39   1.398381 S    
O27   C19   1.277831 A    
C103  H71   1.111753 S    
C6    C62   1.427924 S    
C165  C173  1.541423 S    
O45   Zn15  1.996923 S    
O43   C19   1.277717 A    
O36   C12   1.278030 A    
C97   H59   1.111684 S    
C167  H39   1.111484 S    
C34   C43   1.184271 T    
C161  C169  1.541424 S    
O96   C192  1.267830 A    
C75   C83   1.401490 A    
O35   Zn9   1.994689 S    
C82   C186  1.427333 S    
C38   C47   1.184271 T    
O13   Zn13  2.018850 S    
C154  C162  1.488562 S    
C75   H11   1.083591 S    
C55   C111  1.493922 S    
C80   H16   1.083597 S    
C76   H12   1.083449 S    
C63   C71   1.402410 A    
O32   C24   1.277515 A    
O89   C189  1.271491 A    
C90   C98   1.494269 S    
C167  H37   1.111782 S    
C104  H70   1.111763 S    
C134  C142  1.401088 A    
O24   Zn4   1.994684 S    
C105  F3    1.384902 S    
C175  H55   1.111660 S    
C152  C183  1.413937 S    
C106  F4    1.383832 S    
C115  C123  1.382353 A    
C61   C69   1.403303 A    
O1    C1    1.279733 A    
C130  H18   1.083510 S    
O84   C186  1.267934 A    
O82   Zn23  2.016937 S    
O14   C6    1.280527 A    
C64   C72   1.402894 A    
C12   C36   1.398386 S    
C67   C75   1.392036 A    
O77   Zn23  2.019222 S    
O25   Zn5   1.995048 S    
C97   H57   1.111573 S    
C58   C66   1.402775 A    
O7    C7    1.279501 A    
O68   C178  1.266405 A    
O8    C8    1.279730 A    
C119  C159  1.339422 A    
C79   H15   1.083443 S    
O17   Zn1   1.995049 S    
O47   Zn15  1.994689 S    
C169  H41   1.111521 S    
C74   C82   1.401670 A    
C51   C59   1.391090 A    
C120  C160  1.339431 A    
O94   C192  1.271432 A    
O55   C31   1.278206 A    
C126  C134  1.408652 A    
C99   H63   1.111754 S    
C10   C34   1.398402 S    
O83   Zn24  2.016575 S    
C86   C190  1.423380 S    
C111  F15   1.384885 S    
O53   C29   1.277980 A    
C112  F16   1.383820 S    
Zn14  O62   2.018078 S    
O30   C22   1.277972 A    
Zn10  O58   2.018078 S    
C101  C109  1.517422 S    
O20   Zn2   1.994684 S    
O79   C183  1.267646 A    
Zn13  O61   2.018073 S    
O87   Zn22  2.016575 S    
C100  H64   1.111567 S    
C66   C74   1.392112 A    
O11   C3    1.276611 A    
O84   Zn24  2.019146 S    
C57   C65   1.402820 A    
C104  H72   1.111565 S    
C165  H35   1.111751 S    
O36   Zn10  1.997283 S    
C166  H36   1.111784 S    
C54   C110  1.494209 S    
C83   C91   1.392977 A    
C150  C181  1.415493 S    
O61   C29   1.275684 A    
O6    C6    1.277204 A    
C81   C89   1.393079 A    
C124  C132  1.409275 A    
O63   C31   1.276038 A    
O65   C177  1.268463 A    
C2    C58   1.424470 S    
C11   C35   1.398391 S    
O90   C190  1.266849 A    
C92   C100  1.494298 S    
C84   C92   1.393269 A    
C147  C155  1.380558 A    
C85   C93   1.392596 A    
C148  C156  1.380535 A    
C52   C60   1.390819 A    
O34   Zn10  1.994328 S    
C88   C96   1.392996 A    
O72   Zn20  2.019571 S    
C17   C41   1.398409 S    
C51   C107  1.494036 S    
O67   C177  1.266312 A    
C76   C84   1.401769 A    
O92   C190  1.270790 A    
C164  H30   1.111795 S    
C21   C45   1.398387 S    
C160  C168  1.488423 S    
Zn11  O59   2.018073 S    
C23   C47   1.398400 S    
C98   H60   1.111574 S    
O91   C189  1.267194 A    
C72   C80   1.392060 A    
C127  C135  1.409225 A    
C175  H53   1.111514 S    
C106  F2    1.384898 S    
O80   C184  1.266325 A    
C117  C173  1.489211 S    
C7    C63   1.424067 S    
O67   Zn18  2.017017 S    
C52   C108  1.493929 S    
C13   C37   1.398406 S    
C138  C146  1.409201 A    
C87   C191  1.427793 S    
O50   C26   1.277952 A    
C89   C97   1.494245 S    
C56   C112  1.494046 S    
C142  C150  1.409100 A    
O11   Zn11  2.018850 S    
O27   Zn5   1.997282 S    
C87   C95   1.393261 A    
O5    C5    1.279706 A    
O31   Zn7   1.997282 S    
C169  H43   1.111686 S    
Zn7   O55   2.018852 S    
C170  H44   1.111669 S    
C158  C166  1.488571 S    
O56   C32   1.278417 A    
O23   Zn3   1.997283 S    
C74   H10   1.083590 S    
O33   Zn9   1.996923 S    
O79   Zn24  2.017017 S    
C144  C152  1.408266 A    
C137  C145  1.409064 A    
O76   Zn22  2.019571 S    
O18   C10   1.277960 A    
C55   C95   1.374886 A    
C111  F13   1.383823 S    
C147  C180  1.414481 S    
C168  H40   1.111920 S    
C116  C156  1.339643 A    
C26   C122  1.418880 S    
O22   C14   1.277956 A    
O62   C30   1.275916 A    
C30   C126  1.419110 S    
C173  H51   1.111512 S    
C88   C192  1.426915 S    
C174  H52   1.111513 S    
C141  F21   1.357592 S    
C70   H6    1.083452 S    
C118  C158  1.339479 A    
C145  C153  1.380877 A    
C166  H34   1.111485 S    
C114  C154  1.339653 A    
O59   C27   1.275855 A    
C53   C61   1.391298 A    
C101  H65   1.112509 S    
C129  H17   1.083498 S    
C166  C174  1.541431 S    
C139  C147  1.408501 A    
C170  H42   1.111513 S    
Zn1   O49   2.018852 S    
C56   C64   1.391060 A    
C99   H61   1.111568 S    
O71   C179  1.266161 A    
C162  C170  1.541419 S    
Zn5   O53   2.018852 S    
Zn9   O57   2.018073 S    
O54   C30   1.277856 A    
O38   Zn12  1.994328 S    
O69   Zn19  2.019222 S    
C14   C38   1.398381 S    
C144  F24   1.357908 S    
C28   C124  1.420278 S    
C125  C133  1.408496 A    
O16   Zn16  2.018855 S    
O19   C11   1.277937 A    
O43   Zn13  1.994689 S    
C98   H58   1.111682 S    
C123  C131  1.409254 A    
O71   Zn20  2.017017 S    
C69   H5    1.083601 S    
C172  H46   1.111532 S    
C143  C151  1.408574 A    
C72   H8    1.083633 S    
O2    C2    1.279672 A    
O75   C181  1.268266 A    
C149  C157  1.380991 A    
C142  F22   1.357584 S    
C60   C68   1.402437 A    
O93   C191  1.268070 A    
C120  C128  1.382614 A    
O25   C17   1.277659 A    
O73   Zn21  2.019222 S    
O29   Zn7   1.995048 S    
C59   C67   1.402870 A    
O41   C17   1.277916 A    
C24   C48   1.398389 S    
C115  C171  1.489430 S    
C95   C103  1.494294 S    
C145  C178  1.415448 S    
C128  C136  1.409606 A    
C131  C139  1.401040 A    
C171  H47   1.111541 S    
C54   C62   1.393752 A    
C77   H13   1.083606 S    
C136  H24   1.083489 S    
C130  C138  1.400972 A    
C135  H23   1.083466 S    
C129  C137  1.401136 A    
C114  C170  1.489209 S    
O92   Zn20  2.019146 S    
C79   C87   1.401768 A    
C80   C88   1.401496 A    
C132  C140  1.401036 A    
O32   Zn8   1.994684 S    
Zn8   O56   2.018860 S    
O2    Zn2   2.018080 S    
C94   C102  1.493769 S    
C171  H45   1.111674 S    
C174  H50   1.111669 S    
O88   Zn22  2.019146 S    
O15   C7    1.276434 A    
O16   C8    1.276607 A    
C35   C42   1.184272 T    
C119  C175  1.489521 S    
C120  C176  1.489746 S    
O70   C180  1.266155 A    
O95   C191  1.271640 A    
C73   H9    1.083590 S    
C116  C172  1.489532 S    
O74   C182  1.266277 A    
C132  H20   1.083476 S    
C101  H67   1.111550 S    
O41   Zn13  1.996923 S    
C31   C127  1.420048 S    
O70   Zn19  2.016652 S    
O40   Zn12  1.997283 S    
C66   H2    1.083637 S    
O85   C187  1.267869 A    
O95   Zn18  2.016575 S    
O75   Zn22  2.017017 S    
O89   Zn19  2.019500 S    
C103  C111  1.517511 S    
C161  H25   1.111794 S    
O42   C18   1.277560 A    
C163  H29   1.111507 S    
O88   C188  1.268026 A    
C53   C109  1.494377 S    
Zn4   O52   2.018860 S    
C20   C44   1.398378 S    
O9    C1    1.276520 A    
C113  C169  1.489405 S    
C118  C174  1.489383 S    
C83   C187  1.426922 S    
C27   C123  1.420156 S    
O77   C183  1.266220 A    
O49   C25   1.277854 A    
C4    C60   1.424036 S    
O68   Zn18  2.019571 S    
O66   C178  1.268223 A    
O15   Zn15  2.018850 S    
C140  C148  1.408444 A    
C91   C99   1.494225 S    
O91   Zn20  2.016575 S    
C151  C159  1.380566 A    
C119  C127  1.382315 A    
C50   C90   1.374740 A    
O21   Zn3   1.995049 S    
Zn3   O51   2.018852 S    
C131  H19   1.083483 S    
C114  C122  1.381946 A    
O66   Zn17  2.016652 S    
C77   C85   1.401054 A    
C54   C94   1.375178 A    
C65   H1    1.083633 S    
O28   Zn6   1.994684 S    
O26   Zn6   1.997646 S    
C121  C129  1.408685 A    
O30   Zn8   1.997646 S    
C155  C163  1.488367 S    
C55   C63   1.390855 A    
O18   Zn2   1.997646 S    
C109  F9    1.384882 S    
O74   Zn21  2.016652 S    
C107  F7    1.384900 S    
O4    Zn4   2.018080 S    
O42   Zn14  1.994328 S    
C172  H48   1.111665 S    
C98   C106  1.517484 S    
C5    C61   1.425474 S    
O83   C185  1.271470 A    
C168  H38   1.111604 S    
O8    Zn8   2.018080 S    
O5    Zn5   2.018075 S    
C146  C154  1.380994 A    
O9    Zn9   2.018850 S    
