data_mof_unit_33914.cif
_audit_creation_date              2012-12-10T17:20:23-0500
_audit_creation_method            fapswitch 2.2
_symmetry_space_group_name_H-M    P1
_symmetry_Int_Tables_number       1
_space_group_crystal_system       triclinic
_cell_length_a                    11.6998
_cell_length_b                    10.781784
_cell_length_c                    9.614665
_cell_angle_alpha                 89.996311
_cell_angle_beta                  89.940712
_cell_angle_gamma                 92.624169
_cell_volume                      1211.56668463

loop_
_atom_site_label
_atom_site_type_symbol
_atom_type_description
_atom_site_fract_x
_atom_site_fract_y
_atom_site_fract_z
_atom_type_partial_charge
C1    C     C_R   0.495986 0.262593 0.500061 0.787148
C2    C     C_R   0.229823 0.050864 0.719396 -0.141767
C3    C     C_R   0.229971 0.921903 0.719531 -0.136529
C4    C     C_R   0.314770 0.861282 0.647903 -0.169708
C5    C     C_R   0.402674 0.929465 0.576195 0.098785
C6    C     C_R   0.402493 0.060689 0.576081 0.096633
C7    C     C_R   0.488227 0.128370 0.500061 -0.099902
C8    C     C_R   0.568618 0.067475 0.421122 -0.193253
C9    C     C_R   0.568810 0.939523 0.421201 -0.212084
C10   C     C_R   0.488576 0.870476 0.500180 -0.089211
C11   C     C_R   0.651855 0.665145 0.143273 -0.198966
C12   C     C_R   0.284162 0.499711 0.500073 0.799547
C13   C     C_R   0.726467 0.746062 0.071639 -0.202689
C14   C     C_R   0.727643 0.747066 0.926922 0.162407
C15   C     C_R   0.651950 0.665453 0.856248 -0.210459
C16   C     C_R   0.574556 0.581440 0.925330 0.188360
C17   C     C_R   0.574537 0.581312 0.074524 0.215039
C18   C     C_R   0.429096 0.422503 0.073919 -0.052776
C19   C     C_R   0.429123 0.422531 0.926134 -0.050324
C20   C     C_R   0.496555 0.737075 0.500050 0.760752
C21   C     C_R   0.715839 0.500481 0.499961 0.802621
C22   C     C_1   0.162444 0.500266 0.500251 -0.187166
C23   C     C_1   0.059944 0.500722 0.500270 -0.002408
C24   C     C_1   0.940113 0.500997 0.500120 -0.004872
C25   C     C_1   0.837591 0.500899 0.499962 -0.187237
C26   C     C_R   0.314428 0.120031 0.647584 -0.184785
Cu1   Cu    Cu3+1 0.499990 0.499990 0.640660 0.929353
Cu2   Cu    Cu3+1 0.500010 0.500010 0.359340 0.940090
H1    H     H_    0.633286 0.119531 0.361575 0.152962
H2    H     H_    0.657780 0.671602 0.746520 0.197909
H3    H     H_    0.370999 0.358935 0.871158 0.132882
H4    H     H_    0.308356 0.219741 0.646587 0.137679
H5    H     H_    0.162935 0.097510 0.773587 0.132672
H6    H     H_    0.163171 0.868514 0.773803 0.140512
H7    H     H_    0.308959 0.761011 0.647318 0.154550
H8    H     H_    0.633645 0.894115 0.361740 0.137037
H9    H     H_    0.370952 0.358889 0.129000 0.138722
H10   H     H_    0.659025 0.672471 0.252908 0.200640
H11   H     H_    0.783081 0.807472 0.131526 0.155691
N1    N     N_R   0.501070 0.501210 0.147910 -0.192921
N2    N     N_R   0.501110 0.501290 0.852040 -0.190525
O1    O     O_R   0.499990 0.319640 0.618810 -0.576333
O2    O     O_R   0.500000 0.319660 0.381240 -0.574071
O3    O     O_R   0.337190 0.500000 0.618790 -0.585865
O4    O     O_R   0.337200 0.500030 0.381210 -0.565957
O5    O     O_R   0.500000 0.680340 0.618760 -0.602779
O6    O     O_R   0.500010 0.680360 0.381190 -0.587039
O7    O     O_R   0.662800 0.499970 0.618790 -0.585063
O8    O     O_R   0.662810 0.500000 0.381210 -0.587280
C27   C     C_3   0.807305 0.832433 0.841426 -0.390821
C28   C     C_3   0.890391 0.917223 0.924520 -0.844364
H12   H     H_    0.842714 0.981236 0.991257 0.253256
H13   H     H_    0.947315 0.861256 0.989354 0.250171
H14   H     H_    0.944688 0.974009 0.851583 0.238666
H15   H     H_    0.858561 0.774444 0.771461 0.197985
H16   H     H_    0.754553 0.891686 0.774788 0.205081

loop_
_geom_bond_atom_site_label_1
_geom_bond_atom_site_label_2
_ccdc_geom_bond_type
Cu1   O7    S    
C9    H8    S    
C23   C24   S    
Cu2   O6    S    
C26   H4    S    
C6    C7    A    
C12   O4    A    
C11   H10   S    
Cu2   O8    S    
Cu1   N2    S    
Cu2   O2    S    
C27   H15   S    
C21   O7    A    
C19   H3    S    
C28   H14   S    
C21   O8    A    
C2    C3    A    
C4    H7    S    
C19   N2    A    
C5    C10   A    
C2    C26   A    
C14   C27   S    
C13   C14   A    
C11   C13   A    
Cu1   O1    S    
C6    C26   A    
C8    H1    S    
Cu1   O3    S    
Cu1   O5    S    
C18   H9    S    
C27   C28   S    
C22   C23   T    
C5    C6    A    
C20   O5    A    
Cu2   O4    S    
C13   H11   S    
C20   O6    A    
C16   C17   A    
Cu2   N1    S    
C15   C16   A    
C12   C22   S    
C1    O1    A    
C7    C8    A    
C24   C25   T    
C2    H5    S    
C15   H2    S    
C12   O3    A    
C18   C19   A    
C9    C10   A    
Cu1   Cu2   S    
C21   C25   S    
C14   C15   A    
C4    C5    A    
C18   N1    A    
C3    H6    S    
C1    C7    S    
C16   N2    A    
C1    O2    A    
C27   H16   S    
C3    C4    A    
C28   H12   S    
C10   C20   S    
C8    C9    A    
C28   H13   S    
C17   N1    A    
C11   C17   A    
