data_mof_unit_44652.cif
_audit_creation_date              2012-12-10T17:19:42-0500
_audit_creation_method            fapswitch 2.2
_symmetry_space_group_name_H-M    P1
_symmetry_Int_Tables_number       1
_space_group_crystal_system       triclinic
_cell_length_a                    21.730796
_cell_length_b                    21.728004
_cell_length_c                    23.438182
_cell_angle_alpha                 90.018238
_cell_angle_beta                  90.012348
_cell_angle_gamma                 90.005497
_cell_volume                      11066.7310494

loop_
_atom_site_label
_atom_site_type_symbol
_atom_type_description
_atom_site_fract_x
_atom_site_fract_y
_atom_site_fract_z
_atom_type_partial_charge
C1    C     C_R   0.380038 0.999995 0.500002 0.870558
C2    C     C_R   0.999993 0.380057 0.499950 0.860529
C3    C     C_R   0.619964 0.000008 0.500039 0.871929
C4    C     C_R   0.000003 0.619942 0.499974 0.867304
C5    C     C_R   0.880058 0.499997 0.999998 0.864479
C6    C     C_R   0.499992 0.880033 0.999932 0.869287
C7    C     C_R   0.119943 0.500007 0.000053 0.858334
C8    C     C_R   0.500004 0.119966 0.000030 0.876264
C9    C     C_R   0.281240 0.004558 0.448205 -0.082411
C10   C     C_R   0.991515 0.281249 0.448536 -0.033229
C11   C     C_R   0.718729 0.995349 0.448235 -0.081707
C12   C     C_R   0.008277 0.718689 0.448545 -0.079281
C13   C     C_R   0.718785 0.004778 0.551834 -0.033369
C14   C     C_R   0.008399 0.281326 0.551373 -0.081250
C15   C     C_R   0.281259 0.995447 0.551811 -0.034763
C16   C     C_R   0.991758 0.718711 0.551406 -0.077665
C17   C     C_R   0.781278 0.509886 0.948821 -0.078895
C18   C     C_R   0.496497 0.781168 0.948082 -0.034539
C19   C     C_R   0.218675 0.490384 0.948805 -0.081052
C20   C     C_R   0.503365 0.218715 0.948123 -0.079897
C21   C     C_R   0.218744 0.509712 0.051282 -0.032475
C22   C     C_R   0.503396 0.781280 0.051832 -0.079711
C23   C     C_R   0.781315 0.490057 0.051190 -0.078919
C24   C     C_R   0.496751 0.218813 0.051865 -0.079151
C25   C     C_R   0.187199 0.000053 0.500008 -0.037631
C26   C     C_R   0.000008 0.187288 0.499999 -0.033731
C27   C     C_R   0.812800 0.000008 0.500000 -0.037764
C28   C     C_R   0.000009 0.812710 0.499985 -0.044115
C29   C     C_R   0.687321 0.499974 0.000017 -0.041825
C30   C     C_R   0.499970 0.687167 0.000030 -0.036050
C31   C     C_R   0.312686 0.499998 0.999998 -0.032545
C32   C     C_R   0.500043 0.312831 0.999948 -0.042133
C33   C     C_R   0.314071 0.999970 0.500006 -0.067706
C34   C     C_R   0.999958 0.314132 0.499947 -0.064478
C35   C     C_R   0.685932 0.000050 0.500042 -0.066329
C36   C     C_R   0.000010 0.685864 0.499972 -0.085018
C37   C     C_R   0.814150 0.499986 0.000004 -0.083863
C38   C     C_R   0.499952 0.814049 0.999939 -0.061314
C39   C     C_R   0.185856 0.500045 0.000053 -0.064772
C40   C     C_R   0.500019 0.185945 0.000009 -0.081694
C41   C     C_R   0.000017 0.120739 0.500005 1.004808
C42   C     C_R   0.879295 0.999988 0.499996 1.002747
C43   C     C_R   0.000002 0.879260 0.499993 1.008504
C44   C     C_R   0.120705 0.000041 0.500005 1.004653
C45   C     C_R   0.499978 0.620691 0.000013 1.001546
C46   C     C_R   0.379251 0.499986 0.999995 1.004664
C47   C     C_R   0.499991 0.379307 0.999984 1.007573
C48   C     C_R   0.620752 0.499997 0.000006 1.011396
C49   C     C_R   0.500008 0.999990 0.390746 0.894160
C50   C     C_R   0.999995 0.500012 0.390744 0.880504
C51   C     C_R   0.500008 0.000011 0.609253 0.895023
C52   C     C_R   0.000007 0.499985 0.609255 0.880360
C53   C     C_R   0.999992 0.499992 0.890742 0.876912
C54   C     C_R   0.499996 0.000037 0.890749 0.891230
C55   C     C_R   0.999968 0.500006 0.109258 0.876799
C56   C     C_R   0.500008 0.999975 0.109252 0.892185
C57   C     C_1   0.500023 0.999966 0.330492 -0.045929
C58   C     C_1   0.999981 0.500025 0.330499 -0.051579
C59   C     C_1   0.500008 0.000045 0.669509 -0.042935
C60   C     C_1   0.000021 0.499970 0.669501 -0.054777
C61   C     C_1   0.999999 0.499975 0.830502 -0.060233
C62   C     C_1   0.499992 0.000082 0.830485 -0.039178
C63   C     C_1   0.999950 0.500017 0.169499 -0.057297
C64   C     C_1   0.500027 0.999946 0.169514 -0.039744
C65   C     C_1   0.500032 0.999948 0.279646 0.077927
C66   C     C_1   0.999966 0.500028 0.279647 0.073208
C67   C     C_1   0.500001 0.000075 0.720355 0.069706
C68   C     C_1   0.000021 0.499964 0.720352 0.073310
C69   C     C_1   0.000010 0.499967 0.779650 0.071593
C70   C     C_1   0.499994 0.000093 0.779639 0.071047
C71   C     C_1   0.999951 0.500024 0.220350 0.071404
C72   C     C_1   0.500034 0.999938 0.220361 0.078808
C73   C     C_R   0.305304 0.024698 0.395563 0.264281
C74   C     C_R   0.968084 0.305294 0.397014 0.325749
C75   C     C_R   0.694628 0.975124 0.395615 0.262920
C76   C     C_R   0.031918 0.694694 0.397088 0.273315
C77   C     C_R   0.694643 0.024689 0.604534 0.320390
C78   C     C_R   0.032229 0.305326 0.602765 0.268945
C79   C     C_R   0.305482 0.975797 0.604557 0.321876
C80   C     C_R   0.968260 0.694684 0.602890 0.271611
C81   C     C_R   0.805152 0.535137 0.897976 0.271961
C82   C     C_R   0.477772 0.805269 0.895011 0.318428
C83   C     C_R   0.194746 0.465327 0.897878 0.266788
C84   C     C_R   0.522332 0.194566 0.895143 0.247487
C85   C     C_R   0.194762 0.534356 0.102357 0.324597
C86   C     C_R   0.522519 0.805400 0.104787 0.241600
C87   C     C_R   0.805222 0.464770 0.102014 0.271326
C88   C     C_R   0.477862 0.194788 0.104906 0.247520
C89   C     C_R   0.280289 0.000299 0.345488 -0.221858
C90   C     C_R   0.989123 0.280167 0.345706 -0.244667
C91   C     C_R   0.719599 0.999456 0.345516 -0.220907
C92   C     C_R   0.011026 0.719834 0.345741 -0.223558
C93   C     C_R   0.719606 0.000128 0.654547 -0.242409
C94   C     C_R   0.011508 0.280191 0.654170 -0.219231
C95   C     C_R   0.280745 0.000794 0.654479 -0.263931
C96   C     C_R   0.989350 0.719753 0.654210 -0.221918
C97   C     C_R   0.779864 0.515885 0.846121 -0.223758
C98   C     C_R   0.503471 0.780263 0.845495 -0.242359
C99   C     C_R   0.219961 0.484795 0.846087 -0.220798
C100  C     C_R   0.496674 0.219395 0.845542 -0.205327
C101  C     C_R   0.219968 0.514556 0.154052 -0.245277
C102  C     C_R   0.497015 0.780526 0.154431 -0.191666
C103  C     C_R   0.779974 0.483980 0.153885 -0.224497
C104  C     C_R   0.503559 0.219775 0.154446 -0.195080
C105  C     C_R   0.229218 0.961122 0.347505 0.299563
C106  C     C_R   0.028574 0.229296 0.345573 0.298338
C107  C     C_R   0.770658 0.038656 0.347490 0.298798
C108  C     C_R   0.971544 0.770689 0.345548 0.298391
C109  C     C_R   0.770676 0.960971 0.652451 0.301826
C110  C     C_R   0.972009 0.229340 0.654470 0.295818
C111  C     C_R   0.229918 0.040240 0.652220 0.293931
C112  C     C_R   0.028876 0.770579 0.654354 0.298036
C113  C     C_R   0.729131 0.476259 0.844930 0.296182
C114  C     C_R   0.542526 0.729140 0.848388 0.305336
C115  C     C_R   0.270722 0.524389 0.845025 0.297679
C116  C     C_R   0.457436 0.270376 0.848329 0.351805
C117  C     C_R   0.270749 0.475004 0.154930 0.295964
C118  C     C_R   0.457770 0.729536 0.151708 0.349774
C119  C     C_R   0.729243 0.523597 0.155111 0.295712
C120  C     C_R   0.542814 0.270744 0.151538 0.352052
C121  C     C_R   0.197865 0.952972 0.400061 -0.133950
C122  C     C_R   0.040658 0.198315 0.397655 -0.147405
C123  C     C_R   0.802047 0.046901 0.400033 -0.140973
C124  C     C_R   0.959335 0.801660 0.397627 -0.140825
C125  C     C_R   0.802065 0.952952 0.599898 -0.142462
C126  C     C_R   0.959603 0.198371 0.602423 -0.146620
C127  C     C_R   0.198135 0.047626 0.599775 -0.137490
C128  C     C_R   0.040842 0.801660 0.602299 -0.149303
C129  C     C_R   0.698443 0.462169 0.896723 -0.143868
C130  C     C_R   0.549234 0.697735 0.901090 -0.140136
C131  C     C_R   0.301515 0.538209 0.896850 -0.148340
C132  C     C_R   0.450814 0.302076 0.900913 -0.151468
C133  C     C_R   0.301550 0.461510 0.103054 -0.150655
C134  C     C_R   0.450954 0.697896 0.099114 -0.159009
C135  C     C_R   0.698514 0.537715 0.103334 -0.143681
C136  C     C_R   0.549441 0.302255 0.098881 -0.152969
C137  C     C_R   0.220536 0.984386 0.449469 0.020681
C138  C     C_R   0.012166 0.220692 0.448659 -0.013385
C139  C     C_R   0.779425 0.015544 0.449458 0.021214
C140  C     C_R   0.987720 0.779268 0.448669 0.000563
C141  C     C_R   0.779456 0.984494 0.550558 -0.013332
C142  C     C_R   0.987846 0.220746 0.551319 0.021182
C143  C     C_R   0.220592 0.015769 0.550519 -0.011695
C144  C     C_R   0.012324 0.779291 0.551290 0.000719
C145  C     C_R   0.720761 0.489185 0.948428 0.000324
C146  C     C_R   0.516644 0.720463 0.949784 -0.014474
C147  C     C_R   0.279212 0.511031 0.948468 0.020981
C148  C     C_R   0.483292 0.279451 0.949728 -0.001798
C149  C     C_R   0.279257 0.488965 0.051545 -0.012683
C150  C     C_R   0.483312 0.720545 0.050257 0.019219
C151  C     C_R   0.720795 0.510741 0.051606 0.001013
C152  C     C_R   0.516859 0.279530 0.050161 -0.002956
H1    H     H_    0.299467 0.986990 0.695326 0.226388
H2    H     H_    0.028605 0.298790 0.693976 0.214424
H3    H     H_    0.700801 0.014087 0.695302 0.215866
H4    H     H_    0.972544 0.701112 0.694089 0.214273
H5    H     H_    0.700822 0.985280 0.304806 0.213276
H6    H     H_    0.972317 0.298806 0.305821 0.217110
H7    H     H_    0.299040 0.014405 0.304763 0.213631
H8    H     H_    0.027975 0.701235 0.305888 0.214281
H9    H     H_    0.798449 0.465693 0.193271 0.215102
H10   H     H_    0.510332 0.799219 0.195438 0.237494
H11   H     H_    0.201415 0.532346 0.193606 0.217745
H12   H     H_    0.490406 0.201170 0.195517 0.237780
H13   H     H_    0.201454 0.466705 0.806625 0.215243
H14   H     H_    0.490450 0.799039 0.804466 0.214017
H15   H     H_    0.798314 0.534145 0.806720 0.216151
H16   H     H_    0.509855 0.200671 0.804516 0.236748
O1    O     O_R   0.408370 0.051730 0.500010 -0.567328
O2    O     O_R   0.948270 0.408370 0.500010 -0.565433
O3    O     O_R   0.591630 0.948270 0.500010 -0.563932
O4    O     O_R   0.051730 0.591630 0.500010 -0.558052
O5    O     O_R   0.591630 0.051730 0.499990 -0.568039
O6    O     O_R   0.051730 0.408370 0.499990 -0.560936
O7    O     O_R   0.408370 0.948270 0.499990 -0.567284
O8    O     O_R   0.948270 0.591630 0.499990 -0.558734
O9    O     O_R   0.908370 0.551730 0.000010 -0.557452
O10   O     O_R   0.448270 0.908370 0.000010 -0.568101
O11   O     O_R   0.091630 0.448270 0.000010 -0.559811
O12   O     O_R   0.551730 0.091630 0.000010 -0.561886
O13   O     O_R   0.091630 0.551730 0.999990 -0.564989
O14   O     O_R   0.551730 0.908370 0.999990 -0.565306
O15   O     O_R   0.908370 0.448270 0.999990 -0.556707
O16   O     O_R   0.448270 0.091630 0.999990 -0.563760
O17   O     O_R   0.499980 0.051730 0.417240 -0.573170
O18   O     O_R   0.948270 0.499980 0.417240 -0.574875
O19   O     O_R   0.500020 0.948270 0.417240 -0.573248
O20   O     O_R   0.051730 0.500020 0.417240 -0.570258
O21   O     O_R   0.500020 0.051730 0.582760 -0.582698
O22   O     O_R   0.051730 0.499980 0.582760 -0.569498
O23   O     O_R   0.499980 0.948270 0.582760 -0.577972
O24   O     O_R   0.948270 0.500020 0.582760 -0.571348
O25   O     O_R   0.999980 0.551730 0.917240 -0.571858
O26   O     O_R   0.448270 0.999980 0.917240 -0.582385
O27   O     O_R   0.000020 0.448270 0.917240 -0.568648
O28   O     O_R   0.551730 0.000020 0.917240 -0.572021
O29   O     O_R   0.000020 0.551730 0.082760 -0.574004
O30   O     O_R   0.551730 0.999980 0.082760 -0.572627
O31   O     O_R   0.999980 0.448270 0.082760 -0.570164
O32   O     O_R   0.448270 0.000020 0.082760 -0.574062
O33   O     O_R   0.999980 0.091600 0.546760 -0.652610
O34   O     O_R   0.908400 0.999980 0.546760 -0.644144
O35   O     O_R   0.000020 0.908400 0.546760 -0.649587
O36   O     O_R   0.091600 0.000020 0.546760 -0.643845
O37   O     O_R   0.000020 0.091600 0.453240 -0.646886
O38   O     O_R   0.091600 0.999980 0.453240 -0.649049
O39   O     O_R   0.999980 0.908400 0.453240 -0.648499
O40   O     O_R   0.908400 0.000020 0.453240 -0.649485
O41   O     O_R   0.499980 0.591600 0.046760 -0.648286
O42   O     O_R   0.408400 0.499980 0.046760 -0.648113
O43   O     O_R   0.500020 0.408400 0.046760 -0.644894
O44   O     O_R   0.591600 0.500020 0.046760 -0.649360
O45   O     O_R   0.500020 0.591600 0.953240 -0.643204
O46   O     O_R   0.591600 0.499980 0.953240 -0.649345
O47   O     O_R   0.499980 0.408400 0.953240 -0.644361
O48   O     O_R   0.408400 0.500020 0.953240 -0.653147
Zn1   Zn    Zn3+2 0.500000 0.069080 0.500000 1.169078
Zn2   Zn    Zn3+2 0.930920 0.500000 0.500000 1.191705
Zn3   Zn    Zn3+2 0.500000 0.930920 0.500000 1.176160
Zn4   Zn    Zn3+2 0.069080 0.500000 0.500000 1.223309
Zn5   Zn    Zn3+2 0.000000 0.569080 0.000000 1.194235
Zn6   Zn    Zn3+2 0.430920 0.000000 0.000000 1.180576
Zn7   Zn    Zn3+2 0.000000 0.430920 0.000000 1.228996
Zn8   Zn    Zn3+2 0.569080 0.000000 0.000000 1.212331
Zn9   Zn    Zn3+2 0.000000 1.000000 0.562420 1.030463
Zn10  Zn    Zn3+2 0.000000 0.000000 0.437580 1.029800
Zn11  Zn    Zn3+2 0.500000 0.500000 0.062420 1.031572
Zn12  Zn    Zn3+2 0.500000 0.500000 0.937580 1.031363
S1    S     S_3+6 0.336325 0.099708 0.389490 0.093426
O49   O     O_2   0.400326 0.096821 0.365931 -0.252352
O50   O     O_2   0.297457 0.136007 0.348444 -0.202542
O51   O     O_3   0.336605 0.136742 0.452508 -0.475242
H17   H     H_    0.292668 0.140524 0.463236 0.376531
S2    S     S_3+6 0.893220 0.337154 0.394844 0.076158
O52   O     O_2   0.895630 0.401634 0.372286 -0.297364
O53   O     O_2   0.854544 0.299109 0.354993 -0.212454
O54   O     O_3   0.860062 0.335966 0.459664 -0.489630
H18   H     H_    0.819487 0.355880 0.454227 0.399050
S3    S     S_3+6 0.663624 0.900096 0.389603 0.094179
O55   O     O_2   0.599603 0.902928 0.366062 -0.252485
O56   O     O_2   0.702470 0.863746 0.348572 -0.202666
O57   O     O_3   0.663408 0.863160 0.452649 -0.470437
H19   H     H_    0.707355 0.859409 0.463366 0.377963
S4    S     S_3+6 0.106914 0.663047 0.395164 0.089248
O58   O     O_2   0.104717 0.598440 0.372921 -0.252454
O59   O     O_2   0.145774 0.700550 0.355059 -0.214736
O60   O     O_3   0.140373 0.664188 0.459874 -0.469125
H20   H     H_    0.143346 0.708353 0.470044 0.381057
S5    S     S_3+6 0.663451 0.099565 0.610865 0.081656
O61   O     O_2   0.599581 0.096477 0.634756 -0.299571
O62   O     O_2   0.702873 0.135694 0.651605 -0.200106
O63   O     O_3   0.663238 0.136280 0.547720 -0.494322
H21   H     H_    0.643827 0.176650 0.555539 0.400539
S6    S     S_3+6 0.107251 0.336943 0.604489 0.087734
O64   O     O_2   0.105156 0.401597 0.626622 -0.250939
O65   O     O_2   0.146207 0.299505 0.644575 -0.214686
O66   O     O_3   0.140513 0.335659 0.539706 -0.471134
H22   H     H_    0.143434 0.291472 0.529607 0.378284
S7    S     S_3+6 0.336509 0.900887 0.611166 0.080290
O67   O     O_2   0.400339 0.903937 0.635185 -0.307126
O68   O     O_2   0.296923 0.865010 0.651924 -0.194812
O69   O     O_3   0.336783 0.863924 0.548124 -0.495480
H23   H     H_    0.356009 0.823507 0.556119 0.399593
S8    S     S_3+6 0.893248 0.663081 0.604964 0.091633
O70   O     O_2   0.895444 0.598503 0.627244 -0.251961
O71   O     O_2   0.854505 0.700663 0.645117 -0.208814
O72   O     O_3   0.859656 0.664148 0.540312 -0.467944
H24   H     H_    0.856649 0.708303 0.530139 0.380086
S9    S     S_3+6 0.837054 0.610067 0.898012 0.093558
O73   O     O_2   0.901949 0.608178 0.876521 -0.248602
O74   O     O_2   0.800240 0.650095 0.858339 -0.207531
O75   O     O_3   0.835170 0.641830 0.963448 -0.467609
H25   H     H_    0.790898 0.644486 0.973243 0.380378
S10   S     S_3+6 0.402958 0.836231 0.887297 0.082223
O76   O     O_2   0.406289 0.899898 0.862977 -0.302276
O77   O     O_2   0.367683 0.796342 0.846305 -0.200839
O78   O     O_3   0.365094 0.836922 0.949849 -0.490267
H26   H     H_    0.324843 0.856189 0.941255 0.404542
S11   S     S_3+6 0.162947 0.390353 0.897640 0.092477
O79   O     O_2   0.098074 0.392209 0.876068 -0.247160
O80   O     O_2   0.199862 0.350500 0.857886 -0.209627
O81   O     O_3   0.164810 0.358389 0.962971 -0.468016
H27   H     H_    0.209077 0.355724 0.972797 0.379017
S12   S     S_3+6 0.597341 0.163913 0.887706 0.093566
O82   O     O_2   0.594356 0.100083 0.863716 -0.262229
O83   O     O_2   0.632731 0.203295 0.846408 -0.200783
O84   O     O_3   0.635476 0.163277 0.950148 -0.467135
H28   H     H_    0.639525 0.207165 0.961018 0.379637
S13   S     S_3+6 0.162710 0.609177 0.103068 0.080790
O85   O     O_2   0.098012 0.607004 0.125098 -0.294603
O86   O     O_2   0.200239 0.648737 0.142594 -0.205436
O87   O     O_3   0.164461 0.641056 0.037706 -0.487684
H29   H     H_    0.144375 0.681675 0.042282 0.401285
S14   S     S_3+6 0.597541 0.836082 0.112094 0.092372
O88   O     O_2   0.594593 0.899945 0.136010 -0.260906
O89   O     O_2   0.633017 0.796770 0.153394 -0.199956
O90   O     O_3   0.635555 0.836637 0.049601 -0.469513
H30   H     H_    0.639532 0.792739 0.038752 0.378141
S15   S     S_3+6 0.837095 0.389832 0.101923 0.094349
O91   O     O_2   0.902002 0.391688 0.123413 -0.248021
O92   O     O_2   0.800284 0.349779 0.141567 -0.208378
O93   O     O_3   0.835165 0.358126 0.036463 -0.465594
H31   H     H_    0.790887 0.355490 0.026666 0.380439
S16   S     S_3+6 0.402915 0.164017 0.112474 0.093328
O94   O     O_2   0.406051 0.100226 0.136490 -0.262267
O95   O     O_2   0.367538 0.203388 0.153806 -0.199626
O96   O     O_3   0.364665 0.163233 0.050095 -0.469259
H32   H     H_    0.360559 0.207095 0.039191 0.379163
S17   S     S_3+6 0.203916 0.926413 0.283224 0.084304
O97   O     O_2   0.203385 0.857668 0.290247 -0.196946
O98   O     O_2   0.139702 0.947758 0.269841 -0.268424
O99   O     O_3   0.250777 0.944555 0.228609 -0.473328
H33   H     H_    0.237873 0.986280 0.216490 0.386398
S18   S     S_3+6 0.058640 0.203748 0.279415 0.090850
O100  O     O_2   0.127740 0.204676 0.281824 -0.191972
O101  O     O_2   0.037611 0.138933 0.268208 -0.264892
O102  O     O_3   0.035323 0.249435 0.225634 -0.467473
H34   H     H_    0.992882 0.235810 0.216754 0.390402
S19   S     S_3+6 0.795902 0.073270 0.283179 0.087171
O103  O     O_2   0.796333 0.142029 0.290124 -0.193746
O104  O     O_2   0.860145 0.051991 0.269837 -0.266759
O105  O     O_3   0.749060 0.054950 0.228572 -0.471089
H35   H     H_    0.762002 0.013207 0.216524 0.386939
S20   S     S_3+6 0.941643 0.796252 0.279338 0.087855
O106  O     O_2   0.872537 0.795333 0.281575 -0.191589
O107  O     O_2   0.962709 0.861067 0.268233 -0.266960
O108  O     O_3   0.965083 0.750569 0.225581 -0.471574
H36   H     H_    0.007537 0.764209 0.216796 0.386763
S21   S     S_3+6 0.795917 0.926081 0.716644 0.091550
O109  O     O_2   0.796416 0.857357 0.709423 -0.188571
O110  O     O_2   0.860133 0.947366 0.730127 -0.267110
O111  O     O_3   0.749031 0.944092 0.771284 -0.468320
H37   H     H_    0.761938 0.985785 0.783520 0.386724
S22   S     S_3+6 0.942360 0.203769 0.720765 0.090359
O112  O     O_2   0.873248 0.204842 0.718777 -0.189833
O113  O     O_2   0.963325 0.138899 0.731739 -0.266514
O114  O     O_3   0.966158 0.249343 0.774477 -0.467487
H38   H     H_    0.008647 0.235649 0.783050 0.390335
S23   S     S_3+6 0.205392 0.076102 0.716201 0.089787
O115  O     O_2   0.201730 0.144600 0.707780 -0.248412
O116  O     O_2   0.142631 0.052378 0.731704 -0.206551
O117  O     O_3   0.254233 0.060791 0.770061 -0.461522
H39   H     H_    0.291812 0.084797 0.761256 0.364825
S24   S     S_3+6 0.059219 0.795897 0.720489 0.091520
O118  O     O_2   0.128285 0.795440 0.717736 -0.187224
O119  O     O_2   0.037870 0.860486 0.732170 -0.261922
O120  O     O_3   0.036554 0.749704 0.774098 -0.471959
H40   H     H_    0.994322 0.763364 0.783674 0.389765
S25   S     S_3+6 0.703334 0.448591 0.777957 0.088895
O121  O     O_2   0.705181 0.379456 0.777893 -0.191033
O122  O     O_2   0.638159 0.469197 0.768020 -0.264557
O123  O     O_3   0.748183 0.474703 0.724687 -0.470265
H41   H     H_    0.734119 0.517394 0.717627 0.390748
S26   S     S_3+6 0.578936 0.703839 0.784938 0.088454
O124  O     O_2   0.647451 0.703068 0.793647 -0.189284
O125  O     O_2   0.557761 0.639709 0.770922 -0.270539
O126  O     O_3   0.562489 0.750870 0.729982 -0.471945
H42   H     H_    0.521105 0.738083 0.716782 0.381656
S27   S     S_3+6 0.296416 0.552351 0.778149 0.085846
O127  O     O_2   0.294747 0.621491 0.778446 -0.192536
O128  O     O_2   0.361515 0.531631 0.767989 -0.270673
O129  O     O_3   0.251357 0.526639 0.724825 -0.469851
H43   H     H_    0.265385 0.483997 0.717429 0.388658
S28   S     S_3+6 0.420855 0.295158 0.784823 0.062975
O130  O     O_2   0.352439 0.297524 0.794076 -0.244081
O131  O     O_2   0.443761 0.358361 0.769698 -0.255640
O132  O     O_3   0.436337 0.246530 0.730832 -0.517321
H44   H     H_    0.414698 0.264082 0.697392 0.411930
S29   S     S_3+6 0.296429 0.446620 0.221671 0.091599
O133  O     O_2   0.294808 0.377480 0.220979 -0.187320
O134  O     O_2   0.361507 0.467329 0.232005 -0.264914
O135  O     O_3   0.251329 0.471940 0.275105 -0.468362
H45   H     H_    0.265269 0.514575 0.282701 0.388649
S30   S     S_3+6 0.421467 0.704641 0.215298 0.074002
O136  O     O_2   0.353004 0.702442 0.206304 -0.233306
O137  O     O_2   0.444301 0.641351 0.230187 -0.258002
O138  O     O_3   0.437332 0.753079 0.269344 -0.502408
H46   H     H_    0.415236 0.735866 0.302679 0.413602
S31   S     S_3+6 0.703501 0.551217 0.222108 0.088722
O139  O     O_2   0.705311 0.620355 0.222197 -0.187380
O140  O     O_2   0.638345 0.530558 0.232064 -0.266329
O141  O     O_3   0.748421 0.525113 0.275349 -0.472404
H47   H     H_    0.734369 0.482406 0.282414 0.385239
S32   S     S_3+6 0.579380 0.295783 0.214980 0.071162
O142  O     O_2   0.647811 0.297914 0.205789 -0.237649
O143  O     O_2   0.556640 0.359130 0.229818 -0.259083
O144  O     O_3   0.563690 0.247501 0.269157 -0.502672
H48   H     H_    0.585470 0.265085 0.302515 0.412199
C153  C     C_2   0.149855 0.904568 0.404354 0.556864
H49   H     H_    0.119152 0.895118 0.368992 0.119245
O145  O     O_2   0.145326 0.873290 0.447292 -0.527227
C154  C     C_2   0.090369 0.151447 0.399433 0.561699
H50   H     H_    0.098519 0.121069 0.363565 0.123664
O146  O     O_2   0.124113 0.147482 0.440804 -0.537090
C155  C     C_2   0.850028 0.095345 0.404313 0.566065
H51   H     H_    0.880598 0.104900 0.368896 0.118242
O147  O     O_2   0.854691 0.126531 0.447320 -0.506584
C156  C     C_2   0.909634 0.848541 0.399349 0.560229
H52   H     H_    0.901457 0.878836 0.363441 0.123411
O148  O     O_2   0.875931 0.852621 0.440729 -0.535093
C157  C     C_2   0.850031 0.904527 0.595503 0.553053
H53   H     H_    0.880769 0.895043 0.630823 0.122864
O149  O     O_2   0.854473 0.873263 0.552529 -0.541757
C158  C     C_2   0.909842 0.151527 0.600799 0.576156
H54   H     H_    0.901573 0.121397 0.636804 0.118278
O150  O     O_2   0.876203 0.147277 0.559371 -0.500052
C159  C     C_2   0.149690 0.095541 0.595453 0.548968
H55   H     H_    0.118714 0.104416 0.630741 0.122359
O151  O     O_2   0.145075 0.126993 0.552633 -0.544315
C160  C     C_2   0.090428 0.848660 0.600549 0.569525
H56   H     H_    0.098527 0.879011 0.636454 0.124870
O152  O     O_2   0.124105 0.852787 0.559157 -0.514647
C161  C     C_2   0.652164 0.411843 0.897305 0.564002
H57   H     H_    0.622187 0.404007 0.861094 0.126169
O153  O     O_2   0.648217 0.377267 0.938080 -0.531914
C162  C     C_2   0.597291 0.649515 0.906465 0.548872
H58   H     H_    0.607490 0.618741 0.871332 0.122826
O154  O     O_2   0.627473 0.644912 0.950082 -0.544712
C163  C     C_2   0.347933 0.588404 0.897580 0.579277
H59   H     H_    0.377866 0.596300 0.861367 0.118493
O155  O     O_2   0.352059 0.622799 0.938492 -0.497742
C164  C     C_2   0.403073 0.350624 0.905951 0.552055
H60   H     H_    0.393478 0.381498 0.870753 0.122901
O156  O     O_2   0.372512 0.355409 0.949309 -0.544008
C165  C     C_2   0.347965 0.411334 0.102131 0.565404
H61   H     H_    0.378101 0.403463 0.138218 0.126479
O157  O     O_2   0.351836 0.376910 0.061222 -0.533578
C166  C     C_2   0.403147 0.649384 0.094108 0.572349
H62   H     H_    0.393434 0.618632 0.129364 0.116234
O158  O     O_2   0.372679 0.644478 0.050690 -0.506916
C167  C     C_2   0.652240 0.588036 0.102796 0.563409
H63   H     H_    0.622281 0.595831 0.139014 0.126266
O159  O     O_2   0.648275 0.622649 0.062049 -0.532584
C168  C     C_2   0.597273 0.350704 0.093643 0.553226
H64   H     H_    0.607135 0.381571 0.128802 0.122095
O160  O     O_2   0.627608 0.355419 0.050140 -0.543163

loop_
_geom_bond_atom_site_label_1
_geom_bond_atom_site_label_2
_ccdc_geom_bond_type
C22   C150  A    
O126  H42   S    
C5    C37   S    
C130  C146  A    
C165  H61   S    
C30   C45   S    
C116  C132  A    
C131  C163  S    
C117  C133  A    
C4    C36   S    
O114  H38   S    
O33   Zn9   S    
O81   H27   S    
O141  H47   S    
S12   O82   D    
C82   S10   S    
C83   S11   S    
C20   C40   A    
C98   C114  A    
C108  S20   S    
C22   C38   A    
O135  H45   S    
C62   C70   T    
O47   Zn12  S    
S6    O65   D    
S16   O96   S    
C55   O31   A    
C48   O44   A    
S20   O106  D    
C80   S8    S    
O38   Zn10  S    
C45   O45   A    
C120  S32   S    
C28   C144  A    
C74   S2    S    
C129  C145  A    
O26   Zn6   S    
S29   O135  S    
C31   C147  A    
C116  S28   S    
C161  O153  D    
C82   C98   A    
S2    O53   D    
C108  C124  A    
O9    Zn5   S    
C18   C82   A    
C136  C152  A    
O21   Zn1   S    
O34   Zn9   S    
C56   O30   A    
C103  H9    S    
C54   O28   A    
O13   Zn5   S    
C84   C100  A    
C91   C107  A    
C101  H11   S    
C105  S17   S    
C154  O146  D    
O117  H39   S    
S18   O100  D    
C46   O42   A    
C95   H1    S    
S2    O54   S    
C132  C148  A    
S1    O49   D    
C8    O12   A    
O123  H41   S    
C119  C135  A    
O37   Zn10  S    
C127  C143  A    
C158  H54   S    
C128  C144  A    
O28   Zn8   S    
C87   C103  A    
C132  C164  S    
S9    O74   D    
C153  H49   S    
C32   C47   S    
O6    Zn4   S    
O144  H48   S    
O35   Zn9   S    
C16   C144  A    
S12   O84   S    
S7    O68   D    
S32   O143  D    
C104  H12   S    
C114  C130  A    
S4    O60   S    
C92   H8    S    
C79   S7    S    
C162  H58   S    
C74   C90   A    
C11   C35   A    
C18   C38   A    
C101  C117  A    
O45   Zn12  S    
C99   C115  A    
S22   O114  S    
C96   H4    S    
C78   C94   A    
S20   O108  S    
C27   C141  A    
O12   Zn8   S    
S11   O80   D    
C27   C139  A    
S27   O127  D    
C7    C39   S    
C10   C138  A    
O36   Zn9   S    
O63   H21   S    
C56   O32   A    
C14   C142  A    
S25   O121  D    
C54   O26   A    
C47   O43   A    
C115  S27   S    
C163  H59   S    
C88   S16   S    
C50   O20   A    
C73   S1    S    
C157  H53   S    
C167  O159  D    
C55   O29   A    
S4    O58   D    
O18   Zn2   S    
S5    O61   D    
O48   Zn12  S    
C6    O14   A    
S10   O76   D    
S1    O51   S    
O29   Zn5   S    
C112  S24   S    
O129  H43   S    
C123  C139  A    
C49   C57   S    
O99   H33   S    
C126  C142  A    
O66   H22   S    
C121  C137  A    
S30   O136  D    
C52   C60   S    
C59   C67   T    
O44   Zn11  S    
C53   C61   S    
C92   C108  A    
C15   C79   A    
C125  C141  A    
S8    O70   D    
C31   C46   S    
C55   C63   S    
C56   C64   S    
C131  C147  A    
C21   C149  A    
O4    Zn4   S    
C75   C91   A    
S16   O95   D    
O54   H18   S    
S21   O110  D    
C19   C83   A    
C88   C104  A    
C89   H7    S    
S17   O98   D    
C91   H5    S    
C7    O13   A    
C7    O11   A    
C93   H3    S    
O111  H37   S    
S27   O128  D    
S22   O112  D    
O75   H25   S    
S31   O141  S    
S6    O66   S    
C45   O41   A    
C47   O47   A    
S30   O138  S    
C25   C137  A    
C29   C151  A    
O39   Zn10  S    
C167  H63   S    
C32   C152  A    
C3    C35   S    
C106  C122  A    
C129  C161  S    
S13   O85   D    
S3    O56   D    
C160  H56   S    
C98   H14   S    
C110  C126  A    
C15   C143  A    
S25   O123  S    
C13   C141  A    
C20   C84   A    
C164  H60   S    
C156  O148  D    
C42   O34   A    
C86   C102  A    
C136  C168  S    
C51   O23   A    
C166  H62   S    
C109  C125  A    
C1    O7    A    
S5    O63   S    
C4    O4    A    
O22   Zn4   S    
C14   C34   A    
O72   H24   S    
O69   H23   S    
C114  S26   S    
C65   C72   S    
C8    C40   S    
O14   Zn8   S    
S28   O132  S    
C128  C160  S    
C67   C70   S    
S12   O83   D    
C110  S22   S    
C11   C75   A    
C16   C36   A    
C111  C127  A    
C27   C42   S    
C2    C34   S    
S8    O72   S    
S4    O59   D    
S27   O129  S    
S10   O77   D    
C159  O151  D    
S15   O93   S    
S23   O117  S    
C49   O17   A    
S24   O118  D    
S20   O107  D    
S26   O124  D    
C89   C105  A    
C44   O36   A    
O8    Zn2   S    
C99   H13   S    
C6    C38   S    
O3    Zn3   S    
C93   C109  A    
S29   O134  D    
C50   O18   A    
O1    Zn1   S    
C161  H57   S    
S10   O78   S    
C53   O25   A    
C75   S3    S    
S3    O55   D    
C100  C116  A    
C107  C123  A    
S19   O104  D    
C168  H64   S    
C85   C101  A    
S31   O139  D    
C163  O155  D    
C29   C145  A    
S14   O88   D    
C31   C149  A    
C30   C150  A    
S18   O101  D    
S13   O87   S    
S21   O109  D    
C11   C139  A    
C133  C165  S    
C24   C152  A    
C9    C137  A    
C68   C69   S    
C117  S29   S    
S11   O79   D    
C12   C140  A    
C42   O40   A    
C119  S31   S    
C23   C87   A    
C51   O21   A    
S18   O102  S    
O25   Zn5   S    
O105  H35   S    
C83   C99   A    
S9    O73   D    
C6    O10   A    
C9    C33   A    
C165  O157  D    
C109  S21   S    
C48   O46   A    
O20   Zn4   S    
C21   C85   A    
C43   O39   A    
O96   H32   S    
C50   C58   S    
C122  C138  A    
S14   O90   S    
O120  H40   S    
C115  C131  A    
C54   C62   S    
C121  C153  S    
C94   C110  A    
C19   C147  A    
C120  C136  A    
C162  O154  D    
C80   C96   A    
C17   C145  A    
S15   O91   D    
C79   C95   A    
S6    O64   D    
C84   S12   S    
S23   O115  D    
C49   O19   A    
S24   O120  S    
C102  H10   S    
C81   S9    S    
O57   H19   S    
C52   O22   A    
C24   C88   A    
C90   C106  A    
C113  C129  A    
C2    O2    A    
C46   O48   A    
C12   C76   A    
C53   O27   A    
C77   S5    S    
S2    O52   D    
C41   O33   A    
C127  C159  S    
C124  C140  A    
C57   C65   T    
C154  H50   S    
C26   C138  A    
C155  H51   S    
C13   C35   A    
C32   C148  A    
C85   S13   S    
C28   C43   S    
C86   S14   S    
O32   Zn6   S    
C73   C89   A    
O108  H36   S    
S1    O50   D    
C23   C37   A    
C135  C151  A    
C77   C93   A    
O51   H17   S    
C3    O5    A    
S28   O131  D    
C17   C81   A    
C22   C86   A    
S30   O137  D    
C112  C128  A    
S19   O103  D    
C60   C68   T    
S8    O71   D    
C4    O8    A    
S9    O75   S    
C153  O145  D    
C95   C111  A    
O41   Zn11  S    
C16   C80   A    
C5    O15   A    
C104  C120  A    
S14   O89   D    
C118  S30   S    
C155  O147  D    
O90   H30   S    
O30   Zn8   S    
O132  H44   S    
C28   C140  A    
O24   Zn2   S    
S7    O69   S    
C124  C156  S    
S32   O142  D    
C1    C33   S    
O19   Zn3   S    
S17   O97   D    
S28   O130  D    
O16   Zn6   S    
C96   C112  A    
C122  C154  S    
O17   Zn1   S    
O87   H29   S    
C76   S4    S    
C158  O150  D    
S22   O113  D    
S31   O140  D    
C134  C150  A    
C52   O24   A    
S11   O81   S    
C24   C40   A    
C58   C66   T    
C66   C71   S    
C107  S19   S    
C159  H55   S    
C12   C36   A    
O5    Zn1   S    
C160  O152  D    
C102  C118  A    
O40   Zn10  S    
C8    O16   A    
C14   C78   A    
S19   O105  S    
S25   O122  D    
C125  C157  S    
C164  O156  D    
C25   C143  A    
C9    C73   A    
C25   C44   S    
C44   O38   A    
C157  O149  D    
C166  O158  D    
C30   C146  A    
C26   C142  A    
C13   C77   A    
S5    O62   D    
C29   C48   S    
C78   S6    S    
C133  C149  A    
O23   Zn3   S    
C97   H15   S    
O11   Zn7   S    
C90   H6    S    
C21   C39   A    
O42   Zn11  S    
C94   H2    S    
C20   C148  A    
C105  C121  A    
C10   C34   A    
C17   C37   A    
S15   O92   D    
C5    O9    A    
O138  H46   S    
C19   C39   A    
C76   C92   A    
O15   Zn7   S    
S16   O94   D    
S23   O116  D    
S24   O119  D    
S26   O125  D    
C113  S25   S    
O84   H28   S    
C43   O35   A    
S21   O111  S    
C111  S23   S    
C51   C59   S    
C97   C113  A    
S7    O67   D    
S32   O144  S    
C123  C155  S    
O46   Zn12  S    
C106  S18   S    
C130  C162  S    
S29   O133  D    
S17   O99   S    
C61   C69   T    
C23   C151  A    
O93   H31   S    
O7    Zn3   S    
C103  C119  A    
C63   C71   T    
C18   C146  A    
C118  C134  A    
C168  O160  D    
O60   H20   S    
S26   O126  S    
C100  H16   S    
C87   S15   S    
C134  C166  S    
C2    O6    A    
O27   Zn7   S    
C10   C74   A    
C3    O3    A    
C81   C97   A    
C1    O1    A    
S13   O86   D    
S3    O57   S    
C64   C72   T    
C41   O37   A    
O102  H34   S    
O31   Zn7   S    
C126  C158  S    
C156  H52   S    
O10   Zn6   S    
O43   Zn11  S    
O78   H26   S    
C15   C33   A    
C26   C41   S    
C135  C167  S    
O2    Zn2   S    
