data_mof_unit_49761.cif
_audit_creation_date              2012-12-10T17:15:11-0500
_audit_creation_method            fapswitch 2.2
_symmetry_space_group_name_H-M    P1
_symmetry_Int_Tables_number       1
_space_group_crystal_system       triclinic
_cell_length_a                    10.069558
_cell_length_b                    10.878579
_cell_length_c                    12.866204
_cell_angle_alpha                 92.124447
_cell_angle_beta                  91.351874
_cell_angle_gamma                 96.19682
_cell_volume                      1399.65749284

loop_
_atom_site_label
_atom_site_type_symbol
_atom_type_description
_atom_site_fract_x
_atom_site_fract_y
_atom_site_fract_z
_atom_type_partial_charge
C1    C     C_R   0.442939 0.267156 0.492955 0.869586
C2    C     C_R   0.557065 0.732863 0.506951 0.869450
C3    C     C_2   0.070532 0.488679 0.507029 -0.089559
C4    C     C_2   0.929698 0.512567 0.494128 -0.106432
C5    C     C_R   0.473658 0.504241 0.698758 0.920523
C6    C     C_R   0.526464 0.496345 0.301300 0.918786
C7    C     C_R   0.543983 0.493015 0.190643 -0.160611
C8    C     C_R   0.456285 0.509324 0.809546 -0.153158
C9    C     C_R   0.357642 0.587963 0.963827 -0.316378
C10   C     C_R   0.644053 0.416741 0.036243 -0.299861
C11   C     C_R   0.355759 0.572723 0.855305 0.499470
C12   C     C_R   0.645763 0.432484 0.144125 0.481509
C13   C     C_R   0.548069 0.453978 0.870016 -0.321081
C14   C     C_R   0.451523 0.547754 0.130278 -0.318721
C15   C     C_R   0.547849 0.467500 0.976479 0.124000
C16   C     C_R   0.452296 0.535060 0.023586 0.129132
C17   C     C_2   0.406854 0.134298 0.484447 -0.219479
C18   C     C_2   0.593099 0.865775 0.515134 -0.220450
C19   C     C_2   0.501101 0.064615 0.515314 -0.170322
C20   C     C_2   0.498584 0.935328 0.484526 -0.170738
H1    H     H_    0.376558 0.598451 0.166481 0.180727
H2    H     H_    0.622266 0.402221 0.833979 0.184239
H3    H     H_    0.288568 0.642971 0.002159 0.140055
H4    H     H_    0.717493 0.364804 0.999682 0.154626
H5    H     H_    0.411854 0.892726 0.439939 0.210640
H6    H     H_    0.587595 0.107101 0.560257 0.210583
H7    H     H_    0.902720 0.583519 0.442945 0.151870
H8    H     H_    0.097656 0.418340 0.558677 0.155684
H9    H     H_    0.865722 0.382161 0.590075 0.174730
H10   H     H_    0.134126 0.616858 0.408970 0.161013
N1    N     N_2   0.162330 0.550370 0.457540 -0.190267
N2    N     N_2   0.837670 0.449630 0.542460 -0.186542
O1    O     O_R   0.567930 0.307680 0.508550 -0.598083
O2    O     O_R   0.432070 0.692320 0.491450 -0.597556
O3    O     O_R   0.351090 0.340020 0.481290 -0.591848
O4    O     O_R   0.648910 0.659980 0.518710 -0.591877
O5    O     O_R   0.590490 0.486480 0.665020 -0.624534
O6    O     O_R   0.409510 0.513520 0.334980 -0.626071
O7    O     O_R   0.373660 0.518820 0.637760 -0.571637
O8    O     O_R   0.626340 0.481180 0.362240 -0.578965
Zn1   Zn    Zn3+2 0.644780 0.478400 0.518200 0.988637
Zn2   Zn    Zn3+2 0.355220 0.521600 0.481800 0.988235
O9    O     O_3   0.739116 0.379635 0.203777 -0.612950
C21   C     C_3   0.868780 0.441540 0.190910 0.080559
H11   H     H_    0.903634 0.487357 0.266643 0.158074
H12   H     H_    0.874120 0.515535 0.132589 0.108194
C22   C     C_3   0.964461 0.347202 0.160258 -0.316045
H13   H     H_    0.964451 0.276362 0.220370 0.260887
H14   H     H_    0.930048 0.300059 0.084762 0.217859
C23   C     C_3   0.106660 0.409265 0.149750 -0.917404
H15   H     H_    0.109352 0.479261 0.088898 0.246879
H16   H     H_    0.173592 0.338673 0.127096 0.284533
H17   H     H_    0.144263 0.455012 0.224990 0.275812
O10   O     O_3   0.267793 0.628845 0.791946 -0.621432
C24   C     C_3   0.133085 0.608935 0.822982 0.124342
H18   H     H_    0.072438 0.655086 0.766007 0.196590
H19   H     H_    0.117953 0.655298 0.899390 0.121185
C25   C     C_3   0.078761 0.471031 0.821351 -0.405219
H20   H     H_    0.097196 0.426885 0.744669 0.226700
H21   H     H_    0.130487 0.422915 0.882494 0.220971
C26   C     C_3   0.929194 0.454880 0.841066 -0.955953
H22   H     H_    0.909193 0.497396 0.918163 0.263768
H23   H     H_    0.892785 0.354794 0.840329 0.262078
H24   H     H_    0.873550 0.498916 0.779601 0.282978
C27   C     C_2   0.726096 0.917230 0.560287 0.911286
O11   O     O_2   0.777475 0.864787 0.630791 -0.610741
O12   O     O_R   0.794754 0.022546 0.519467 -0.801416
H25   H     H_    0.884532 0.047383 0.555920 0.346552
C28   C     C_2   0.274163 0.083124 0.438557 0.910919
O13   O     O_2   0.223650 0.135685 0.367715 -0.612981
O14   O     O_R   0.204751 0.978015 0.479100 -0.800867
H26   H     H_    0.115224 0.953438 0.442199 0.345520

loop_
_geom_bond_atom_site_label_1
_geom_bond_atom_site_label_2
_ccdc_geom_bond_type
C26   H24   S    
C23   H16   S    
N2    Zn1   S    
C6    O6    A    
C17   C28   S    
C8    C13   A    
N1    Zn2   S    
C5    O5    A    
C2    C18   S    
C1    C17   S    
C19   C20   S    
O2    Zn2   S    
C21   C22   S    
H10   N1    S    
O9    C21   S    
O1    Zn1   S    
C2    O2    A    
C24   H18   S    
C24   H19   S    
C23   H15   S    
C1    O1    A    
O14   H26   S    
C22   H14   S    
C4    N2    D    
C18   C27   S    
C3    N1    D    
C9    C11   A    
O4    Zn1   S    
C6    C7    S    
C11   O10   S    
C10   C12   A    
C25   C26   S    
C8    C11   A    
C14   H1    S    
C3    H8    S    
C17   C19   D    
C9    C16   A    
C21   H12   S    
C13   H2    S    
O6    Zn2   S    
C22   C23   S    
C18   C20   D    
C28   O13   D    
C5    O7    A    
C13   C15   A    
O5    Zn1   S    
C26   H22   S    
C14   C16   A    
C7    C12   A    
C23   H17   S    
H9    N2    S    
C20   H5    S    
C25   H21   S    
O12   H25   S    
C22   H13   S    
C6    O8    A    
C21   H11   S    
C1    O3    A    
C26   H23   S    
C27   O11   D    
C24   C25   S    
C2    O4    A    
C28   O14   S    
O3    Zn2   S    
C5    C8    S    
O7    Zn2   S    
C9    H3    S    
O8    Zn1   S    
C4    H7    S    
C10   H4    S    
C25   H20   S    
O10   C24   S    
C12   O9    S    
C7    C14   A    
C3    C4    S    
C15   C16   A    
C10   C15   A    
C27   O12   S    
C19   H6    S    
