data_mof_unit_22685.cif
_audit_creation_date              2012-12-10T20:24:52-0500
_audit_creation_method            fapswitch 2.2
_symmetry_space_group_name_H-M    P1
_symmetry_Int_Tables_number       1
_space_group_crystal_system       triclinic
_cell_length_a                    10.69331
_cell_length_b                    19.295547
_cell_length_c                    18.425738
_cell_angle_alpha                 90.417053
_cell_angle_beta                  89.694596
_cell_angle_gamma                 89.324358
_cell_volume                      3801.42188676

loop_
_atom_site_label
_atom_site_type_symbol
_atom_type_description
_atom_site_fract_x
_atom_site_fract_y
_atom_site_fract_z
_atom_type_partial_charge
C1    C     C_R   0.498056 0.365601 0.499739 0.899306
C2    C     C_R   0.474426 0.182656 0.562562 -0.273205
C3    C     C_R   0.497007 0.853335 0.502663 -0.009989
C4    C     C_R   0.488486 0.146750 0.496828 -0.005913
C5    C     C_R   0.472845 0.817748 0.567426 0.545941
C6    C     C_R   0.504775 0.182097 0.431186 0.564795
C7    C     C_R   0.478878 0.745364 0.566463 -0.260614
C8    C     C_R   0.503528 0.254489 0.432507 -0.323483
C9    C     C_R   0.501881 0.709523 0.501243 -0.094934
C10   C     C_R   0.493298 0.290448 0.498720 -0.083171
C11   C     C_R   0.387231 0.964677 0.524683 -0.124366
C12   C     C_R   0.501169 0.634374 0.500270 0.935298
C13   C     C_R   0.597056 0.035623 0.474441 -0.129815
C14   C     C_R   0.385150 0.036468 0.523173 -0.193547
C15   C     C_R   0.599325 0.963895 0.476178 -0.201827
C16   C     C_R   0.260073 0.500943 0.500309 1.037538
C17   C     C_R   0.739988 0.498189 0.500033 0.936356
C18   C     C_R   0.489883 0.071770 0.497756 0.158920
C19   C     C_R   0.494604 0.928455 0.501545 0.160204
C20   C     C_R   0.520242 0.560066 0.726547 -0.158511
C21   C     C_R   0.437311 0.550901 0.274709 -0.156978
C22   C     C_R   0.518500 0.561771 0.802997 0.495676
C23   C     C_R   0.872432 0.498975 0.501091 -0.285909
C24   C     C_R   0.437989 0.553141 0.198242 0.497196
C25   C     C_R   0.499731 0.500009 0.841751 0.020376
C26   C     C_R   0.501606 0.500696 0.158494 0.021956
C27   C     C_R   0.480458 0.438134 0.801944 -0.066955
C28   C     C_R   0.565699 0.448218 0.197317 -0.052450
C29   C     C_R   0.481043 0.439771 0.725790 -0.037556
C30   C     C_R   0.563532 0.449416 0.273530 0.019156
C31   C     C_R   0.389860 0.489501 0.962116 -0.415902
C32   C     C_R   0.610680 0.513690 0.038053 -0.408348
C33   C     C_R   0.389247 0.488273 0.038609 0.616517
C34   C     C_R   0.127783 0.502239 0.501780 -0.259908
C35   C     C_R   0.612294 0.512219 0.961557 0.615139
C36   C     C_R   0.500297 0.500945 0.077231 -0.024022
C37   C     C_R   0.500862 0.500549 0.922964 -0.024164
C38   C     C_R   0.220919 0.722319 0.424566 -0.224414
C39   C     C_R   0.793005 0.277309 0.582877 -0.236491
C40   C     C_R   0.177805 0.663711 0.461247 0.487294
C41   C     C_R   0.854275 0.331364 0.547010 0.546590
C42   C     C_R   0.125815 0.608486 0.421304 0.050833
C43   C     C_R   0.872528 0.394845 0.583514 0.067511
C44   C     C_R   0.121164 0.611789 0.344745 0.148859
C45   C     C_R   0.937819 0.451496 0.544967 -0.098204
C46   C     C_R   0.828878 0.403978 0.655673 0.093073
C47   C     C_R   0.165581 0.670961 0.309315 -0.199741
C48   C     C_R   0.765164 0.349673 0.689624 -0.176336
C49   C     C_R   0.214459 0.725951 0.349161 -0.244585
C50   C     C_R   0.747217 0.286948 0.653291 -0.227887
C51   C     C_R   0.932850 0.549465 0.459970 0.497077
C52   C     C_R   0.067383 0.452974 0.544795 0.503636
C53   C     C_3   0.430609 0.663569 0.839706 -0.309378
C54   C     C_3   0.433963 0.667429 0.169507 -0.339049
C55   C     C_3   0.252588 0.407070 0.076259 -0.352598
C56   C     C_R   0.062339 0.551560 0.460485 -0.119010
C57   C     C_3   0.795055 0.465130 0.921239 -0.356841
C58   C     C_3   0.108721 0.698931 0.573123 -0.372293
C59   C     C_3   0.815327 0.311282 0.427075 -0.344730
C60   C     C_3   0.832415 0.654250 0.453183 -0.296697
C61   C     C_3   0.148468 0.414542 0.652559 -0.234336
C62   C     C_3   0.343740 0.835002 0.666335 -0.344974
C63   C     C_3   0.619038 0.160439 0.327385 -0.352670
C64   C     C_R   0.523507 0.745793 0.436994 -0.234264
C65   C     C_R   0.477248 0.254290 0.563595 -0.156227
C66   C     C_R   0.522099 0.817441 0.437891 -0.277703
H1    H     H_    0.248737 0.771260 0.321447 0.168063
H2    H     H_    0.386942 0.590003 0.305690 0.162241
H3    H     H_    0.467026 0.392285 0.695700 0.157673
H4    H     H_    0.612491 0.409478 0.303448 0.139575
H5    H     H_    0.303100 0.481869 0.933208 0.176882
H6    H     H_    0.696159 0.524893 0.066924 0.185561
H7    H     H_    0.260223 0.765062 0.454735 0.166897
H8    H     H_    0.782012 0.227434 0.556564 0.156999
H9    H     H_    0.162604 0.674488 0.250734 0.180481
H10   H     H_    0.731049 0.355473 0.744799 0.144475
H11   H     H_    0.540903 0.718878 0.386069 0.172285
H12   H     H_    0.699440 0.245162 0.680297 0.164731
H13   H     H_    0.467270 0.281231 0.615099 0.162729
H14   H     H_    0.538732 0.845069 0.387830 0.166518
H15   H     H_    0.463081 0.155019 0.613119 0.163359
H16   H     H_    0.351813 0.635842 0.865989 0.165527
H17   H     H_    0.404721 0.679422 0.783766 0.140594
H18   H     H_    0.447091 0.711499 0.871664 0.204212
H19   H     H_    0.432037 0.686425 0.226652 0.152374
H20   H     H_    0.385012 0.706777 0.136094 0.201540
H21   H     H_    0.532110 0.663223 0.149199 0.173447
H22   H     H_    0.381587 0.376074 0.868591 0.190543
H23   H     H_    0.465462 0.717187 0.616406 0.164864
H24   H     H_    0.538750 0.364016 0.871610 0.182268
H25   H     H_    0.703396 0.413052 0.130272 0.193718
H26   H     H_    0.568385 0.368051 0.125852 0.183641
H27   H     H_    0.328893 0.377091 0.102958 0.155782
H28   H     H_    0.236353 0.386818 0.020434 0.153826
H29   H     H_    0.165737 0.399000 0.108121 0.203296
H30   H     H_    0.746023 0.423227 0.891346 0.142587
H31   H     H_    0.821975 0.447325 0.976379 0.162293
H32   H     H_    0.882496 0.476197 0.891040 0.202523
H33   H     H_    0.015016 0.674828 0.571268 0.169569
H34   H     H_    0.510697 0.282552 0.382048 0.168575
H35   H     H_    0.104173 0.753112 0.552860 0.150521
H36   H     H_    0.136947 0.701516 0.630912 0.197133
H37   H     H_    0.745931 0.354673 0.428061 0.161021
H38   H     H_    0.768421 0.260776 0.434086 0.154674
H39   H     H_    0.859804 0.310686 0.372560 0.204191
H40   H     H_    0.131920 0.512593 0.310284 0.193485
H41   H     H_    0.071445 0.566336 0.248297 0.202847
H42   H     H_    0.806140 0.507506 0.672328 0.222602
H43   H     H_    0.824216 0.462820 0.748945 0.186686
H44   H     H_    0.914202 0.688660 0.458424 0.155407
H45   H     H_    0.305258 0.937374 0.543235 0.134134
H46   H     H_    0.790623 0.643691 0.507439 0.128605
H47   H     H_    0.761613 0.682814 0.421143 0.196714
H48   H     H_    0.146343 0.470873 0.666756 0.157805
H49   H     H_    0.239782 0.393358 0.670585 0.176532
H50   H     H_    0.075481 0.387012 0.683537 0.174360
H51   H     H_    0.357706 0.786293 0.697109 0.166369
H52   H     H_    0.264765 0.829782 0.627525 0.143398
H53   H     H_    0.316754 0.876001 0.706111 0.199843
H54   H     H_    0.703554 0.158361 0.362401 0.141287
H55   H     H_    0.610982 0.211511 0.300300 0.169768
H56   H     H_    0.678886 0.062978 0.455763 0.130053
H57   H     H_    0.632260 0.120715 0.284125 0.205225
H58   H     H_    0.302080 0.064509 0.541111 0.145307
H59   H     H_    0.682684 0.935998 0.458444 0.138221
H60   H     H_    0.537785 0.607159 0.697003 0.159508
N1    N     N_R   0.500020 0.499980 0.689440 -0.130221
N2    N     N_R   0.499980 0.500020 0.310560 -0.129529
N3    N     N_3   0.463043 0.372993 0.837147 -0.475203
N4    N     N_3   0.630596 0.392488 0.161038 -0.470720
N5    N     N_3   0.071272 0.554955 0.303696 -0.401323
N6    N     N_3   0.855975 0.466498 0.695362 -0.478664
O1    O     O_R   0.500010 0.398180 0.560840 -0.629230
O2    O     O_3   0.371056 0.603970 0.162219 -0.581998
O3    O     O_3   0.278319 0.478522 0.075754 -0.571243
O4    O     O_3   0.721702 0.526244 0.924523 -0.565090
O5    O     O_3   0.196901 0.657494 0.535167 -0.622328
O6    O     O_3   0.909125 0.320611 0.479518 -0.585996
O7    O     O_3   0.865158 0.593121 0.414906 -0.570588
O8    O     O_3   0.136191 0.400493 0.577581 -0.595272
O9    O     O_3   0.455733 0.854810 0.631667 -0.604639
O10   O     O_3   0.508849 0.145088 0.366316 -0.598317
O11   O     O_R   0.499990 0.601820 0.439160 -0.625377
O12   O     O_R   0.499950 0.398180 0.439210 -0.643659
O13   O     O_R   0.500050 0.601820 0.560790 -0.627504
O14   O     O_R   0.316790 0.500010 0.560810 -0.587220
O15   O     O_R   0.683210 0.499990 0.439190 -0.573041
O16   O     O_R   0.316730 0.500000 0.439190 -0.637742
O17   O     O_R   0.683270 0.500000 0.560810 -0.646011
O18   O     O_3   0.541109 0.623020 0.839701 -0.571107
Zn1   Zn    Zn3+2 0.500040 0.500000 0.581210 0.952124
Zn2   Zn    Zn3+2 0.499960 0.500000 0.418790 0.965308

loop_
_geom_bond_atom_site_label_1
_geom_bond_atom_site_label_2
_ccdc_geom_bond_type
C22   O18   S    
C34   C56   A    
C23   C45   A    
C27   C29   A    
C9    C64   A    
C64   H11   S    
C48   H10   S    
C2    C4    A    
O1    Zn1   S    
C55   H27   S    
C2    C65   A    
C39   C41   A    
C38   C49   A    
C44   N5    S    
C15   C19   A    
C11   C19   A    
C59   H39   S    
C13   C18   A    
C53   H18   S    
C65   H13   S    
C59   H38   S    
C32   C36   A    
C17   O15   A    
C24   C26   A    
O17   Zn1   S    
C46   N6    S    
C54   H21   S    
C11   C14   A    
N1    Zn1   S    
C24   O2    S    
C54   O2    S    
C33   C36   A    
C16   O14   A    
C51   C56   A    
C39   H8    S    
C14   C18   A    
C62   H51   S    
C63   H54   S    
C7    H23   S    
C16   C34   S    
H24   N3    S    
C5    O9    S    
N2    Zn2   S    
C22   C25   A    
C61   H49   S    
C31   C33   A    
C57   O4    S    
C3    C19   S    
C58   H36   S    
C6    O10   S    
C30   H4    S    
C44   C47   A    
C4    C18   S    
C40   C42   A    
C41   C43   A    
C60   H47   S    
C42   C44   A    
H22   N3    S    
C61   H50   S    
C55   H28   S    
C1    O1    A    
C50   H12   S    
C62   H52   S    
C47   C49   A    
C63   H55   S    
C29   H3    S    
H40   N5    S    
C30   N2    A    
C14   H58   S    
C1    C10   S    
C11   H45   S    
C32   C35   A    
C20   N1    A    
H41   N5    S    
C54   H20   S    
C6    C8    A    
C59   O6    S    
C57   H30   S    
C31   C37   A    
C53   H16   S    
C64   C66   A    
C12   O13   A    
H26   N4    S    
C20   H60   S    
C60   H46   S    
C33   O3    S    
C23   C51   A    
C57   H31   S    
C40   O5    S    
H43   N6    S    
C41   O6    S    
C58   H35   S    
C17   C23   S    
C21   N2    A    
C42   C56   S    
C43   C45   S    
C62   H53   S    
O13   Zn1   S    
C58   O5    S    
C55   H29   S    
O11   Zn2   S    
C20   C22   A    
C29   N1    A    
C21   H2    S    
C53   O18   S    
C27   N3    S    
C4    C6    A    
C62   O9    S    
C5    C7    A    
C10   C65   A    
C26   C36   S    
C7    C9    A    
C49   H1    S    
C35   C37   A    
C34   C52   A    
C17   O17   A    
C58   H33   S    
O16   Zn2   S    
C3    C5    A    
C35   O4    S    
C54   H19   S    
C63   H57   S    
C61   O8    S    
C25   C27   A    
C66   H14   S    
C26   C28   A    
C45   C52   A    
C12   O11   A    
C16   O16   A    
C53   H17   S    
C59   H37   S    
C13   C15   A    
O15   Zn2   S    
C8    H34   S    
C47   H9    S    
C28   C30   A    
O12   Zn2   S    
C1    O12   A    
C38   C40   A    
C13   H56   S    
C55   O3    S    
C57   H32   S    
C48   C50   A    
C52   O8    S    
C63   O10   S    
C28   N4    S    
C43   C46   A    
H42   N6    S    
C60   H44   S    
C9    C12   S    
C60   O7    S    
O14   Zn1   S    
C3    C66   A    
C46   C48   A    
C39   C50   A    
C8    C10   A    
C15   H59   S    
C21   C24   A    
C61   H48   S    
C2    H15   S    
H25   N4    S    
C25   C37   S    
C31   H5    S    
C32   H6    S    
C38   H7    S    
C51   O7    S    
