data_mof_unit_24350.cif
_audit_creation_date              2012-12-10T19:48:34-0500
_audit_creation_method            fapswitch 2.2
_symmetry_space_group_name_H-M    P1
_symmetry_Int_Tables_number       1
_space_group_crystal_system       triclinic
_cell_length_a                    13.138551
_cell_length_b                    14.16824
_cell_length_c                    14.993124
_cell_angle_alpha                 90.490083
_cell_angle_beta                  90.03097
_cell_angle_gamma                 70.067666
_cell_volume                      2623.67712371

loop_
_atom_site_label
_atom_site_type_symbol
_atom_type_description
_atom_site_fract_x
_atom_site_fract_y
_atom_site_fract_z
_atom_type_partial_charge
C1    C     C_R   0.499524 0.500615 0.672219 0.855660
C2    C     C_R   0.984290 0.452298 0.517630 0.085903
C3    C     C_R   0.875709 0.472710 0.542850 0.093141
C4    C     C_R   0.029421 0.528901 0.529535 0.080396
C5    C     C_R   0.973176 0.616915 0.579424 0.181649
C6    C     C_R   0.871779 0.628681 0.615209 -0.259612
C7    C     C_R   0.823486 0.557452 0.597217 -0.203974
C8    C     C_R   0.128588 0.520888 0.491771 -0.257277
C9    C     C_R   0.124674 0.676047 0.562767 -0.202963
C10   C     C_R   0.821816 0.408127 0.512035 -0.120628
C11   C     C_R   0.539948 0.568089 0.906032 -0.191027
C12   C     C_R   0.704129 0.444505 0.504954 0.864116
C13   C     C_R   0.539408 0.567808 0.813929 -0.203365
C14   C     C_R   0.497855 0.502554 0.767945 -0.021600
C15   C     C_R   0.454245 0.439602 0.813807 -0.192787
C16   C     C_R   0.453376 0.441058 0.905840 -0.149185
C17   C     C_R   0.498241 0.503752 0.951513 0.126212
C18   C     C_R   0.449466 0.586362 0.095349 -0.195347
C19   C     C_R   0.450392 0.584744 0.187044 -0.216247
C20   C     C_R   0.505932 0.495880 0.231561 -0.087069
C21   C     C_R   0.563747 0.407046 0.183865 -0.068404
C22   C     C_R   0.564188 0.409422 0.090417 -0.029645
C23   C     C_R   0.502613 0.498535 0.327725 0.881124
C24   C     C_R   0.504912 0.499441 0.047344 0.039090
C25   C     C_R   0.548944 0.880010 0.569322 -0.280077
C26   C     C_R   0.547474 0.781196 0.568298 0.031223
C27   C     C_R   0.453298 0.809649 0.431365 0.020257
C28   C     C_R   0.453333 0.908876 0.429584 -0.287435
C29   C     C_R   0.501378 0.946213 0.499314 0.142213
C30   C     C_R   0.415516 0.131283 0.460960 -0.299602
C31   C     C_R   0.416724 0.230105 0.461667 0.017187
C32   C     C_R   0.584223 0.178466 0.537366 0.023994
C33   C     C_R   0.586602 0.078428 0.537553 -0.291174
C34   C     C_R   0.295681 0.555544 0.500454 0.872923
C35   C     C_R   0.501239 0.052959 0.499257 0.136603
C36   C     C_R   0.020438 0.690872 0.594180 -0.205497
C37   C     C_R   0.179466 0.589184 0.513554 -0.057820
C38   C     C_R   0.881167 0.313346 0.476916 -0.203043
C39   C     C_R   0.992101 0.286538 0.464381 -0.159698
C40   C     C_R   0.043246 0.356032 0.481950 -0.187440
H1    H     H_    0.164106 0.729354 0.580541 0.155448
H2    H     H_    0.573452 0.616650 0.778771 0.138818
H3    H     H_    0.420524 0.390012 0.778614 0.154541
H4    H     H_    0.419604 0.392408 0.941567 0.129564
H5    H     H_    0.404242 0.655218 0.061503 0.142904
H6    H     H_    0.405862 0.652775 0.223389 0.148629
H7    H     H_    0.585662 0.904518 0.625464 0.128407
H8    H     H_    0.584154 0.731447 0.622575 0.110092
H9    H     H_    0.416036 0.782216 0.377381 0.119315
H10   H     H_    0.828992 0.693701 0.655927 0.137679
H11   H     H_    0.417150 0.955322 0.373157 0.128501
H12   H     H_    0.346880 0.116998 0.431586 0.131276
H13   H     H_    0.350628 0.289005 0.431368 0.116296
H14   H     H_    0.650364 0.196868 0.566810 0.120532
H15   H     H_    0.655756 0.021443 0.566457 0.132136
H16   H     H_    0.978719 0.757785 0.632992 0.131548
H17   H     H_    0.170537 0.459322 0.447655 0.137140
H18   H     H_    0.841274 0.261228 0.456840 0.162967
H19   H     H_    0.129298 0.331363 0.469687 0.124204
H20   H     H_    0.037913 0.213141 0.437517 0.133484
H21   H     H_    0.745546 0.568524 0.627558 0.154189
H22   H     H_    0.574702 0.616501 0.941844 0.132825
N1    N     N_R   0.500000 0.747530 0.500020 -0.088183
N2    N     N_R   0.499940 0.252470 0.500020 -0.083627
O1    O     O_R   0.499990 0.420530 0.630930 -0.616543
O2    O     O_R   0.499990 0.579480 0.630940 -0.636030
O3    O     O_R   0.653620 0.381060 0.499970 -0.615953
O4    O     O_R   0.653620 0.540010 0.499980 -0.607851
O5    O     O_R   0.500010 0.420520 0.369060 -0.611447
O6    O     O_R   0.500010 0.579470 0.369070 -0.622827
O7    O     O_R   0.346380 0.459990 0.500020 -0.622735
O8    O     O_R   0.346380 0.618940 0.500030 -0.617178
Zn1   Zn    Zn3+2 0.500000 0.393860 0.499990 0.945719
Zn2   Zn    Zn3+2 0.500000 0.606140 0.500010 0.938436
C41   C     C_R   0.629320 0.314032 0.230191 0.141540
C42   C     C_R   0.740272 0.293932 0.244176 -0.139095
C43   C     C_R   0.803046 0.204385 0.284498 -0.150607
C44   C     C_R   0.755219 0.135129 0.311960 -0.123479
C45   C     C_R   0.644773 0.154648 0.297983 -0.125369
C46   C     C_R   0.581963 0.243543 0.256728 -0.099772
H23   H     H_    0.778054 0.347126 0.223164 0.122976
H24   H     H_    0.888747 0.188837 0.294786 0.125920
H25   H     H_    0.803803 0.066209 0.343784 0.124626
H26   H     H_    0.607918 0.100775 0.318871 0.135544
H27   H     H_    0.496581 0.257736 0.245636 0.108116
C47   C     C_R   0.629773 0.319902 0.037921 0.121984
C48   C     C_R   0.599311 0.234136 0.033257 -0.151646
C49   C     C_R   0.660689 0.150621 0.982947 -0.129160
C50   C     C_R   0.752450 0.152361 0.936821 -0.111207
C51   C     C_R   0.782982 0.237641 0.940947 -0.134074
C52   C     C_R   0.721928 0.321237 0.991320 -0.133393
H28   H     H_    0.527643 0.232431 0.067835 0.113922
H29   H     H_    0.636902 0.084688 0.979454 0.122907
H30   H     H_    0.799768 0.087714 0.897761 0.118584
H31   H     H_    0.853929 0.238982 0.905073 0.126447
H32   H     H_    0.746237 0.386967 0.994058 0.122182

loop_
_geom_bond_atom_site_label_1
_geom_bond_atom_site_label_2
_ccdc_geom_bond_type
C33   H15   S    
C48   C49   A    
C34   C37   S    
C23   O5    A    
C19   C20   A    
C41   C42   A    
C11   H22   S    
C19   H6    S    
C51   H31   S    
C43   C44   A    
C12   O4    A    
C30   C35   A    
C18   C24   A    
C5    C6    A    
C28   C29   A    
C3    C7    A    
C47   C52   A    
C30   C31   A    
C28   H11   S    
O4    Zn2   S    
C15   C16   A    
O2    Zn2   S    
C5    C36   A    
C50   H30   S    
O1    Zn1   S    
C18   C19   A    
C4    C8    A    
C7    H21   S    
C30   H12   S    
C52   H32   S    
C38   H18   S    
C44   H25   S    
C16   C17   A    
O6    Zn2   S    
C9    C36   A    
C1    O1    A    
N2    Zn1   S    
O5    Zn1   S    
O3    Zn1   S    
C41   C46   A    
C16   H4    S    
C26   H8    S    
C49   C50   A    
C40   H19   S    
C13   C14   A    
C45   H26   S    
C23   O6    A    
C32   H14   S    
C13   H2    S    
C25   C29   A    
C12   O3    A    
C17   C24   S    
C42   C43   A    
C32   N2    A    
O8    Zn2   S    
C39   C40   A    
O7    Zn1   S    
C44   C45   A    
C25   H7    S    
C25   C26   A    
C6    H10   S    
C2    C4    A    
C26   N1    A    
C46   H27   S    
C36   H16   S    
C8    H17   S    
C20   C23   S    
C9    C37   A    
C1    O2    A    
C31   H13   S    
C10   C12   S    
C22   C24   A    
C8    C37   A    
C18   H5    S    
C34   O8    A    
C48   H28   S    
C21   C41   S    
C49   H29   S    
C11   C17   A    
C47   C48   A    
C31   N2    A    
C4    C5    A    
C42   H23   S    
C6    C7    A    
N1    Zn2   S    
C29   C35   S    
C9    H1    S    
C10   C38   A    
C32   C33   A    
C2    C3    A    
C15   H3    S    
C3    C10   A    
C11   C13   A    
C51   C52   A    
C38   C39   A    
C43   H24   S    
C39   H20   S    
C33   C35   A    
C22   C47   S    
C45   C46   A    
C2    C40   A    
C20   C21   A    
C27   C28   A    
C14   C15   A    
C27   N1    A    
C1    C14   S    
C50   C51   A    
C21   C22   A    
C34   O7    A    
C27   H9    S    
