data_mof_unit_31463.cif
_audit_creation_date              2012-12-10T18:04:28-0500
_audit_creation_method            fapswitch 2.2
_symmetry_space_group_name_H-M    P1
_symmetry_Int_Tables_number       1
_space_group_crystal_system       triclinic
_cell_length_a                    19.001943
_cell_length_b                    17.754903
_cell_length_c                    12.617577
_cell_angle_alpha                 90.627173
_cell_angle_beta                  99.808594
_cell_angle_gamma                 90.260964
_cell_volume                      4194.32254295

loop_
_atom_site_label
_atom_site_type_symbol
_atom_type_description
_atom_site_fract_x
_atom_site_fract_y
_atom_site_fract_z
_atom_type_partial_charge
C1    C     C_R   0.406643 0.098230 0.441304 0.861039
C2    C     C_R   0.416125 0.892123 0.448176 0.834551
C3    C     C_R   0.906643 0.598229 0.441304 0.861040
C4    C     C_R   0.916126 0.392123 0.448176 0.834552
C5    C     C_R   0.766314 0.197070 0.566857 0.044102
C6    C     C_R   0.689308 0.726271 0.496786 0.034896
C7    C     C_R   0.266314 0.697070 0.566857 0.044102
C8    C     C_R   0.189308 0.226271 0.496786 0.034896
C9    C     C_R   0.776057 0.235606 0.666808 0.074319
C10   C     C_R   0.690281 0.681351 0.588407 0.086569
C11   C     C_R   0.276057 0.735606 0.666808 0.074319
C12   C     C_R   0.190280 0.181351 0.588406 0.086569
C13   C     C_R   0.337655 0.778434 0.698097 -0.193705
C14   C     C_R   0.225736 0.112724 0.593958 -0.189050
C15   C     C_R   0.837655 0.278434 0.698097 -0.193705
C16   C     C_R   0.725736 0.612724 0.593958 -0.189050
C17   C     C_R   0.381113 0.794100 0.622994 -0.148323
C18   C     C_R   0.269856 0.096302 0.519483 -0.186628
C19   C     C_R   0.881113 0.294100 0.622994 -0.148323
C20   C     C_R   0.769856 0.596302 0.519484 -0.186629
C21   C     C_R   0.714402 0.140914 0.548824 0.141097
C22   C     C_R   0.639709 0.783638 0.479524 0.159624
C23   C     C_R   0.214402 0.640914 0.548824 0.141097
C24   C     C_R   0.139709 0.283638 0.479524 0.159625
C25   C     C_R   0.660252 0.191477 0.695402 0.250215
C26   C     C_R   0.624325 0.777630 0.666488 0.250911
C27   C     C_R   0.160252 0.691477 0.695402 0.250215
C28   C     C_R   0.124324 0.277629 0.666488 0.250911
C29   C     C_R   0.381079 0.817593 0.428262 -0.103942
C30   C     C_R   0.348168 0.149430 0.401192 -0.117510
C31   C     C_R   0.881079 0.317593 0.428262 -0.103942
C32   C     C_R   0.848168 0.649429 0.401192 -0.117510
C33   C     C_R   0.648553 0.999726 0.138605 0.175756
C34   C     C_R   0.148553 0.499725 0.138605 0.175756
C35   C     C_R   0.378680 0.017132 0.762022 0.018122
C36   C     C_R   0.878680 0.517132 0.762022 0.018122
C37   C     C_R   0.359855 0.056156 0.848813 -0.233001
C38   C     C_R   0.859855 0.556156 0.848813 -0.233001
C39   C     C_R   0.584677 0.893101 0.552298 0.936905
C40   C     C_R   0.592885 0.099235 0.559108 0.950291
C41   C     C_R   0.084677 0.393101 0.552298 0.936904
C42   C     C_R   0.092884 0.599235 0.559108 0.950292
C43   C     C_R   0.411606 0.068335 0.939554 -0.145236
C44   C     C_R   0.911606 0.568335 0.939554 -0.145237
C45   C     C_R   0.478442 0.032772 0.948347 0.021199
C46   C     C_R   0.978442 0.532772 0.948347 0.021199
C47   C     C_R   0.498981 0.009214 0.851883 0.247857
C48   C     C_R   0.998981 0.509214 0.851883 0.247858
C49   C     C_R   0.526079 0.021394 0.046645 -0.057752
C50   C     C_R   0.026079 0.521394 0.046645 -0.057752
C51   C     C_R   0.599719 0.009905 0.042880 0.068062
C52   C     C_R   0.099719 0.509905 0.042880 0.068062
C53   C     C_R   0.621988 0.004524 0.942844 -0.148736
C54   C     C_R   0.121988 0.504524 0.942844 -0.148736
C55   C     C_R   0.571842 0.001053 0.848927 -0.110206
C56   C     C_R   0.071842 0.501053 0.848927 -0.110207
C57   C     C_R   0.502496 0.010038 0.146273 0.170558
C58   C     C_R   0.002496 0.510038 0.146273 0.170558
C59   C     C_R   0.623112 0.995753 0.235026 -0.012551
C60   C     C_R   0.123112 0.495752 0.235026 -0.012550
C61   C     C_R   0.723548 0.231255 0.731967 -0.212765
C62   C     C_R   0.656055 0.706425 0.671941 -0.201343
C63   C     C_R   0.223548 0.731255 0.731967 -0.212765
C64   C     C_R   0.156055 0.206424 0.671940 -0.201343
C65   C     C_R   0.655431 0.145549 0.601757 -0.206410
C66   C     C_R   0.617400 0.818288 0.568937 -0.197346
C67   C     C_R   0.155432 0.645549 0.601757 -0.206410
C68   C     C_R   0.117400 0.318287 0.568937 -0.197347
C69   C     C_R   0.365374 0.789046 0.322987 -0.169775
C70   C     C_R   0.357833 0.201468 0.321858 -0.202773
C71   C     C_R   0.865374 0.289046 0.322987 -0.169775
C72   C     C_R   0.857832 0.701466 0.321858 -0.202779
C73   C     C_R   0.318638 0.728578 0.298012 -0.117962
C74   C     C_R   0.310268 0.260408 0.297347 -0.109466
C75   C     C_R   0.818638 0.228578 0.298012 -0.117962
C76   C     C_R   0.810267 0.760406 0.297347 -0.109468
C77   C     C_R   0.285654 0.697029 0.377433 -0.118861
C78   C     C_R   0.253877 0.269149 0.353558 -0.102011
C79   C     C_R   0.785654 0.197029 0.377433 -0.118861
C80   C     C_R   0.753877 0.769148 0.353558 -0.102013
C81   C     C_R   0.304573 0.720636 0.485992 0.105175
C82   C     C_R   0.240703 0.215094 0.429553 0.108083
C83   C     C_R   0.804573 0.220636 0.485992 0.105175
C84   C     C_R   0.740703 0.715094 0.429553 0.108083
C85   C     C_R   0.357385 0.777157 0.512628 0.070871
C86   C     C_R   0.286082 0.152340 0.448711 0.086398
C87   C     C_R   0.857385 0.277156 0.512628 0.070872
C88   C     C_R   0.786082 0.652340 0.448711 0.086401
H1    H     H_    0.677584 0.997422 0.936277 0.208617
H2    H     H_    0.177584 0.497421 0.936277 0.208617
H3    H     H_    0.340192 0.009256 0.689768 0.126985
H4    H     H_    0.840192 0.509255 0.689769 0.126985
H5    H     H_    0.400169 0.107996 0.999414 0.152692
H6    H     H_    0.900169 0.607996 0.999413 0.152692
H7    H     H_    0.306908 0.079499 0.844067 0.155023
H8    H     H_    0.806908 0.579498 0.844067 0.155023
H9    H     H_    0.591771 0.992911 0.775566 0.216165
H10   H     H_    0.091771 0.492910 0.775566 0.216165
H11   H     H_    0.351193 0.801281 0.779069 0.157602
H12   H     H_    0.220500 0.072838 0.656540 0.137207
H13   H     H_    0.851193 0.301281 0.779069 0.157602
H14   H     H_    0.720501 0.572838 0.656540 0.137207
H15   H     H_    0.729355 0.263116 0.806758 0.173776
H16   H     H_    0.658008 0.673100 0.743835 0.177969
H17   H     H_    0.229355 0.763116 0.806758 0.173776
H18   H     H_    0.158008 0.173100 0.743835 0.177969
H19   H     H_    0.386916 0.815349 0.259079 0.184073
H20   H     H_    0.404396 0.199062 0.282936 0.168614
H21   H     H_    0.886916 0.315349 0.259079 0.184073
H22   H     H_    0.904393 0.699059 0.282934 0.168616
H23   H     H_    0.743414 0.156628 0.351654 0.184953
H24   H     H_    0.723289 0.820345 0.340366 0.192993
H25   H     H_    0.243414 0.656628 0.351654 0.184953
H26   H     H_    0.223290 0.320347 0.340367 0.192993
H27   H     H_    0.304499 0.709182 0.215433 0.173528
H28   H     H_    0.319622 0.302083 0.239210 0.188888
H29   H     H_    0.804499 0.209182 0.215433 0.173529
H30   H     H_    0.819620 0.802079 0.239209 0.188889
H31   H     H_    0.430940 0.823005 0.651718 0.210085
H32   H     H_    0.293886 0.041263 0.521115 0.154182
H33   H     H_    0.930940 0.323005 0.651718 0.210085
H34   H     H_    0.793886 0.541263 0.521115 0.154182
H35   H     H_    0.659661 0.986757 0.308762 0.210799
H36   H     H_    0.159661 0.486756 0.308762 0.210798
N1    N     N_R   0.552340 0.000000 0.237260 -0.129449
N2    N     N_R   0.052340 0.500000 0.237260 -0.129449
N3    N     N_R   0.448170 0.000000 0.762060 -0.130752
N4    N     N_R   0.948170 0.500000 0.762060 -0.130751
O1    O     O_R   0.448200 0.076800 0.373930 -0.640722
O2    O     O_R   0.448200 0.923200 0.373930 -0.615574
O3    O     O_R   0.948200 0.576800 0.373930 -0.640722
O4    O     O_R   0.948200 0.423200 0.373930 -0.615574
O5    O     O_R   0.414750 0.076790 0.542400 -0.591285
O6    O     O_R   0.414750 0.923210 0.542400 -0.641588
O7    O     O_R   0.914750 0.576790 0.542400 -0.591285
O8    O     O_R   0.914750 0.423210 0.542400 -0.641589
O9    O     O_R   0.585240 0.923200 0.457600 -0.560465
O10   O     O_R   0.585240 0.076800 0.457600 -0.584782
O11   O     O_R   0.085240 0.423200 0.457600 -0.560465
O12   O     O_R   0.085240 0.576800 0.457600 -0.584781
O13   O     O_R   0.551780 0.923190 0.626070 -0.622281
O14   O     O_R   0.551780 0.076810 0.626070 -0.583944
O15   O     O_R   0.051780 0.423190 0.626070 -0.622281
O16   O     O_R   0.051780 0.576810 0.626070 -0.583943
Zn1   Zn    Zn3+2 0.522330 0.000000 0.387520 0.970709
Zn2   Zn    Zn3+2 0.022330 0.500000 0.387520 0.970709
Zn3   Zn    Zn3+2 0.477660 0.000000 0.612480 0.962688
Zn4   Zn    Zn3+2 0.977660 0.500000 0.612480 0.962688
Br1   Br    Br    0.584515 0.202464 0.777682 -0.485677
Br2   Br    Br    0.588550 0.811158 0.792210 -0.524440
Br3   Br    Br    0.084515 0.702464 0.777682 -0.485677
Br4   Br    Br    0.088549 0.311158 0.792209 -0.524439
Br5   Br    Br    0.749564 0.988052 0.143503 -0.506243
Br6   Br    Br    0.249564 0.488051 0.143503 -0.506244
C89   C     C_3   0.423904 0.996693 0.151595 -0.367677
C90   C     C_3   0.394266 0.924496 0.091040 -0.358462
C91   C     C_3   0.315126 0.913507 0.095881 -0.873932
H37   H     H_    0.305970 0.914145 0.180488 0.260644
H38   H     H_    0.283433 0.959201 0.051489 0.274015
H39   H     H_    0.296427 0.858606 0.058049 0.257931
H40   H     H_    0.400007 0.925519 0.005253 0.238650
H41   H     H_    0.425276 0.875468 0.126575 0.241295
H42   H     H_    0.415646 0.991628 0.233259 0.263372
H43   H     H_    0.389929 0.045693 0.129199 0.166911
C92   C     C_3   0.923904 0.496693 0.151595 -0.367677
C93   C     C_3   0.894266 0.424496 0.091040 -0.358461
C94   C     C_3   0.815125 0.413507 0.095881 -0.873932
H44   H     H_    0.805970 0.414145 0.180488 0.260644
H45   H     H_    0.783433 0.459201 0.051489 0.274015
H46   H     H_    0.796427 0.358606 0.058049 0.257931
H47   H     H_    0.900006 0.425519 0.005253 0.238650
H48   H     H_    0.925276 0.375468 0.126575 0.241295
H49   H     H_    0.915646 0.491629 0.233259 0.263372
H50   H     H_    0.889929 0.545693 0.129199 0.166911
Br7   Br    Br    0.741223 0.044599 0.495572 -0.510061
Br8   Br    Br    0.582373 0.788647 0.336529 -0.494279
Br9   Br    Br    0.241223 0.544599 0.495572 -0.510062
Br10  Br    Br    0.082374 0.288647 0.336528 -0.494278

loop_
_geom_bond_atom_site_label_1
_geom_bond_atom_site_label_2
_ccdc_geom_bond_type
C83   C87   A    
C39   O9    A    
O11   Zn2   S    
C93   H48   S    
C92   C93   S    
C40   O14   A    
C14   C18   A    
C75   H29   S    
C56   H10   S    
O16   Zn4   S    
N2    Zn2   S    
C53   H1    S    
C94   H45   S    
C78   H26   S    
C64   H18   S    
C7    C11   A    
O6    Zn3   S    
C57   C89   S    
C91   H37   S    
C2    C29   S    
C17   C85   A    
O9    Zn1   S    
C90   C91   S    
C61   H15   S    
C41   O15   A    
C1    O1    A    
C57   N1    A    
C12   C64   A    
C33   Br5   S    
O10   Zn1   S    
C92   H49   S    
C6    C22   A    
C44   H6    S    
C20   C88   A    
C49   C57   A    
C37   H7    S    
O3    Zn2   S    
C25   Br1   S    
C45   C47   A    
C23   C67   A    
C60   H36   S    
C58   C92   S    
C22   C66   A    
C13   H11   S    
C43   H5    S    
C39   O13   A    
C41   O11   A    
C44   C46   A    
C49   C51   A    
C40   O10   A    
C70   C74   A    
C50   C52   A    
C69   C73   A    
O5    Zn3   S    
C45   C49   A    
C8    C12   A    
C30   C86   A    
C20   H34   S    
C72   C76   A    
C4    O8    A    
C21   C65   A    
C36   H4    S    
C31   C71   A    
C90   H41   S    
C93   H47   S    
C91   H38   S    
O2    Zn1   S    
C34   C60   A    
C80   H24   S    
C10   C62   A    
C1    O5    A    
C89   H42   S    
C30   C70   A    
C52   C54   A    
C38   C44   A    
C94   H46   S    
C54   C56   A    
C53   C55   A    
C59   H35   S    
O15   Zn4   S    
C72   H22   S    
C71   C75   A    
C6    C84   A    
C42   O12   A    
C80   C84   A    
C26   C66   A    
C84   C88   A    
C26   Br2   S    
C31   C87   A    
C4    O4    A    
O12   Zn2   S    
C94   H44   S    
O13   Zn3   S    
N4    Zn4   S    
C25   C61   A    
C21   Br7   S    
C92   H50   S    
C82   C86   A    
C24   C68   A    
C62   H16   S    
C76   H30   S    
C51   C53   A    
C50   C58   A    
C37   C43   A    
C42   O16   A    
C15   C19   A    
C5    C9    A    
C9    C61   A    
C48   N4    A    
C78   C82   A    
C77   H25   S    
C77   C81   A    
C16   C20   A    
C74   H28   S    
C55   H9    S    
C25   C65   A    
C14   H12   S    
C18   C86   A    
C15   H13   S    
C35   N3    A    
C43   C45   A    
O8    Zn4   S    
C27   C63   A    
C28   C64   A    
C16   H14   S    
C7    C81   A    
C12   C14   A    
C90   H40   S    
C58   N2    A    
C34   Br6   S    
C40   C65   S    
C24   Br10  S    
C42   C67   S    
C89   H43   S    
C39   C66   S    
C3    O3    A    
C63   H17   S    
C18   H32   S    
C36   N4    A    
C35   C37   A    
C47   C55   A    
C48   C56   A    
C41   C68   S    
C19   H33   S    
C27   Br3   S    
C28   C68   A    
C29   C85   A    
O14   Zn3   S    
C76   C80   A    
C6    C10   A    
C22   Br8   S    
C2    O6    A    
C5    C83   A    
C54   H2    S    
C79   H23   S    
C91   H39   S    
C33   C51   A    
C46   C50   A    
C34   C52   A    
C73   H27   S    
C13   C17   A    
O4    Zn2   S    
C28   Br4   S    
C36   C38   A    
C9    C15   A    
C19   C87   A    
N1    Zn1   S    
C59   N1    A    
C79   C83   A    
C11   C13   A    
C93   C94   S    
C47   N3    A    
C7    C23   A    
C71   H21   S    
C60   N2    A    
C1    C30   S    
C8    C24   A    
C2    O2    A    
C3    O7    A    
O1    Zn1   S    
C26   C62   A    
C3    C32   S    
C69   H19   S    
C23   Br9   S    
C4    C31   S    
C27   C67   A    
C17   H31   S    
C46   C48   A    
C8    C82   A    
C5    C21   A    
C33   C59   A    
O7    Zn4   S    
C74   C78   A    
C38   H8    S    
C89   C90   S    
C73   C77   A    
C29   C69   A    
C10   C16   A    
C11   C63   A    
C75   C79   A    
C70   H20   S    
C81   C85   A    
C35   H3    S    
N3    Zn3   S    
C32   C72   A    
C32   C88   A    
