data_mof_unit_52810.cif
_audit_creation_date              2013-03-05T15:42:49-0500
_audit_creation_method            fapswitch 2.2
_symmetry_space_group_name_H-M    P1
_symmetry_Int_Tables_number       1
_space_group_crystal_system       triclinic
_cell_length_a                    6.942574
_cell_length_b                    14.7763
_cell_length_c                    16.23111
_cell_angle_alpha                 90.418568
_cell_angle_beta                  89.741763
_cell_angle_gamma                 90.276965
_cell_volume                      1664.99691358

loop_
_atom_site_label
_atom_site_type_symbol
_atom_site_description
_atom_site_fract_x
_atom_site_fract_y
_atom_site_fract_z
_atom_type_partial_charge
O1    O     O_R   0.494400 0.416610 0.413880 -0.569137
O2    O     O_R   0.823920 0.406790 0.585520 -0.517569
O3    O     O_R   0.994250 0.583390 0.586120 -0.560531
C1    C     C_R   0.654541 0.383544 0.612346 0.903761
O4    O     O_R   0.824110 0.405730 0.414490 -0.548457
O5    O     O_R   0.994440 0.582310 0.413870 -0.561486
C2    C     C_R   0.655746 0.385181 0.385216 0.844278
O6    O     O_R   0.494210 0.417690 0.586130 -0.519116
O7    O     O_3   0.660810 0.557940 0.500000 -0.273119
V1    V     V_3+5 0.935650 0.489250 0.500000 1.237434
O8    O     O_R   0.324160 0.593210 0.414480 -0.531581
C3    C     C_R   0.157316 0.612881 0.384497 0.776447
O9    O     O_R   0.323970 0.594270 0.585510 -0.537391
C4    C     C_R   0.155853 0.615214 0.614813 0.880401
V2    V     V_3+5 0.435660 0.510750 0.500000 1.257217
O10   O     O_3   0.160630 0.442060 0.500000 -0.248987
H1    H     H_    0.336743 0.913247 0.513490 0.157438
C5    C     C_R   0.078325 0.561572 0.787839 0.267916
C6    C     C_R   0.987105 0.537109 0.862451 0.060737
C7    C     C_R   0.932321 0.604399 0.919219 0.359891
C8    C     C_R   0.979111 0.694672 0.903210 -0.166667
C9    C     C_R   0.062980 0.721337 0.827697 -0.051208
C10   C     C_R   0.096573 0.654424 0.765779 -0.053989
C11   C     C_R   0.117218 0.812893 0.813996 -0.066292
C12   C     C_R   0.182043 0.839275 0.734582 -0.015199
C13   C     C_R   0.193884 0.774261 0.669610 0.011989
C14   C     C_R   0.150405 0.681814 0.684640 -0.093772
C15   C     C_R   0.228184 0.930768 0.717593 -0.141270
C16   C     C_R   0.285087 0.958329 0.638526 0.351621
C17   C     C_R   0.294665 0.893857 0.575224 -0.079363
C18   C     C_R   0.249129 0.803630 0.590184 -0.127698
H2    H     H_    0.947971 0.743582 0.951148 0.121188
H3    H     H_    0.217813 0.981874 0.765380 0.110167
H4    H     H_    0.257738 0.757407 0.538346 0.096157
C19   C     C_2   0.013468 0.681639 0.258027 0.086135
C20   C     C_2   0.162249 0.675239 0.312533 0.184902
C21   C     C_2   0.014959 0.745770 0.186332 -0.030336
C22   C     C_2   0.113920 0.824332 0.183285 -0.129052
H5    H     H_    0.925228 0.728179 0.133989 0.132813
H6    H     H_    0.199890 0.848026 0.234588 0.132501
C23   C     C_2   0.769832 0.191602 0.767751 -0.100462
C24   C     C_2   0.613531 0.177990 0.815515 -0.170152
H7    H     H_    0.898402 0.152201 0.779651 0.113279
H8    H     H_    0.479619 0.212422 0.803086 0.112139
C25   C     C_2   0.778532 0.254029 0.695517 0.136392
C26   C     C_2   0.642009 0.317144 0.680261 -0.093656
H9    H     H_    0.515014 0.322125 0.718873 0.097812
C27   C     C_2   0.769875 0.215999 0.207788 -0.154503
C28   C     C_2   0.611872 0.165883 0.189126 0.183257
H10   H     H_    0.893253 0.213597 0.166412 0.115707
C29   C     C_2   0.792376 0.274453 0.282551 0.149672
C30   C     C_2   0.643501 0.323150 0.313422 -0.092253
H11   H     H_    0.504613 0.319719 0.283085 0.078315
O11   O     O_R   0.770210 0.079270 0.910680 -0.567300
O12   O     O_R   0.440150 0.091160 0.082270 -0.520612
O13   O     O_R   0.269970 0.914530 0.082860 -0.532767
C31   C     C_R   0.607979 0.110364 0.112601 0.803304
O14   O     O_R   0.440480 0.090100 0.911240 -0.563290
O15   O     O_R   0.270310 0.913460 0.910610 -0.558583
C32   C     C_R   0.609271 0.111302 0.882865 0.839404
O16   O     O_R   0.769870 0.080340 0.082930 -0.572048
O17   O     O_3   0.603660 0.938980 0.996790 -0.263021
V3    V     V_3+5 0.328750 0.007610 0.996740 1.212130
O18   O     O_R   0.940600 0.902510 0.911180 -0.566870
C33   C     C_R   0.109024 0.880643 0.882731 0.793966
O19   O     O_R   0.940270 0.903570 0.082200 -0.558007
C34   C     C_R   0.107886 0.883360 0.110971 0.846131
V4    V     V_3+5 0.828770 0.986010 0.996670 1.187994
O20   O     O_3   0.103730 0.054750 0.996710 -0.271646
N1    N     N_R   0.344862 0.717794 0.295109 0.063655
O21   O     O_R   0.439489 0.758883 0.353565 -0.353076
O22   O     O_R   0.427803 0.705235 0.223915 -0.363438
N2    N     N_3   0.939030 0.244497 0.640122 -0.425364
H12   H     H_    0.065504 0.251915 0.674200 0.252776
H13   H     H_    0.936409 0.178526 0.616420 0.218190
N3    N     N_R   0.455098 0.155907 0.247012 0.070066
O23   O     O_R   0.278436 0.150487 0.221013 -0.383452
O24   O     O_R   0.490638 0.137533 0.323755 -0.325950
N4    N     N_3   0.980285 0.281995 0.318434 -0.445676
H14   H     H_    0.023744 0.217173 0.335466 0.252887
H15   H     H_    0.075555 0.305457 0.273241 0.201259
N5    N     N_R   0.182559 0.493614 0.743080 0.062160
O25   O     O_R   0.095287 0.422158 0.714508 -0.396505
O26   O     O_R   0.369714 0.497547 0.741057 -0.393790
N6    N     N_3   0.952528 0.443806 0.881650 -0.419518
H16   H     H_    0.862473 0.415921 0.836584 0.205655
H17   H     H_    0.083727 0.409357 0.880920 0.223684
N7    N     N_R   0.834749 0.582067 0.994907 0.098809
O27   O     O_R   0.872095 0.507316 0.033472 -0.339005
O28   O     O_R   0.711832 0.638383 0.027305 -0.365738
N8    N     N_R   0.330940 0.051731 0.622410 0.080853
O29   O     O_R   0.387648 0.076963 0.549524 -0.325711
O30   O     O_R   0.315728 0.112568 0.680360 -0.428175
N9    N     N_3   0.852128 0.620467 0.265312 -0.435638
H18   H     H_    0.752549 0.632887 0.218843 0.267347
H19   H     H_    0.902874 0.554989 0.253945 0.168588

loop_
_geom_bond_atom_site_label_1
_geom_bond_atom_site_label_2
_geom_bond_distance
_ccdc_geom_bond_type
O19   V4    2.013425 S    
N2    H13   1.045470 S    
C23   C24   1.345946 D    
C6    C7    1.403362 A    
C1    O6    1.299027 A    
O11   C32   1.299639 A    
N6    H16   1.045439 S    
C12   C15   1.416624 A    
C13   C14   1.420164 A    
C16   C17   1.397624 A    
O18   V4    2.006253 S    
C15   C16   1.403712 A    
C19   C21   1.506043 S    
C21   C22   1.347182 D    
N3    O24   1.301728 A    
C2    C30   1.479805 S    
O5    C3    1.305125 A    
C17   C18   1.391526 A    
O11   V4    2.012690 S    
O14   C32   1.295058 A    
V2    O10   2.158085 S    
C28   C31   1.483816 S    
C25   N2    1.435441 S    
C5    C6    1.412653 A    
N2    H12   1.044750 S    
O8    V2    2.013492 S    
C27   C29   1.492677 S    
V3    O20   1.713547 S    
V4    O20   2.158001 S    
O12   V3    2.006222 S    
N1    O21   1.301449 A    
O1    V2    2.006775 S    
C10   C14   1.428221 A    
C4    C14   1.496021 S    
C3    C20   1.493197 S    
O7    V1    2.165582 S    
C27   H10   1.086619 S    
O19   C34   1.292947 A    
C13   C18   1.414037 A    
C8    C9    1.412429 A    
H1    C17   1.082683 S    
C23   H7    1.086846 S    
C24   H8    1.082428 S    
C20   N1    1.440270 S    
N3    O23   1.300773 A    
N6    H17   1.045567 S    
C8    H2    1.079926 S    
C28   N3    1.442356 S    
C29   C30   1.354387 D    
C11   C12   1.420002 A    
C24   C32   1.477186 S    
N8    O29   1.301679 A    
O4    C2    1.297576 A    
C1    C26   1.483067 S    
C12   C13   1.423696 A    
C25   C26   1.357746 D    
C5    C10   1.425397 A    
C19   C20   1.367093 D    
O2    C1    1.297707 A    
O17   V3    2.165600 S    
N8    O30   1.300636 A    
O13   V3    2.007396 S    
C7    C8    1.397290 A    
N9    H19   1.046123 S    
O3    C4    1.301224 A    
C11   C33   1.494570 S    
C27   C28   1.354732 D    
N7    O28   1.301400 A    
C15   H3    1.080982 S    
O6    V2    2.012228 S    
N5    O26   1.300634 A    
O9    V2    2.006279 S    
C9    C11   1.421341 A    
O2    V1    2.004738 S    
C16   N8    1.440422 S    
C18   H4    1.081462 S    
C30   H11   1.085469 S    
N4    H15   1.045410 S    
C19   N9    1.440913 S    
O14   V3    2.004782 S    
C26   H9    1.081904 S    
O1    C2    1.297706 A    
C6    N6    1.434528 S    
O5    V1    2.007317 S    
C22   C34   1.468315 S    
O8    C3    1.293613 A    
C31   O16   1.299541 A    
O13   C34   1.296146 A    
O15   V3    2.006395 S    
O17   V4    1.707307 S    
O18   C33   1.296720 A    
O12   C31   1.296317 A    
O7    V2    1.708516 S    
O4    V1    2.006105 S    
C21   H5    1.085100 S    
O3    V1    2.006406 S    
V1    O10   1.713594 S    
O15   C33   1.299935 A    
C22   H6    1.081850 S    
O16   V4    2.010505 S    
C7    N7    1.439875 S    
C5    N5    1.432281 S    
N9    H18   1.043289 S    
C29   N4    1.434591 S    
N4    H14   1.045123 S    
N7    O27   1.301289 A    
N5    O25   1.298540 A    
C23   C25   1.497932 S    
C9    C10   1.423934 A    
N1    O22   1.301250 A    
O9    C4    1.296381 A    
