data_mof_unit_39944.cif
_audit_creation_date              2012-12-10T18:59:13-0500
_audit_creation_method            fapswitch 2.2
_symmetry_space_group_name_H-M    P1
_symmetry_Int_Tables_number       1
_space_group_crystal_system       triclinic
_cell_length_a                    10.773943
_cell_length_b                    10.823548
_cell_length_c                    9.552423
_cell_angle_alpha                 90.267811
_cell_angle_beta                  90.093314
_cell_angle_gamma                 89.870388
_cell_volume                      1113.91343661

loop_
_atom_site_label
_atom_site_type_symbol
_atom_type_description
_atom_site_fract_x
_atom_site_fract_y
_atom_site_fract_z
_atom_type_partial_charge
C1    C     C_R   0.502724 0.262377 0.499799 0.776875
C2    C     C_R   0.065942 0.390756 0.562251 0.099619
C3    C     C_R   0.128797 0.490730 0.499567 -0.089109
C4    C     C_R   0.063555 0.585285 0.433182 -0.204241
C5    C     C_R   0.935423 0.584985 0.433150 -0.219050
C6    C     C_R   0.871087 0.490342 0.499880 -0.084676
C7    C     C_R   0.517988 0.064220 0.625283 0.121475
C8    C     C_R   0.515737 0.129373 0.499565 -0.096160
C9    C     C_R   0.531159 0.063912 0.373349 -0.221924
C10   C     C_R   0.530317 0.935086 0.373542 -0.226024
C11   C     C_R   0.513812 0.870869 0.499872 -0.090832
C12   C     C_R   0.262552 0.498024 0.499890 0.790447
C13   C     C_R   0.515937 0.937249 0.625277 0.119302
C14   C     C_3   0.432153 0.932358 0.749467 -0.470199
C15   C     C_3   0.435284 0.072647 0.750271 -0.469856
C16   C     C_R   0.605331 0.528143 0.073952 0.270467
C17   C     C_R   0.400222 0.459020 0.073896 -0.085341
C18   C     C_R   0.400235 0.458948 0.925215 -0.086695
C19   C     C_R   0.605367 0.527912 0.926721 0.267857
C20   C     C_3   0.676606 0.645446 0.921528 -0.509328
C21   C     C_3   0.676625 0.645832 0.080495 -0.508976
C22   C     C_R   0.501910 0.737709 0.500137 0.797746
C23   C     C_R   0.737401 0.497532 0.500016 0.780401
C24   C     C_R   0.130517 0.289264 0.619597 -0.234832
C25   C     C_R   0.066550 0.189375 0.675439 -0.175009
C26   C     C_R   0.936899 0.187710 0.675351 0.159610
C27   C     C_R   0.871340 0.288103 0.619606 -0.214435
C28   C     C_R   0.934810 0.390390 0.562438 0.069252
Cu1   Cu    Cu3+1 0.499990 0.499980 0.640670 0.931645
Cu2   Cu    Cu3+1 0.500010 0.500020 0.359330 0.937410
H1    H     H_    0.112219 0.660774 0.383364 0.144100
H2    H     H_    0.478264 0.891298 0.842388 0.191472
H3    H     H_    0.344151 0.115532 0.726327 0.189484
H4    H     H_    0.484141 0.111940 0.842854 0.196980
H5    H     H_    0.318720 0.427193 0.128632 0.150342
H6    H     H_    0.318778 0.426956 0.869849 0.150085
H7    H     H_    0.770468 0.631919 0.875809 0.205928
H8    H     H_    0.621533 0.722034 0.875796 0.208854
H9    H     H_    0.770581 0.632651 0.126359 0.197951
H10   H     H_    0.622110 0.723174 0.126391 0.205894
H11   H     H_    0.230688 0.284639 0.618796 0.144118
H12   H     H_    0.118182 0.111913 0.717295 0.132173
H13   H     H_    0.771078 0.283488 0.617601 0.138607
H14   H     H_    0.886017 0.660212 0.383119 0.138300
H15   H     H_    0.537539 0.111511 0.274147 0.167055
H16   H     H_    0.536239 0.886702 0.274404 0.158192
H17   H     H_    0.339196 0.893795 0.723875 0.199350
N1    N     N_R   0.500790 0.500930 0.147930 -0.188041
N2    N     N_R   0.500790 0.500890 0.852020 -0.186806
O1    O     O_R   0.500000 0.319640 0.618810 -0.588671
O2    O     O_R   0.500010 0.319680 0.381230 -0.581192
O3    O     O_R   0.319640 0.499980 0.618820 -0.587858
O4    O     O_R   0.319650 0.500020 0.381230 -0.582628
O5    O     O_R   0.499990 0.680320 0.618770 -0.574165
O6    O     O_R   0.500000 0.680360 0.381190 -0.584081
O7    O     O_R   0.680350 0.499980 0.618770 -0.583361
O8    O     O_R   0.680360 0.500020 0.381180 -0.577116
C29   C     C_3   0.869529 0.076749 0.731428 -0.425366
C30   C     C_3   0.870865 0.970929 0.623996 -0.339530
C31   C     C_3   0.825438 0.850928 0.688883 -0.836699
H18   H     H_    0.893980 0.816860 0.766710 0.250330
H19   H     H_    0.735288 0.866056 0.741839 0.255498
H20   H     H_    0.813250 0.779637 0.606190 0.239283
H21   H     H_    0.809740 0.995467 0.534355 0.225240
H22   H     H_    0.966410 0.955585 0.583510 0.219310
H23   H     H_    0.914715 0.047005 0.830538 0.199293
H24   H     H_    0.771680 0.100839 0.756875 0.192257

loop_
_geom_bond_atom_site_label_1
_geom_bond_atom_site_label_2
_ccdc_geom_bond_type
C25   H12   S    
C10   H16   S    
Cu2   O2    S    
C15   H4    S    
C9    H15   S    
C16   C21   S    
C20   H7    S    
Cu1   O7    S    
C1    C8    S    
C20   H8    S    
C9    C10   A    
C19   N2    A    
C11   C22   S    
C12   O4    A    
C21   H9    S    
C17   N1    A    
C7    C13   A    
C10   C11   A    
C16   N1    A    
C7    C15   S    
C17   C18   A    
C26   C27   A    
C22   O6    A    
C30   C31   S    
C22   O5    A    
C25   C26   A    
Cu1   N2    S    
C13   C14   S    
C20   C21   S    
C24   H11   S    
C1    O2    A    
C30   H21   S    
Cu1   Cu2   S    
C21   H10   S    
C16   C19   A    
C6    C23   S    
Cu2   N1    S    
C12   O3    A    
C5    H14   S    
C15   H3    S    
C2    C3    A    
Cu1   O1    S    
C31   H20   S    
C2    C24   A    
C5    C6    A    
Cu2   O4    S    
C6    C28   A    
C11   C13   A    
C7    C8    A    
Cu1   O5    S    
C3    C4    A    
C4    H1    S    
Cu2   O8    S    
C27   H13   S    
C29   H24   S    
C23   O7    A    
C24   C25   A    
C31   H19   S    
C1    O1    A    
C26   C29   S    
C27   C28   A    
C23   O8    A    
C14   C15   S    
C31   H18   S    
C2    C28   A    
C3    C12   S    
C17   H5    S    
C4    C5    A    
C29   C30   S    
C14   H17   S    
C18   H6    S    
Cu2   O6    S    
C29   H23   S    
C30   H22   S    
C19   C20   S    
C18   N2    A    
C14   H2    S    
C8    C9    A    
Cu1   O3    S    
