data_mof_unit_14516.cif
_audit_creation_date              2012-10-26T20:33:00-0400
_audit_creation_method            fapswitch 2.2
_symmetry_space_group_name_H-M    P1
_symmetry_Int_Tables_number       1
_space_group_crystal_system       triclinic
_cell_length_a                    27.781893
_cell_length_b                    10.828402
_cell_length_c                    9.553463
_cell_angle_alpha                 90.389351
_cell_angle_beta                  89.935381
_cell_angle_gamma                 90.171172
_cell_volume                      2873.92082026

loop_
_atom_site_label
_atom_site_type_symbol
_atom_type_description
_atom_site_fract_x
_atom_site_fract_y
_atom_site_fract_z
_atom_type_partial_charge
C1    C     C_R   0.498985 0.262466 0.499590 0.545922
C2    C     C_R   0.974335 0.388977 0.471857 0.034077
C3    C     C_R   0.974438 0.608437 0.542009 0.016183
C4    C     C_R   0.407447 0.500080 0.500087 0.549234
C5    C     C_R   0.949108 0.498881 0.506251 0.023516
C6    C     C_R   0.947827 0.289310 0.414369 -0.112956
C7    C     C_R   0.897831 0.291306 0.409149 -0.119981
C8    C     C_R   0.872458 0.394626 0.456740 0.024746
C9    C     C_R   0.898008 0.499620 0.503050 -0.027886
C10   C     C_R   0.872418 0.605592 0.545206 0.025654
C11   C     C_R   0.821883 0.603408 0.543860 0.400321
C12   C     C_R   0.278417 0.486134 0.375972 -0.055525
C13   C     C_R   0.821945 0.396775 0.455636 0.399429
C14   C     C_R   0.721116 0.422825 0.593680 -0.040033
C15   C     C_R   0.670609 0.420532 0.594491 0.089881
C16   C     C_R   0.499460 0.737732 0.500231 0.568982
C17   C     C_R   0.670546 0.572859 0.408022 -0.171911
C18   C     C_R   0.720672 0.573954 0.407777 -0.068164
C19   C     C_R   0.746115 0.499052 0.500519 0.216810
C20   C     C_R   0.025197 0.384750 0.489589 0.054437
C21   C     C_R   0.050585 0.497835 0.509413 0.006682
C22   C     C_R   0.025378 0.610330 0.531612 0.017959
C23   C     C_R   0.253455 0.500504 0.502326 0.245180
C24   C     C_R   0.051909 0.272483 0.492048 0.079125
C25   C     C_R   0.102063 0.721328 0.535816 -0.111374
C26   C     C_R   0.947756 0.712693 0.586324 -0.139318
C27   C     C_R   0.897717 0.710844 0.588486 -0.110623
C28   C     C_R   0.592387 0.498958 0.500118 0.575238
C29   C     C_R   0.052103 0.721403 0.541525 -0.139654
C30   C     C_R   0.496096 0.065168 0.625020 0.000215
C31   C     C_R   0.494269 0.129528 0.499312 0.005500
C32   C     C_R   0.486419 0.063559 0.374171 -0.157296
C33   C     C_R   0.486830 0.934710 0.374657 -0.165358
C34   C     C_R   0.101680 0.498540 0.508228 -0.036411
C35   C     C_R   0.495276 0.871011 0.500181 0.021139
C36   C     C_R   0.497043 0.938006 0.625458 0.051414
C37   C     C_3   0.532784 0.936563 0.743000 -0.046771
C38   C     C_3   0.530974 0.077036 0.743162 -0.246700
C39   C     C_R   0.541686 0.518320 0.073812 0.142247
C40   C     C_R   0.177850 0.390026 0.492632 0.399113
C41   C     C_R   0.459808 0.469441 0.074076 -0.018445
C42   C     C_R   0.459778 0.469698 0.925594 -0.027159
C43   C     C_R   0.541854 0.517085 0.926300 0.210044
C44   C     C_3   0.573867 0.628017 0.922457 -0.053081
C45   C     C_R   0.127309 0.387252 0.495110 0.003267
C46   C     C_3   0.573569 0.628957 0.081773 -0.275729
C47   C     C_R   0.177805 0.609251 0.517777 0.399438
C48   C     C_R   0.278867 0.514872 0.627768 -0.056144
C49   C     C_R   0.329047 0.514494 0.627148 -0.141529
C50   C     C_R   0.328630 0.486415 0.374901 -0.140341
C51   C     C_R   0.102208 0.275456 0.490352 -0.103754
C52   C     C_R   0.127285 0.610614 0.520815 0.030112
C53   C     C_R   0.354421 0.500350 0.500621 0.008136
C54   C     C_R   0.645190 0.496804 0.500857 0.051582
Cu1   Cu    Cu3+1 0.500000 0.499980 0.640670 0.980319
Cu2   Cu    Cu3+1 0.500000 0.500020 0.359330 0.936674
H1    H     H_    0.347174 0.475149 0.275918 0.118533
H2    H     H_    0.482642 0.885699 0.276189 0.135094
H3    H     H_    0.518237 0.894533 0.840099 0.134744
H4    H     H_    0.258854 0.474998 0.278711 0.126174
H5    H     H_    0.513765 0.116047 0.838732 0.129508
H6    H     H_    0.565130 0.123136 0.712081 0.140646
H7    H     H_    0.427031 0.445725 0.128591 0.119680
H8    H     H_    0.426966 0.446330 0.870883 0.121699
H9    H     H_    0.556351 0.708740 0.874327 0.179313
H10   H     H_    0.608885 0.607202 0.129589 0.127906
H11   H     H_    0.555091 0.710807 0.127433 0.130187
H12   H     H_    0.259657 0.525865 0.725732 0.126097
H13   H     H_    0.121542 0.188651 0.489506 0.166487
H14   H     H_    0.741201 0.365008 0.664777 0.127826
H15   H     H_    0.879166 0.211655 0.366254 0.166977
H16   H     H_    0.965014 0.210754 0.366099 0.159996
H17   H     H_    0.347904 0.525707 0.725580 0.121176
H18   H     H_    0.592039 0.931785 0.610421 0.242334
H19   H     H_    0.604219 0.906723 0.780463 0.231072
H20   H     H_    0.643530 0.676428 0.880984 0.234630
H21   H     H_    0.636475 0.524466 0.911972 0.245945
H22   H     H_    0.669047 0.294084 0.753641 0.220288
H23   H     H_    0.120873 0.808901 0.543590 0.164724
H24   H     H_    0.628634 0.271271 0.625741 0.218229
H25   H     H_    0.039663 0.096184 0.430146 0.223901
H26   H     H_    0.041180 0.117684 0.605475 0.238559
H27   H     H_    0.964626 0.796388 0.623721 0.115411
H28   H     H_    0.651525 0.633444 0.337721 0.112739
H29   H     H_    0.878917 0.792962 0.623512 0.168183
H30   H     H_    0.739819 0.633195 0.335639 0.140817
H31   H     H_    0.035298 0.810775 0.549681 0.108968
H32   H     H_    0.482146 0.110882 0.275462 0.138894
N1    N     N_R   0.201898 0.499993 0.503517 -0.398285
N2    N     N_R   0.797764 0.499834 0.499898 -0.396941
N3    N     N_R   0.500300 0.500930 0.147930 -0.236201
N4    N     N_R   0.500310 0.500890 0.852020 -0.247065
N5    N     N_3   0.579678 0.887037 0.700428 -0.620623
N6    N     N_3   0.621103 0.600471 0.861958 -0.571231
N7    N     N_3   0.645073 0.339457 0.687345 -0.604559
N8    N     N_3   0.028910 0.155139 0.511466 -0.654651
O1    O     O_R   0.500000 0.319640 0.618810 -0.498410
O2    O     O_R   0.569730 0.499960 0.618810 -0.431479
O3    O     O_R   0.569740 0.500000 0.381220 -0.516363
O4    O     O_2   0.202808 0.283746 0.480360 -0.489709
O5    O     O_2   0.797162 0.296949 0.410093 -0.499080
O6    O     O_2   0.202690 0.716117 0.528673 -0.489106
O7    O     O_2   0.797027 0.703573 0.587087 -0.495994
O8    O     O_R   0.500010 0.319680 0.381230 -0.504925
O9    O     O_R   0.430260 0.500000 0.618780 -0.517767
O10   O     O_R   0.430270 0.500040 0.381190 -0.513240
O11   O     O_R   0.499990 0.680320 0.618770 -0.483774
O12   O     O_R   0.500000 0.680360 0.381190 -0.513768

loop_
_geom_bond_atom_site_label_1
_geom_bond_atom_site_label_2
_ccdc_geom_bond_type
C10   C27   A    
Cu1   Cu2   S    
C33   H2    S    
C22   C29   A    
C13   N2    A    
C14   H14   S    
C41   C42   A    
C35   C36   A    
C7    C8    A    
C6    H16   S    
C12   C23   A    
C26   C27   A    
C18   H30   S    
Cu1   O9    S    
C26   H27   S    
C36   C37   S    
C46   H10   S    
C24   N8    S    
C16   C35   S    
C7    H15   S    
C30   C31   A    
C4    C53   S    
C45   C51   A    
C32   H32   S    
H21   N6    S    
C1    C31   S    
C30   C38   S    
C18   C19   A    
C27   H29   S    
Cu2   O12   S    
C16   O11   A    
H20   N6    S    
Cu2   N3    S    
C20   C24   A    
C8    C9    A    
C23   N1    S    
C40   N1    A    
C9    C10   A    
C38   H5    S    
C24   C51   A    
C47   O6    S    
C21   C22   A    
C47   N1    A    
H18   N5    S    
C44   H9    S    
C2    C6    A    
C39   N3    A    
C44   C46   S    
C25   C29   A    
C40   C45   A    
C50   C53   A    
H26   N8    S    
C2    C20   A    
C15   C54   A    
Cu2   O8    S    
C1    O1    A    
H25   N8    S    
C28   C54   S    
C39   C43   A    
C21   C34   A    
C4    O10   A    
Cu1   O11   S    
C47   C52   A    
C43   C44   S    
C5    C9    A    
C37   C38   S    
C31   C32   A    
H22   N7    S    
Cu1   O1    S    
C17   C18   A    
C37   N5    S    
C34   C45   A    
C48   H12   S    
H24   N7    S    
C1    O8    A    
Cu2   O10   S    
C37   H3    S    
C39   C46   S    
C28   O3    A    
C48   C49   A    
C41   N3    A    
Cu1   N4    S    
C49   H17   S    
C2    C5    A    
C41   H7    S    
C13   O5    S    
C42   H8    S    
H19   N5    S    
C28   O2    A    
C23   C48   A    
C25   H23   S    
C50   H1    S    
C14   C19   A    
C3    C26   A    
C3    C5    A    
C40   O4    S    
C12   C50   A    
C6    C7    A    
C4    O9    A    
C34   C52   A    
C43   N4    A    
C30   C36   A    
C17   H28   S    
C32   C33   A    
C25   C52   A    
C46   H11   S    
C19   N2    S    
C15   N7    S    
C11   N2    A    
C49   C53   A    
Cu1   O2    S    
C33   C35   A    
C42   N4    A    
C29   H31   S    
C44   N6    S    
C10   C11   A    
C16   O12   A    
C12   H4    S    
C8    C13   A    
C20   C21   A    
C14   C15   A    
C3    C22   A    
C11   O7    S    
C51   H13   S    
Cu2   O3    S    
C17   C54   A    
C38   H6    S    
