data_mof_unit_41456.cif
_audit_creation_date              2012-12-11T15:22:41-0500
_audit_creation_method            fapswitch 2.2
_symmetry_space_group_name_H-M    P1
_symmetry_Int_Tables_number       1
_space_group_crystal_system       triclinic
_cell_length_a                    22.407896
_cell_length_b                    13.019461
_cell_length_c                    26.865207
_cell_angle_alpha                 90.111112
_cell_angle_beta                  90.457146
_cell_angle_gamma                 89.738096
_cell_volume                      7837.27578099

loop_
_atom_site_label
_atom_site_type_symbol
_atom_type_description
_atom_site_fract_x
_atom_site_fract_y
_atom_site_fract_z
_atom_type_partial_charge
C1    C     C_R   0.719947 0.343013 0.177362 0.541882
C2    C     C_R   0.461118 0.253864 0.901201 -0.153128
C3    C     C_R   0.006601 0.582990 0.554336 -0.127935
C4    C     C_R   0.499426 0.086554 0.393507 -0.127671
C5    C     C_R   0.495068 0.079418 0.605114 -0.128961
C6    C     C_R   0.999432 0.586554 0.393511 -0.127664
C7    C     C_R   0.995077 0.579419 0.605118 -0.128868
C8    C     C_R   0.745196 0.939827 0.367993 0.047516
C9    C     C_R   0.279663 0.031084 0.616504 0.034634
C10   C     C_R   0.245195 0.439826 0.367993 0.047516
C11   C     C_R   0.779667 0.531095 0.616502 0.034638
C12   C     C_R   0.698094 0.885994 0.391734 0.111603
C13   C     C_R   0.002076 0.751142 0.107453 -0.157678
C14   C     C_R   0.321853 0.964746 0.593040 0.108863
C15   C     C_R   0.198093 0.385995 0.391735 0.111601
C16   C     C_R   0.821855 0.464747 0.593039 0.109068
C17   C     C_R   0.703344 0.861575 0.442068 -0.126354
C18   C     C_R   0.322742 0.956538 0.541144 -0.122385
C19   C     C_R   0.203342 0.361579 0.442068 -0.126358
C20   C     C_R   0.822746 0.456535 0.541144 -0.122338
C21   C     C_R   0.755517 0.884393 0.468162 -0.031019
C22   C     C_R   0.284014 0.015101 0.511567 -0.024382
C23   C     C_R   0.255515 0.384394 0.468162 -0.031020
C24   C     C_R   0.961110 0.753945 0.901147 -0.153856
C25   C     C_R   0.784026 0.515107 0.511565 -0.024342
C26   C     C_R   0.805148 0.921987 0.443006 -0.091632
C27   C     C_R   0.246678 0.086819 0.534347 -0.087490
C28   C     C_R   0.305147 0.421984 0.443006 -0.091623
C29   C     C_R   0.746698 0.586840 0.534342 -0.087466
C30   C     C_R   0.801082 0.948332 0.393059 0.107065
C31   C     C_R   0.240230 0.089624 0.585622 0.099838
C32   C     C_R   0.301082 0.448329 0.393058 0.107059
C33   C     C_R   0.740243 0.589646 0.585616 0.099569
C34   C     C_R   0.808354 0.825912 0.543417 -0.137747
C35   C     C_R   0.487012 0.251260 0.056627 0.041016
C36   C     C_R   0.214412 0.993049 0.440487 -0.137073
C37   C     C_R   0.308348 0.325897 0.543416 -0.137692
C38   C     C_R   0.714425 0.493075 0.440482 -0.137054
C39   C     C_R   0.721607 0.349173 0.321190 0.548904
C40   C     C_R   0.279176 0.346502 0.677947 0.517068
C41   C     C_R   0.221607 0.849172 0.321190 0.548906
C42   C     C_R   0.779177 0.846502 0.677947 0.517076
C43   C     C_R   0.813842 0.821277 0.594411 -0.139902
C44   C     C_R   0.200116 0.953438 0.394554 -0.160809
C45   C     C_R   0.313836 0.321261 0.594411 -0.139768
C46   C     C_R   0.470991 0.254363 0.952542 0.017049
C47   C     C_R   0.700126 0.453462 0.394549 -0.160803
C48   C     C_R   0.717984 0.908352 0.604433 0.134318
C49   C     C_R   0.303030 0.897679 0.382946 0.137100
C50   C     C_R   0.217986 0.408362 0.604434 0.134321
C51   C     C_R   0.803034 0.397666 0.382947 0.137107
C52   C     C_R   0.712621 0.911866 0.552368 -0.063565
C53   C     C_R   0.317589 0.942492 0.429303 -0.087693
C54   C     C_R   0.212623 0.411878 0.552369 -0.063582
C55   C     C_R   0.817596 0.442480 0.429303 -0.087689
C56   C     C_R   0.758204 0.872143 0.522076 -0.001856
C57   C     C_R   0.987302 0.751353 0.056524 0.040813
C58   C     C_R   0.272966 0.987079 0.458993 0.010311
C59   C     C_R   0.258202 0.372143 0.522076 -0.001852
C60   C     C_R   0.772977 0.487086 0.458990 0.010306
C61   C     C_R   0.769819 0.863331 0.625177 0.037449
C62   C     C_R   0.243121 0.902395 0.366036 0.035873
C63   C     C_R   0.269819 0.363328 0.625177 0.037512
C64   C     C_R   0.743126 0.402399 0.366035 0.035861
C65   C     C_R   0.553952 0.159207 0.321398 0.534612
C66   C     C_R   0.446417 0.158618 0.678767 0.530233
C67   C     C_R   0.053953 0.659207 0.321398 0.534655
C68   C     C_R   0.971157 0.754520 0.952460 0.016797
C69   C     C_R   0.946419 0.658618 0.678768 0.529705
C70   C     C_R   0.732612 0.999236 0.322175 0.555574
C71   C     C_R   0.280494 0.046269 0.671423 0.564662
C72   C     C_R   0.232612 0.499235 0.322175 0.555562
C73   C     C_R   0.780495 0.546273 0.671422 0.564020
C74   C     C_R   0.512892 0.065253 0.103676 0.148048
C75   C     C_R   0.502834 0.080749 0.894845 0.119352
C76   C     C_R   0.013479 0.565349 0.103434 0.148086
C77   C     C_R   0.003403 0.581271 0.894655 0.119274
C78   C     C_R   0.515035 0.070011 0.051593 0.033270
C79   C     C_R   0.498423 0.162217 0.027980 0.076352
C80   C     C_R   0.511295 0.079492 0.946923 0.026745
C81   C     C_R   0.015842 0.570374 0.051368 0.031791
C82   C     C_R   0.012045 0.580058 0.946715 0.026390
C83   C     C_R   0.535249 0.993089 0.971196 -0.119176
C84   C     C_R   0.535744 0.987440 0.022743 -0.140823
C85   C     C_R   0.036326 0.493848 0.970931 -0.119402
C86   C     C_R   0.036838 0.488078 0.022479 -0.142512
C87   C     C_3   0.484969 0.905847 0.865239 -0.220157
C88   C     C_3   0.457048 0.963572 0.164614 -0.250250
C89   C     C_3   0.986000 0.406310 0.864992 -0.217767
C90   C     C_R   0.493536 0.165357 0.975730 0.063201
C91   C     C_3   0.957418 0.463176 0.164045 -0.249582
C92   C     C_2   0.650935 0.831063 0.135670 0.614237
C93   C     C_2   0.332873 0.801166 0.852843 0.570591
C94   C     C_2   0.150997 0.330790 0.135761 0.614183
C95   C     C_2   0.833576 0.301857 0.853136 0.571072
C96   C     C_3   0.650078 0.770605 0.334015 -0.275530
C97   C     C_3   0.336221 0.801345 0.633205 -0.276137
C98   C     C_3   0.150079 0.270605 0.334014 -0.275548
C99   C     C_3   0.836217 0.301340 0.633200 -0.276301
C100  C     C_3   0.659008 0.056287 0.629786 -0.306552
C101  C     C_R   0.999018 0.662518 0.027816 0.075986
C102  C     C_3   0.399575 0.804232 0.376665 -0.314479
C103  C     C_3   0.159033 0.556315 0.629795 -0.306745
C104  C     C_3   0.899578 0.304211 0.376669 -0.314488
C105  C     C_3   0.879429 0.918797 0.332841 -0.284084
C106  C     C_3   0.134078 0.096363 0.600584 -0.294805
C107  C     C_3   0.379426 0.418791 0.332838 -0.284068
C108  C     C_3   0.634078 0.596490 0.600513 -0.293069
C109  C     C_2   0.858261 0.969915 0.139952 0.589323
C110  C     C_2   0.146959 0.009400 0.871591 0.606543
C111  C     C_2   0.358231 0.469833 0.139862 0.589402
C112  C     C_R   0.279621 0.343884 0.822352 0.548426
C113  C     C_R   0.994069 0.665718 0.975578 0.062258
C114  C     C_2   0.645830 0.505704 0.871052 0.601843
C115  C     C_2   0.710606 0.719005 0.982729 0.555302
C116  C     C_2   0.357153 0.911180 0.036337 0.560866
C117  C     C_2   0.209261 0.219974 0.982488 0.552847
C118  C     C_2   0.856315 0.414779 0.036134 0.561114
C119  C     C_2   0.811072 0.066751 0.969745 0.563208
C120  C     C_2   0.143593 0.806123 0.007409 0.564826
C121  C     C_2   0.311262 0.566547 0.969806 0.563362
C122  C     C_2   0.643929 0.303267 0.007425 0.564685
C123  C     C_R   0.466076 0.340390 0.032921 -0.064436
C124  C     C_R   0.456654 0.341097 0.981371 -0.080166
C125  C     C_R   0.966061 0.840338 0.032882 -0.063619
C126  C     C_R   0.956577 0.841063 0.981339 -0.078264
C127  C     C_R   0.746758 0.935300 0.136140 -0.007636
C128  C     C_R   0.252553 0.937796 0.864357 -0.009758
C129  C     C_R   0.246731 0.435250 0.136155 -0.007608
C130  C     C_R   0.752432 0.437202 0.864174 -0.015287
C131  C     C_R   0.802620 0.945449 0.112127 0.044194
C132  C     C_R   0.219944 0.842984 0.177366 0.542098
C133  C     C_R   0.203760 0.970434 0.893745 0.023292
C134  C     C_R   0.302558 0.445346 0.112089 0.044180
C135  C     C_R   0.702996 0.468392 0.893253 0.024923
C136  C     C_R   0.805843 0.928612 0.060699 -0.071030
C137  C     C_R   0.206849 0.957174 0.945069 -0.093342
C138  C     C_R   0.305707 0.428440 0.060658 -0.071359
C139  C     C_R   0.705821 0.455421 0.944593 -0.089483
C140  C     C_R   0.754374 0.906216 0.032904 0.031817
C141  C     C_R   0.251538 0.896449 0.966890 0.022957
C142  C     C_R   0.254161 0.406293 0.032894 0.031811
C143  C     C_R   0.779632 0.843858 0.822357 0.548564
C144  C     C_R   0.751007 0.396202 0.966725 0.020879
C145  C     C_R   0.701285 0.885229 0.058002 -0.093245
C146  C     C_R   0.293105 0.847321 0.936350 -0.050203
C147  C     C_R   0.201092 0.385492 0.058057 -0.093038
C148  C     C_R   0.793161 0.347919 0.936433 -0.050249
C149  C     C_R   0.551644 0.156777 0.178544 0.541963
C150  C     C_R   0.446399 0.157453 0.822574 0.573580
C151  C     C_R   0.051688 0.656775 0.178514 0.541991
C152  C     C_R   0.946435 0.657482 0.822548 0.572914
C153  C     C_R   0.699390 0.887452 0.109923 0.020850
C154  C     C_R   0.473780 0.165787 0.872542 0.027338
C155  C     C_R   0.293603 0.865535 0.884793 0.020561
C156  C     C_R   0.199325 0.387451 0.109980 0.020660
C157  C     C_R   0.793816 0.365817 0.884857 0.020630
C158  C     C_R   0.732618 0.808084 0.954268 0.040040
C159  C     C_R   0.296409 0.889739 0.054151 0.074576
C160  C     C_R   0.231909 0.308719 0.954138 0.040488
C161  C     C_R   0.795853 0.391574 0.054035 0.073361
C162  C     C_R   0.733911 0.799377 0.902580 -0.133120
C163  C     C_R   0.287613 0.880410 0.105731 -0.116194
C164  C     C_R   0.233367 0.300016 0.902454 -0.131720
C165  C     C_R   0.518422 0.158597 0.130724 -0.004113
C166  C     C_R   0.787236 0.382085 0.105637 -0.116835
C167  C     C_R   0.788901 0.958177 0.896615 -0.128682
C168  C     C_R   0.183673 0.840581 0.091397 -0.116821
C169  C     C_R   0.289030 0.458122 0.896640 -0.128967
C170  C     C_R   0.683727 0.338988 0.091382 -0.115970
C171  C     C_R   0.784336 0.972797 0.948146 0.045958
C172  C     C_R   0.192455 0.841720 0.040234 0.055631
C173  C     C_R   0.284358 0.472772 0.948163 0.045867
C174  C     C_R   0.692425 0.340392 0.040202 0.056938
C175  C     C_R   0.756957 0.896133 0.977836 -0.015666
C176  C     C_R   0.973948 0.665991 0.872452 0.026755
C177  C     C_R   0.247772 0.873681 0.020907 0.002682
C178  C     C_R   0.256638 0.396369 0.977798 -0.015380
C179  C     C_R   0.747376 0.373935 0.020817 0.001441
C180  C     C_R   0.763924 0.871763 0.873662 -0.037230
C181  C     C_R   0.230739 0.860862 0.124399 -0.013136
C182  C     C_R   0.263821 0.371983 0.873621 -0.037288
C183  C     C_R   0.730611 0.360736 0.124353 -0.012507
C184  C     C_R   0.526709 0.170451 0.370540 0.022817
C185  C     C_R   0.475291 0.167766 0.630127 0.018343
C186  C     C_R   0.026714 0.670450 0.370543 0.022814
C187  C     C_R   0.018676 0.658602 0.130600 -0.003826
C188  C     C_R   0.975297 0.667768 0.630130 0.018131
C189  C     C_R   0.537840 0.260010 0.398256 -0.128559
C190  C     C_R   0.472701 0.261607 0.604576 -0.142118
C191  C     C_R   0.037847 0.760010 0.398258 -0.128560
C192  C     C_R   0.972711 0.761609 0.604579 -0.142945
C193  C     C_R   0.527134 0.262163 0.449072 -0.122464
C194  C     C_R   0.482477 0.264602 0.553581 -0.131864
C195  C     C_R   0.027145 0.762163 0.449075 -0.122489
C196  C     C_R   0.982490 0.764604 0.553585 -0.131845
C197  C     C_R   0.733105 0.996324 0.181480 0.581261
C198  C     C_R   0.501918 0.251138 0.107530 -0.157621
C199  C     C_R   0.266904 0.996742 0.818689 0.597571
C200  C     C_R   0.233107 0.496310 0.181487 0.581421
C201  C     C_R   0.766882 0.496647 0.818654 0.593185
C202  C     C_R   0.503495 0.175822 0.472933 0.035267
C203  C     C_R   0.497580 0.174560 0.527626 0.033720
C204  C     C_R   0.003507 0.675822 0.472937 0.035258
C205  C     C_R   0.997594 0.674562 0.527630 0.033806
C206  C     C_R   0.487257 0.089624 0.444269 -0.121677
C207  C     C_R   0.506588 0.082988 0.554331 -0.127982
C208  C     C_R   0.987267 0.589624 0.444274 -0.121679
Cr1   Cr    Cr6+3 0.756570 0.170940 0.251190 1.051395
Cr2   Cr    Cr6+3 0.374010 0.036240 0.749520 1.054118
Cr3   Cr    Cr6+3 0.125990 0.536240 0.250480 1.061167
Cr4   Cr    Cr6+3 0.874010 0.536240 0.749520 1.054258
Cr5   Cr    Cr6+3 0.243430 0.170940 0.748810 1.027912
Cr6   Cr    Cr6+3 0.256570 0.670940 0.251190 1.051356
Cr7   Cr    Cr6+3 0.743430 0.670940 0.748810 1.034398
Cr8   Cr    Cr6+3 0.623740 0.299110 0.249580 1.013096
Cr9   Cr    Cr6+3 0.376260 0.299110 0.750420 1.025011
Cr10  Cr    Cr6+3 0.123740 0.799110 0.249580 1.013153
Cr11  Cr    Cr6+3 0.876260 0.799110 0.750420 1.018454
Cr12  Cr    Cr6+3 0.625990 0.036240 0.250480 1.061088
H1    H     H_    0.812716 0.013704 0.874331 0.180392
H2    H     H_    0.458175 0.331315 0.623017 0.131021
H3    H     H_    0.793310 0.310779 0.653200 0.178274
H4    H     H_    0.672226 0.924158 0.671518 0.259030
H5    H     H_    0.621888 0.078532 0.654808 0.155123
H6    H     H_    0.645228 0.075239 0.591097 0.154911
H7    H     H_    0.699219 0.101403 0.640211 0.146504
H8    H     H_    0.354214 0.882296 0.318845 0.246563
H9    H     H_    0.422723 0.753383 0.349717 0.140676
H10   H     H_    0.386502 0.757160 0.409238 0.151953
H11   H     H_    0.430951 0.865402 0.388491 0.118937
H12   H     H_    0.172225 0.424164 0.671517 0.258953
H13   H     H_    0.059239 0.825846 0.381604 0.127472
H14   H     H_    0.121910 0.578567 0.654813 0.154749
H15   H     H_    0.145267 0.575290 0.591106 0.154875
H16   H     H_    0.199249 0.601407 0.640233 0.146540
H17   H     H_    0.854211 0.382245 0.318843 0.246617
H18   H     H_    0.922723 0.253350 0.349725 0.140686
H19   H     H_    0.886508 0.257153 0.409248 0.151910
H20   H     H_    0.930955 0.365386 0.388486 0.118943
H21   H     H_    0.853870 0.062869 0.361717 0.281932
H22   H     H_    0.922413 0.951298 0.320142 0.135903
H23   H     H_    0.849014 0.911135 0.300228 0.182520
H24   H     H_    0.958185 0.831317 0.623020 0.129862
H25   H     H_    0.888362 0.841627 0.348958 0.155916
H26   H     H_    0.196961 0.188143 0.636021 0.299828
H27   H     H_    0.098150 0.149586 0.612743 0.140024
H28   H     H_    0.134103 0.027620 0.625035 0.168942
H29   H     H_    0.124425 0.072698 0.561590 0.136218
H30   H     H_    0.353872 0.562863 0.361718 0.281928
H31   H     H_    0.422413 0.451286 0.320142 0.135922
H32   H     H_    0.349013 0.411142 0.300224 0.182491
H33   H     H_    0.388354 0.341617 0.348952 0.155900
H34   H     H_    0.696963 0.688128 0.636031 0.299982
H35   H     H_    0.520874 0.013291 0.535794 0.100763
H36   H     H_    0.598164 0.649731 0.612680 0.141413
H37   H     H_    0.634055 0.527692 0.624928 0.170858
H38   H     H_    0.624446 0.572925 0.561502 0.135623
H39   H     H_    0.905959 0.955286 0.203615 0.325981
H40   H     H_    0.088006 0.002979 0.814469 0.335108
H41   H     H_    0.405995 0.455298 0.203496 0.325986
H42   H     H_    0.570511 0.589411 0.879268 0.344732
H43   H     H_    0.726175 0.615222 0.037019 0.341018
H44   H     H_    0.442731 0.864075 0.035022 0.338723
H45   H     H_    0.224079 0.115738 0.036724 0.340732
H46   H     H_    0.466939 0.023254 0.461305 0.090996
H47   H     H_    0.942182 0.369584 0.034286 0.339645
H48   H     H_    0.884049 0.156575 0.974988 0.360886
H49   H     H_    0.118630 0.719261 0.948647 0.337568
H50   H     H_    0.384366 0.656074 0.975068 0.359710
H51   H     H_    0.619691 0.214713 0.949055 0.337037
H52   H     H_    0.020887 0.513293 0.535799 0.100681
H53   H     H_    0.966950 0.523255 0.461311 0.090987
H54   H     H_    0.498675 0.006401 0.624176 0.134452
H55   H     H_    0.490178 0.017064 0.372715 0.118506
H56   H     H_    0.998682 0.506402 0.624180 0.134227
H57   H     H_    0.140625 0.817234 0.105623 0.153808
H58   H     H_    0.990183 0.517064 0.372720 0.118530
H59   H     H_    0.540566 0.329529 0.469917 0.099296
H60   H     H_    0.475092 0.336487 0.534284 0.098728
H61   H     H_    0.040578 0.829529 0.469919 0.099187
H62   H     H_    0.975108 0.836490 0.534288 0.098583
H63   H     H_    0.843061 0.792422 0.520583 0.123511
H64   H     H_    0.177917 0.022581 0.462478 0.100867
H65   H     H_    0.343052 0.292399 0.520582 0.123474
H66   H     H_    0.677932 0.522625 0.462470 0.100902
H67   H     H_    0.852014 0.781631 0.610175 0.128882
H68   H     H_    0.313111 0.513408 0.874415 0.180675
H69   H     H_    0.153754 0.957519 0.382920 0.128487
H70   H     H_    0.352004 0.281603 0.610174 0.128537
H71   H     H_    0.653765 0.457559 0.382913 0.128498
H72   H     H_    0.552460 0.927865 0.950893 0.139901
H73   H     H_    0.554458 0.919023 0.039395 0.150997
H74   H     H_    0.053693 0.428805 0.950582 0.142313
H75   H     H_    0.055635 0.419714 0.039117 0.151731
H76   H     H_    0.666322 0.825965 0.461087 0.103434
H77   H     H_    0.351390 0.899017 0.524492 0.101653
H78   H     H_    0.166319 0.325972 0.461088 0.103423
H79   H     H_    0.640937 0.314406 0.105657 0.152769
H80   H     H_    0.851390 0.399005 0.524494 0.101586
H81   H     H_    0.673414 0.946437 0.535409 0.113388
H82   H     H_    0.363139 0.941160 0.442790 0.098442
H83   H     H_    0.173419 0.446460 0.535410 0.113380
H84   H     H_    0.863145 0.441134 0.442791 0.098432
H85   H     H_    0.846691 0.935827 0.462811 0.127786
H86   H     H_    0.218221 0.136495 0.512095 0.133396
H87   H     H_    0.346691 0.435820 0.462812 0.127839
H88   H     H_    0.718252 0.636528 0.512087 0.133392
H89   H     H_    0.439885 0.320159 0.884130 0.151469
H90   H     H_    0.662084 0.862035 0.037137 0.155972
H91   H     H_    0.502133 0.322347 0.128501 0.147166
H92   H     H_    0.939586 0.820036 0.884140 0.151592
H93   H     H_    0.002032 0.822259 0.128498 0.147179
H94   H     H_    0.439418 0.410187 0.963913 0.155855
H95   H     H_    0.457785 0.409679 0.054083 0.165318
H96   H     H_    0.939057 0.910000 0.963932 0.157972
H97   H     H_    0.957539 0.909478 0.054093 0.165502
H98   H     H_    0.716640 0.729963 0.885462 0.168878
H99   H     H_    0.324540 0.890503 0.131405 0.122517
H100  H     H_    0.215841 0.230859 0.885282 0.169880
H101  H     H_    0.324199 0.793449 0.952749 0.180576
H102  H     H_    0.824079 0.393500 0.131275 0.121612
H103  H     H_    0.848231 0.935284 0.041990 0.135004
H104  H     H_    0.171762 0.988560 0.968107 0.193024
H105  H     H_    0.348090 0.434940 0.041925 0.135227
H106  H     H_    0.670306 0.485943 0.967437 0.200379
H107  H     H_    0.567360 0.980978 0.867259 0.249413
H108  H     H_    0.508075 0.841690 0.884722 0.143946
H109  H     H_    0.475913 0.881173 0.826363 0.182332
H110  H     H_    0.441655 0.921104 0.883860 0.195707
H111  H     H_    0.508120 0.903062 0.107875 0.294139
H112  H     H_    0.161803 0.362598 0.037248 0.156316
H113  H     H_    0.424672 0.903669 0.153190 0.157356
H114  H     H_    0.432500 0.037574 0.168273 0.135733
H115  H     H_    0.475609 0.941661 0.201524 0.162790
H116  H     H_    0.068166 0.482143 0.866928 0.250421
H117  H     H_    0.009331 0.342334 0.884428 0.154873
H118  H     H_    0.976931 0.381621 0.826120 0.182478
H119  H     H_    0.942691 0.421184 0.883685 0.195024
H120  H     H_    0.008751 0.403168 0.107361 0.294397
H121  H     H_    0.925040 0.403474 0.152354 0.158801
H122  H     H_    0.932897 0.537176 0.167831 0.135682
H123  H     H_    0.824604 0.294916 0.953047 0.180044
H124  H     H_    0.975797 0.440814 0.200953 0.162610
H125  H     H_    0.623657 0.758018 0.197671 0.328550
H126  H     H_    0.348509 0.740449 0.784941 0.328413
H127  H     H_    0.123876 0.257734 0.197809 0.328502
H128  H     H_    0.849877 0.241015 0.785373 0.328222
H129  H     H_    0.607266 0.855597 0.388422 0.235970
H130  H     H_    0.607613 0.758759 0.313250 0.134111
H131  H     H_    0.659888 0.700934 0.356570 0.128742
H132  H     H_    0.686268 0.781958 0.306551 0.176522
H133  H     H_    0.403044 0.893551 0.605607 0.236702
H134  H     H_    0.559234 0.325846 0.381603 0.127486
H135  H     H_    0.367789 0.758869 0.657790 0.142698
H136  H     H_    0.328578 0.755551 0.598790 0.120608
H137  H     H_    0.293316 0.810787 0.653209 0.178166
H138  H     H_    0.107265 0.355597 0.388421 0.235961
H139  H     H_    0.107614 0.258759 0.313249 0.134101
H140  H     H_    0.159888 0.200934 0.356570 0.128738
H141  H     H_    0.186270 0.281959 0.306551 0.176557
H142  H     H_    0.903044 0.393552 0.605613 0.236545
H143  H     H_    0.867782 0.258860 0.657786 0.142039
H144  H     H_    0.828580 0.255552 0.598782 0.120541
N1    N     N_2   0.522271 0.996638 0.864811 -0.519392
N2    N     N_2   0.347290 0.848731 0.353039 -0.500158
N3    N     N_2   0.171162 0.447514 0.634895 -0.529389
N4    N     N_2   0.847290 0.348699 0.353042 -0.500138
N5    N     N_2   0.853638 0.985674 0.370038 -0.528517
N6    N     N_2   0.191051 0.147805 0.603802 -0.514677
N7    N     N_2   0.353638 0.485668 0.370037 -0.528502
N8    N     N_2   0.691071 0.647852 0.603792 -0.514980
N9    N     N_2   0.505091 0.969005 0.128726 -0.457977
N10   N     N_2   0.023029 0.497420 0.864543 -0.520767
N11   N     N_2   0.005640 0.468941 0.128333 -0.458061
N12   N     N_2   0.644430 0.859499 0.366068 -0.484516
N13   N     N_2   0.361156 0.900414 0.620975 -0.478651
N14   N     N_2   0.144429 0.359499 0.366067 -0.484507
N15   N     N_2   0.861154 0.400411 0.620977 -0.478628
N16   N     N_2   0.671156 0.947494 0.634895 -0.529278
O1    O     O_R   0.769900 0.064540 0.196060 -0.478725
O2    O     O_R   0.433710 0.069580 0.694600 -0.512945
O3    O     O_R   0.066290 0.569580 0.305400 -0.510613
O4    O     O_R   0.933710 0.569580 0.694600 -0.512722
O5    O     O_R   0.680760 0.993330 0.302620 -0.459665
O6    O     O_R   0.319240 0.993330 0.697380 -0.450333
O7    O     O_R   0.180760 0.493330 0.302620 -0.459650
O8    O     O_R   0.819240 0.493330 0.697380 -0.450771
O9    O     O_3   0.668770 0.168760 0.250420 -0.258884
O10   O     O_3   0.331230 0.168760 0.749580 -0.280677
O11   O     O_3   0.168770 0.668760 0.250420 -0.258856
O12   O     O_R   0.230100 0.064540 0.803940 -0.483973
O13   O     O_3   0.831230 0.668760 0.749580 -0.280115
O14   O     O_R   0.750800 0.274080 0.199250 -0.494676
O15   O     O_R   0.249200 0.274080 0.800750 -0.501563
O16   O     O_R   0.250800 0.774080 0.199250 -0.494870
O17   O     O_R   0.749200 0.774080 0.800750 -0.501608
O18   O     O_R   0.669990 0.371670 0.194150 -0.506594
O19   O     O_R   0.330010 0.371670 0.805850 -0.505523
O20   O     O_R   0.169990 0.871670 0.194150 -0.506755
O21   O     O_R   0.830010 0.871670 0.805850 -0.505848
O22   O     O_R   0.574600 0.238480 0.197800 -0.511492
O23   O     O_R   0.269900 0.564540 0.196060 -0.478666
O24   O     O_R   0.425400 0.238480 0.802200 -0.504578
O25   O     O_R   0.074600 0.738480 0.197800 -0.511402
O26   O     O_R   0.925400 0.738480 0.802200 -0.507252
O27   O     O_R   0.566130 0.068680 0.194240 -0.476370
O28   O     O_R   0.433870 0.068680 0.805760 -0.491537
O29   O     O_R   0.066130 0.568680 0.194240 -0.476513
O30   O     O_R   0.933870 0.568680 0.805760 -0.491003
O31   O     O_R   0.680610 0.992490 0.199570 -0.467881
O32   O     O_R   0.319390 0.992490 0.800430 -0.471404
O33   O     O_R   0.180610 0.492490 0.199570 -0.467863
O34   O     O_R   0.730100 0.564540 0.803940 -0.483282
O35   O     O_R   0.819390 0.492490 0.800430 -0.470163
O36   O     O_R   0.770060 0.065440 0.307230 -0.518835
O37   O     O_R   0.229940 0.065440 0.692770 -0.517219
O38   O     O_R   0.270060 0.565440 0.307230 -0.518863
O39   O     O_R   0.729940 0.565440 0.692770 -0.515277
O40   O     O_R   0.750960 0.274920 0.302300 -0.475549
O41   O     O_R   0.249040 0.274920 0.697700 -0.542978
O42   O     O_R   0.250960 0.774920 0.302300 -0.475553
O43   O     O_R   0.749040 0.774920 0.697700 -0.542636
O44   O     O_R   0.670160 0.372580 0.305320 -0.533771
O45   O     O_R   0.574760 0.239320 0.300850 -0.510787
O46   O     O_R   0.329840 0.372580 0.694680 -0.512431
O47   O     O_R   0.170160 0.872580 0.305320 -0.533774
O48   O     O_R   0.829840 0.872580 0.694680 -0.513173
O49   O     O_2   0.605451 0.807590 0.113073 -0.538050
O50   O     O_R   0.659295 0.797083 0.184626 -0.685865
O51   O     O_2   0.375703 0.755905 0.871038 -0.537482
O52   O     O_R   0.318920 0.786967 0.802457 -0.678215
O53   O     O_2   0.105597 0.306850 0.113162 -0.537013
O54   O     O_R   0.159416 0.297039 0.184749 -0.685957
O55   O     O_2   0.876477 0.257195 0.871561 -0.532904
O56   O     O_R   0.425240 0.239320 0.699150 -0.509531
O57   O     O_R   0.819979 0.287227 0.802714 -0.679289
O58   O     O_2   0.897673 0.019511 0.120089 -0.518382
O59   O     O_R   0.866148 0.934291 0.188661 -0.703152
O60   O     O_2   0.115692 0.070087 0.894515 -0.472830
O61   O     O_R   0.127640 0.972169 0.825338 -0.670304
O62   O     O_2   0.397624 0.519390 0.119951 -0.518303
O63   O     O_R   0.366166 0.434291 0.188580 -0.703199
O64   O     O_2   0.629838 0.474861 0.830043 -0.493256
O65   O     O_R   0.608477 0.571084 0.898084 -0.653134
O66   O     O_2   0.660911 0.685010 0.973973 -0.487409
O67   O     O_R   0.074760 0.739320 0.300850 -0.510789
O68   O     O_R   0.746329 0.675053 0.019990 -0.675036
O69   O     O_2   0.365907 0.980058 0.006417 -0.512159
O70   O     O_R   0.404390 0.850026 0.053311 -0.697489
O71   O     O_2   0.159294 0.187133 0.973725 -0.486940
O72   O     O_R   0.244684 0.175102 0.019691 -0.677059
O73   O     O_2   0.864361 0.484293 0.006413 -0.509930
O74   O     O_R   0.904090 0.354431 0.052709 -0.698169
O75   O     O_2   0.783962 0.117053 0.000788 -0.489511
O76   O     O_R   0.868065 0.096603 0.954904 -0.684793
O77   O     O_2   0.093640 0.841861 0.012372 -0.531030
O78   O     O_R   0.925240 0.739320 0.699150 -0.511184
O79   O     O_R   0.155264 0.735024 0.969609 -0.663383
O80   O     O_2   0.284210 0.616971 0.000840 -0.490343
O81   O     O_R   0.368320 0.596122 0.955003 -0.689169
O82   O     O_2   0.593745 0.338162 0.012117 -0.532190
O83   O     O_R   0.656183 0.231709 0.969962 -0.662899
O84   O     O_R   0.566290 0.069580 0.305400 -0.510684

loop_
_geom_bond_atom_site_label_1
_geom_bond_atom_site_label_2
_ccdc_geom_bond_type
C172  C177  A    
Cr10  O47   S    
C21   C26   A    
C34   C56   A    
C103  H16   S    
C101  C113  A    
C136  C140  A    
C47   H71   S    
C41   O42   A    
C126  H96   S    
C137  H104  S    
C185  C190  A    
C133  C137  A    
C40   O41   A    
Cr7   O13   S    
Cr8   O18   S    
C53   H82   S    
C196  H62   S    
C91   N11   S    
C102  N2    S    
C138  H105  S    
C29   C33   A    
C97   H136  S    
C98   N14   S    
C79   C90   A    
C163  H99   S    
C164  H100  S    
C122  O83   S    
C121  C173  S    
C204  C208  A    
H142  N15   S    
H44   O70   S    
C91   H124  S    
C25   C60   S    
C132  O16   A    
C111  O63   S    
C81   C86   A    
C167  C180  A    
C139  H106  S    
C146  H101  S    
C46   C124  A    
C80   C83   A    
C9    C31   A    
C25   C29   A    
C202  C203  S    
C27   C31   A    
C148  H123  S    
Cr11  O21   S    
C116  C159  S    
C37   H65   S    
C47   C64   A    
C72   O38   A    
C167  C171  A    
Cr9   O10   S    
C17   C21   A    
C86   H75   S    
C49   N2    S    
C100  H7    S    
C135  C139  A    
Cr3   O29   S    
C15   N14   S    
C132  C181  S    
C5    C207  A    
C201  O35   A    
C87   H110  S    
Cr7   O34   S    
C121  O81   S    
C16   C20   A    
C40   O46   A    
Cr12  O5    S    
Cr10  O11   S    
C160  C178  A    
C112  O19   A    
C16   N15   S    
C131  C136  A    
C103  H14   S    
C22   C27   A    
C67   O67   A    
C36   C44   A    
Cr11  O78   S    
C37   C45   A    
C98   H139  S    
C24   C176  A    
C192  C196  A    
C114  O64   D    
C43   C61   A    
C170  C174  A    
C39   O44   A    
C104  H20   S    
Cr8   O22   S    
C89   H117  S    
C49   C62   A    
C66   O2    A    
C52   H81   S    
Cr10  O20   S    
C51   C64   A    
C140  C145  A    
C22   C58   S    
Cr9   O24   S    
C53   C58   A    
H30   N7    S    
C82   C85   A    
C6    C186  A    
C96   H131  S    
C128  C199  S    
C114  O65   S    
C165  C198  A    
C120  O77   D    
C197  O31   A    
C203  C207  A    
C77   C82   A    
C49   C53   A    
H107  N1    S    
Cr8   O9    S    
C91   H122  S    
C51   C55   A    
C127  C131  A    
C169  C182  A    
C75   N1    S    
C76   N11   S    
C48   C52   A    
C168  C181  A    
C18   H77   S    
C102  H10   S    
Cr1   O1    S    
H138  N14   S    
C66   O56   A    
C105  H23   S    
C74   C165  A    
Cr7   O43   S    
C65   O45   A    
Cr8   O44   S    
C193  H59   S    
C194  H60   S    
C13   C187  A    
C67   O3    A    
C163  C181  A    
C169  H68   S    
Cr5   O15   S    
Cr6   O16   S    
C1    C183  S    
H45   O72   S    
C123  C124  A    
C81   C101  A    
C85   C86   A    
C23   C59   S    
C42   O48   A    
C107  H32   S    
C130  C157  A    
C115  O68   S    
C95   O55   D    
H128  O57   S    
C190  H2    S    
C57   C125  A    
Cr1   O14   S    
C55   H84   S    
C13   C57   A    
H126  O52   S    
C186  C191  A    
C72   O7    A    
Cr9   O19   S    
C145  H90   S    
Cr4   O4    S    
H133  N13   S    
C92   C153  S    
C87   N1    S    
C92   O49   D    
C161  C179  A    
C99   H143  S    
C93   O52   S    
C6    C208  A    
C88   H113  S    
C108  N8    S    
C89   H119  S    
C117  O72   S    
Cr7   O17   S    
C50   C63   A    
C108  H37   S    
H125  O50   S    
C147  H112  S    
C96   N12   S    
C54   C59   A    
C32   N7    S    
C99   H3    S    
C44   H69   S    
C146  C155  A    
C115  C158  S    
C3    C205  A    
C93   C155  S    
C149  C165  S    
C7    H56   S    
C120  O79   S    
Cr8   O45   S    
C122  C174  S    
C118  O73   D    
C1    O14   A    
H49   O79   S    
C109  O58   D    
C132  O20   A    
Cr11  O26   S    
C110  O61   S    
C109  C131  S    
C41   O47   A    
H120  N11   S    
C83   C84   A    
C42   C61   S    
C8    C12   A    
C149  O22   A    
C197  O1    A    
C23   C28   A    
C100  H6    S    
C105  H25   S    
C37   C59   A    
C98   H141  S    
C106  N6    S    
C38   C60   A    
C199  O32   A    
C26   C30   A    
C77   C176  A    
H34   N8    S    
C119  O75   D    
H43   O68   S    
C66   C185  S    
C38   H66   S    
C94   O54   S    
Cr6   O38   S    
C70   O36   A    
C103  H15   S    
C12   N12   S    
C4    H55   S    
C142  C147  A    
Cr2   O28   S    
C34   C43   A    
C189  H134  S    
C82   C113  A    
C54   H83   S    
C111  C134  S    
C11   C33   A    
C57   C101  A    
C8    C70   S    
Cr12  O9    S    
C27   H86   S    
C188  C192  A    
C92   O50   S    
Cr6   O23   S    
C35   C123  A    
C143  O17   A    
C123  H95   S    
C112  O15   A    
C142  C178  S    
C173  C178  A    
C206  H46   S    
C35   C79   A    
C97   H135  S    
C96   H130  S    
C148  C157  A    
C191  C195  A    
C88   H115  S    
C119  O76   S    
C189  C193  A    
C158  C175  A    
C204  C205  S    
C119  C171  S    
C169  C173  A    
C55   C60   A    
Cr4   O30   S    
C70   O5    A    
Cr3   O3    S    
C100  N16   S    
C65   C184  S    
C10   C72   S    
Cr2   O6    S    
Cr3   O11   S    
C130  C135  A    
H111  N9    S    
C5    C185  A    
Cr2   O32   S    
Cr1   O36   S    
C151  C187  S    
C39   C64   S    
C107  N7    S    
C50   C54   A    
C40   C63   S    
Cr10  O25   S    
C141  C177  S    
C116  O69   D    
C160  C164  A    
Cr4   O35   S    
C152  O30   A    
C3    C7    A    
Cr10  O67   S    
C150  O28   A    
C20   C25   A    
C42   O43   A    
C107  H33   S    
C136  H103  S    
C99   N15   S    
C199  O12   A    
C143  O21   A    
C74   N9    S    
C33   N8    S    
C125  H97   S    
C108  H38   S    
C201  O34   A    
C87   H109  S    
C200  O33   A    
C121  O80   D    
C2    H89   S    
C12   C17   A    
C48   N16   S    
H8    N2    S    
H129  N12   S    
C24   H92   S    
C68   C113  A    
C95   C157  S    
C34   H63   S    
C108  H36   S    
C117  C160  S    
C115  O66   D    
C41   C62   S    
C98   H140  S    
C127  C197  S    
C168  H57   S    
Cr1   O40   S    
C198  H91   S    
C162  H98   S    
C89   N10   S    
C11   C73   S    
Cr2   O2    S    
C195  C204  A    
C88   N9    S    
C84   H73   S    
C97   H137  S    
C193  C202  A    
C166  H102  S    
C96   H132  S    
C29   H88   S    
C9    C14   A    
Cr1   O9    S    
C200  O23   A    
C11   C16   A    
C122  O82   D    
C28   C32   A    
Cr5   O41   S    
H48   O76   S    
C91   H121  S    
C65   O84   A    
C124  H94   S    
C147  C156  A    
C76   C187  A    
C141  C146  A    
C208  H53   S    
C149  O27   A    
C138  C142  A    
C102  H11   S    
H4    N16   S    
C105  H22   S    
C137  C141  A    
C1    O18   A    
C166  C183  A    
C9    C71   S    
C69   O4    A    
C21   C56   S    
C83   H72   S    
C46   C90   A    
C191  H13   S    
C31   N6    S    
C19   H78   S    
C107  H31   S    
C8    C30   A    
C18   C22   A    
C69   O78   A    
C14   N13   S    
C140  C175  S    
H42   O65   S    
H47   O74   S    
C164  C182  A    
C170  H79   S    
C24   C68   A    
C129  C134  A    
C168  C172  A    
C94   C156  S    
C77   N10   S    
C74   C78   A    
Cr9   O56   S    
C95   O57   S    
C5    H54   S    
C106  H28   S    
C93   O51   D    
H51   O83   S    
H26   N6    S    
C88   H114  S    
C104  H19   S    
C118  C161  S    
C89   H118  S    
C192  H24   S    
C170  C183  A    
C14   C18   A    
C19   C23   A    
Cr5   O10   S    
C144  C148  A    
C127  C153  A    
C151  O25   A    
C2    C46   A    
Cr11  O48   S    
C106  H29   S    
C36   C58   A    
C10   C15   A    
C194  C203  A    
C118  O74   S    
H127  O54   S    
C196  C205  A    
C207  H35   S    
C167  H1    S    
C111  O62   D    
C71   O37   A    
C128  C155  A    
C15   C19   A    
Cr4   O8    S    
Cr2   O10   S    
C102  H9    S    
C45   H70   S    
Cr3   O7    S    
C75   C80   A    
C161  C166  A    
Cr3   O33   S    
C67   C186  S    
C145  C153  A    
Cr12  O27   S    
C73   O39   A    
C71   O6    A    
C152  O26   A    
C159  C177  A    
C50   N3    S    
C150  O24   A    
Cr4   O13   S    
C43   H67   S    
C151  O29   A    
H116  N10   S    
C104  H18   S    
C7    C188  A    
C36   H64   S    
C158  C162  A    
C78   C79   A    
C120  C172  S    
C112  C182  S    
C44   C62   A    
C39   O40   A    
C171  C175  A    
C45   C63   A    
C3    H52   S    
C30   N5    S    
H40   O61   S    
C51   N4    S    
C10   C32   A    
C129  C156  A    
C139  C144  A    
C144  C179  S    
C114  C135  S    
C143  C180  S    
C4    C184  A    
C99   H144  S    
C130  C201  S    
C69   C188  S    
C38   C47   A    
C87   H108  S    
Cr12  O84   S    
C105  N5    S    
Cr12  O31   S    
H21   N5    S    
C150  C154  S    
C106  H27   S    
C28   H87   S    
C159  C163  A    
H50   O81   S    
C13   H93   S    
H41   O63   S    
Cr5   O12   S    
C68   C126  A    
Cr6   O11   S    
C103  N3    S    
H17   N4    S    
C97   N13   S    
H12   N3    S    
C162  C180  A    
C76   C81   A    
C134  C138  A    
Cr7   O39   S    
C117  O71   D    
C4    C206  A    
Cr5   O37   S    
Cr6   O42   S    
C195  H61   S    
C116  O70   S    
C109  O59   S    
C73   O8    A    
C110  O60   D    
Cr11  O13   S    
C128  C133  A    
C75   C154  A    
C48   C61   A    
C125  C126  A    
C85   H74   S    
C20   H80   S    
Cr9   O46   S    
C80   C90   A    
C100  H5    S    
C129  C200  S    
C190  C194  A    
C152  C176  S    
C78   C84   A    
C2    C154  A    
C202  C206  A    
C26   H85   S    
C104  N4    S    
C184  C189  A    
C110  C133  S    
H39   O59   S    
C174  C179  A    
C17   H76   S    
C52   C56   A    
C35   C198  A    
C94   O53   D    
C6    H58   S    
