data_mof_unit_49982.cif
_audit_creation_date              2013-03-05T16:48:55-0500
_audit_creation_method            fapswitch 2.2
_symmetry_space_group_name_H-M    P1
_symmetry_Int_Tables_number       1
_space_group_crystal_system       triclinic
_cell_length_a                    10.83802
_cell_length_b                    10.865719
_cell_length_c                    12.719052
_cell_angle_alpha                 92.846922
_cell_angle_beta                  93.245333
_cell_angle_gamma                 89.242846
_cell_volume                      1493.50315529

loop_
_atom_site_label
_atom_site_type_symbol
_atom_site_description
_atom_site_fract_x
_atom_site_fract_y
_atom_site_fract_z
_atom_type_partial_charge
O1    O     O_R   0.313000 0.493330 0.412070 -0.560709
O2    O     O_R   0.687000 0.506670 0.587930 -0.560721
O3    O     O_R   0.326280 0.506660 0.587930 -0.583228
O4    O     O_R   0.673720 0.493340 0.412070 -0.583221
C1    C     C_R   0.261956 0.496200 0.500448 0.814211
C2    C     C_R   0.738043 0.503800 0.499552 0.814177
O5    O     O_R   0.493370 0.312980 0.412070 -0.529772
O6    O     O_R   0.506630 0.687020 0.587930 -0.529759
O7    O     O_R   0.506650 0.326310 0.587930 -0.598703
O8    O     O_R   0.493350 0.673690 0.412070 -0.598713
C3    C     C_R   0.500620 0.262004 0.500887 0.859103
C4    C     C_R   0.499372 0.737996 0.499113 0.859056
Cu1   Cu    Cu3+1 0.492140 0.492110 0.395880 1.025503
Cu2   Cu    Cu3+1 0.507860 0.507890 0.604120 1.025514
H1    H     H_    0.896468 0.280337 0.864358 0.139458
H2    H     H_    0.103489 0.719661 0.135659 0.139460
C5    C     C_R   0.871757 0.186764 0.711516 -0.138221
C6    C     C_R   0.128206 0.813251 0.288494 -0.138207
H3    H     H_    0.969021 0.185822 0.697207 0.154097
H4    H     H_    0.030942 0.814207 0.302801 0.154102
C7    C     C_R   0.787234 0.134914 0.635466 -0.123162
C8    C     C_R   0.212733 0.865099 0.364541 -0.123164
H5    H     H_    0.820238 0.093920 0.562782 0.133257
H6    H     H_    0.179732 0.906107 0.437220 0.133255
C9    C     C_R   0.661035 0.132885 0.654540 0.176633
C10   C     C_R   0.338935 0.867110 0.345470 0.176635
C11   C     C_R   0.620719 0.183230 0.750741 -0.022937
C12   C     C_R   0.379247 0.816747 0.249273 -0.022920
H7    H     H_    0.524326 0.179668 0.767923 0.117051
H8    H     H_    0.475641 0.820297 0.232091 0.117050
C13   C     C_R   0.705257 0.237771 0.825526 -0.138730
C14   C     C_R   0.294704 0.762208 0.174491 -0.138727
H9    H     H_    0.673661 0.277358 0.899147 0.131757
H10   H     H_    0.326299 0.722608 0.100874 0.131756
C15   C     C_R   0.830812 0.239318 0.806012 -0.114089
C16   C     C_R   0.169149 0.760679 0.194003 -0.114098
C17   C     C_R   0.575327 0.937854 0.574888 0.303003
C18   C     C_R   0.424644 0.062148 0.425118 0.302973
C19   C     C_R   0.501379 0.871519 0.497354 -0.257571
C20   C     C_R   0.498601 0.128481 0.502648 -0.257561
C21   C     C_R   0.426138 0.933474 0.422015 -0.169273
C22   C     C_R   0.573835 0.066525 0.577988 -0.169290
H11   H     H_    0.292131 0.218857 0.909185 0.139832
H12   H     H_    0.707854 0.781156 0.090827 0.139833
C23   C     C_R   0.257217 0.219164 0.740958 -0.140864
C24   C     C_R   0.742759 0.780834 0.259055 -0.140859
H13   H     H_    0.307416 0.133972 0.725727 0.136018
H14   H     H_    0.692546 0.866016 0.274290 0.136013
C25   C     C_R   0.200231 0.280628 0.657098 -0.132497
C26   C     C_R   0.799750 0.719368 0.342911 -0.132480
H15   H     H_    0.206552 0.241762 0.577677 0.157039
H16   H     H_    0.793417 0.758222 0.422335 0.157024
C27   C     C_R   0.132843 0.390086 0.676091 0.113870
C28   C     C_R   0.867155 0.609922 0.323912 0.113869
C29   C     C_R   0.123389 0.437029 0.780277 -0.147513
C30   C     C_R   0.876621 0.562993 0.219724 -0.147530
H17   H     H_    0.071087 0.520776 0.796524 0.138186
H18   H     H_    0.928935 0.479255 0.203472 0.138187
C31   C     C_R   0.181613 0.375851 0.863973 -0.145289
C32   C     C_R   0.818392 0.624173 0.136030 -0.145294
H19   H     H_    0.174482 0.412518 0.944120 0.137842
H20   H     H_    0.825534 0.587516 0.055882 0.137844
C33   C     C_R   0.248165 0.266821 0.844320 -0.116832
C34   C     C_R   0.751824 0.733191 0.155690 -0.116834
C35   C     C_R   0.939521 0.461004 0.586060 -0.221720
C36   C     C_R   0.060479 0.538999 0.413941 -0.221712
H21   H     H_    0.892223 0.428251 0.651865 0.165852
H22   H     H_    0.107777 0.571752 0.348136 0.165851
C37   C     C_R   0.871742 0.506594 0.499198 -0.051672
C38   C     C_R   0.128257 0.493408 0.500802 -0.051660
C39   C     C_R   0.932569 0.548258 0.412684 -0.000768
C40   C     C_R   0.067431 0.451747 0.587317 -0.000775
N1    N     N_1   0.480320 0.480250 0.239400 -0.147502
N2    N     N_1   0.519680 0.519750 0.760600 -0.147494
C41   C     C_2   0.480567 0.456158 0.031137 -0.286789
C42   C     C_2   0.519433 0.543842 0.968863 -0.286774
C43   C     C_1   0.519670 0.528314 0.852802 0.244480
C44   C     C_1   0.480330 0.471686 0.147198 0.244455
H23   H     H_    0.550866 0.631180 0.005111 0.165674
H24   H     H_    0.449134 0.368820 0.994888 0.165667
N3    N     N_R   0.654534 0.874699 0.649748 0.137764
O9    O     O_R   0.743357 0.803082 0.617684 -0.401789
O10   O     O_R   0.639773 0.891135 0.750298 -0.360944
N4    N     N_R   0.345427 0.125305 0.350264 0.137754
O11   O     O_R   0.256663 0.196993 0.382347 -0.401794
O12   O     O_R   0.360108 0.108804 0.249709 -0.360942

loop_
_geom_bond_atom_site_label_1
_geom_bond_atom_site_label_2
_geom_bond_distance
_ccdc_geom_bond_type
C2    C37   1.450019 S    
C36   H22   1.083025 S    
C29   C31   1.398747 A    
C11   H7    1.080941 S    
C42   H23   1.084669 S    
C41   C42   1.354952 D    
N3    O9    1.300666 A    
H11   C33   1.082114 S    
C19   C21   1.413328 A    
H12   C34   1.082113 S    
O5    C3    1.280650 A    
C26   C28   1.405269 A    
O1    C1    1.279476 A    
Cu2   N2    1.985022 S    
C8    H6    1.083195 S    
N4    O12   1.301046 A    
C35   C37   1.399440 A    
O4    Cu1   1.967235 S    
C32   H20   1.082412 S    
C17   C22   1.396609 A    
C37   C39   1.410625 A    
C28   C39   1.482692 S    
C35   H21   1.083026 S    
N2    C43   1.171794 T    
C26   H16   1.080811 S    
N1    C44   1.171796 T    
C13   H9    1.082366 S    
C41   H24   1.084669 S    
C23   H13   1.082218 S    
Cu1   Cu2   2.641620 S    
C17   N3    1.439176 S    
O2    C2    1.279474 A    
H1    C15   1.082334 S    
N3    O10   1.301075 A    
C24   H14   1.082219 S    
C27   C29   1.404819 A    
C28   C30   1.404819 A    
C31   H19   1.082412 S    
C11   C13   1.398258 A    
C12   C14   1.398264 A    
C42   C43   1.477592 S    
C18   C21   1.396638 A    
O4    C2    1.280115 A    
C25   H15   1.080809 S    
C23   C33   1.397052 A    
C5    C7    1.396919 A    
C30   C32   1.398747 A    
C24   C34   1.397053 A    
C14   H10   1.082361 S    
O7    Cu2   1.973655 S    
C1    C38   1.450019 S    
C36   C39   1.387861 A    
C23   C25   1.396576 A    
O6    C4    1.280652 A    
N4    O11   1.300702 A    
O7    C3    1.278420 A    
O3    Cu2   1.967237 S    
O8    C4    1.278416 A    
Cu1   N1    1.985022 S    
C29   H17   1.083068 S    
C13   C15   1.397444 A    
O1    Cu1   1.963774 S    
C14   C16   1.397434 A    
C7    C9    1.403203 A    
O6    Cu2   1.967175 S    
C18   N4    1.439195 S    
C6    C8    1.396922 A    
C31   C33   1.398082 A    
O3    C1    1.280114 A    
O8    Cu1   1.973655 S    
C9    C22   1.484988 S    
C9    C11   1.405367 A    
C35   C40   1.387858 A    
C24   C26   1.396577 A    
C10   C12   1.405371 A    
C32   C34   1.398080 A    
C4    C19   1.452578 S    
C7    H5    1.083205 S    
C12   H8    1.080944 S    
C17   C19   1.410504 A    
H2    C16   1.082343 S    
C18   C20   1.410509 A    
C36   C38   1.399443 A    
C25   C27   1.405267 A    
C20   C22   1.413301 A    
C5    H3    1.079685 S    
C30   H18   1.083066 S    
C6    H4    1.079682 S    
C3    C20   1.452575 S    
O2    Cu2   1.963773 S    
C41   C44   1.477591 S    
O5    Cu1   1.967175 S    
C8    C10   1.403221 A    
C38   C40   1.410624 A    
C5    C15   1.397521 A    
C27   C40   1.482688 S    
C6    C16   1.397523 A    
C10   C21   1.484967 S    
