data_mof_unit_63530.cif
_audit_creation_date              2012-12-10T18:05:24-0500
_audit_creation_method            fapswitch 2.2
_symmetry_space_group_name_H-M    P1
_symmetry_Int_Tables_number       1
_space_group_crystal_system       triclinic
_cell_length_a                    30.765153
_cell_length_b                    30.681054
_cell_length_c                    23.611808
_cell_angle_alpha                 90.1242
_cell_angle_beta                  130.956648
_cell_angle_gamma                 89.961471
_cell_volume                      16831.493677

loop_
_atom_site_label
_atom_site_type_symbol
_atom_type_description
_atom_site_fract_x
_atom_site_fract_y
_atom_site_fract_z
_atom_type_partial_charge
C1    C     C_R   0.809110 0.809337 0.499812 0.801868
C2    C     C_R   0.190424 0.809469 0.499392 0.798188
C3    C     C_R   0.309539 0.309471 0.500529 0.798333
C4    C     C_R   0.690447 0.309460 0.499426 0.795438
C5    C     C_R   0.442736 0.754237 0.885747 0.084423
C6    C     C_R   0.557741 0.754205 0.114296 0.084497
C7    C     C_R   0.942492 0.250932 0.884631 0.075933
C8    C     C_R   0.056071 0.251304 0.113648 0.084443
C9    C     C_1   0.483322 0.755444 0.966271 -0.040000
C10   C     C_1   0.517251 0.755429 0.033781 -0.039987
C11   C     C_1   0.982156 0.251655 0.965325 -0.039156
C12   C     C_1   0.015631 0.251863 0.032934 -0.038494
C13   C     C_R   0.900709 0.842776 0.549400 0.122389
C14   C     C_R   0.152508 0.843258 0.554156 0.103803
C15   C     C_R   0.345763 0.343977 0.444210 0.102459
C16   C     C_R   0.654340 0.344210 0.555791 0.099609
C17   C     C_R   0.841140 0.842669 0.498280 -0.081604
C18   C     C_R   0.158396 0.843504 0.500441 -0.079788
C19   C     C_R   0.341567 0.343494 0.499512 -0.077836
C20   C     C_R   0.658367 0.343476 0.500347 -0.076436
C21   C     C_R   0.813006 0.876694 0.445266 -0.207618
C22   C     C_R   0.138080 0.879641 0.452517 -0.205204
C23   C     C_R   0.363430 0.379044 0.549126 -0.206545
C24   C     C_R   0.636286 0.378780 0.450490 -0.206427
C25   C     C_R   0.845456 0.908902 0.444772 -0.211695
C26   C     C_R   0.105496 0.911756 0.452097 -0.216211
C27   C     C_R   0.395911 0.411179 0.549432 -0.215617
C28   C     C_R   0.603753 0.410917 0.450135 -0.216292
C29   C     C_R   0.906195 0.908052 0.498908 -0.094002
C30   C     C_R   0.094882 0.908552 0.501444 -0.082275
C31   C     C_R   0.404889 0.408627 0.498330 -0.085145
C32   C     C_R   0.594950 0.408593 0.501408 -0.085332
C33   C     C_R   0.931729 0.874446 0.550735 0.128018
C34   C     C_R   0.121881 0.875620 0.555309 0.142014
C35   C     C_R   0.376299 0.376368 0.443001 0.138608
C36   C     C_R   0.623744 0.376601 0.556930 0.138839
C37   C     C_3   0.987889 0.855515 0.616433 -0.471529
C38   C     C_3   0.096588 0.844192 0.575015 -0.505199
C39   C     C_3   0.399543 0.345238 0.419879 -0.487899
C40   C     C_3   0.600716 0.345594 0.580365 -0.484658
C41   C     C_3   0.952334 0.819567 0.615283 -0.479387
C42   C     C_3   0.130231 0.808605 0.573591 -0.442443
C43   C     C_3   0.366036 0.309616 0.421438 -0.449344
C44   C     C_3   0.634294 0.309959 0.578878 -0.454365
C45   C     C_R   0.677725 0.750047 0.355390 0.811292
C46   C     C_R   0.322310 0.750088 0.644600 0.813537
C47   C     C_R   0.177559 0.249872 0.355304 0.813239
C48   C     C_R   0.822398 0.249911 0.644276 0.808807
C49   C     C_R   0.048813 0.721665 0.153661 -0.157873
C50   C     C_R   0.951366 0.722190 0.846187 -0.158823
C51   C     C_R   0.549233 0.221143 0.153739 -0.159097
C52   C     C_R   0.450801 0.221603 0.846175 -0.158678
C53   C     C_R   0.088013 0.721772 0.232090 -0.189173
C54   C     C_R   0.912251 0.722317 0.767771 -0.193211
C55   C     C_R   0.588457 0.221286 0.232165 -0.194102
C56   C     C_R   0.411713 0.221767 0.767761 -0.189546
C57   C     C_R   0.136067 0.749732 0.272393 -0.033719
C58   C     C_R   0.863867 0.749872 0.727610 -0.035106
C59   C     C_R   0.636106 0.249648 0.272400 -0.035032
C60   C     C_R   0.363765 0.249764 0.727616 -0.033691
C61   C     C_R   0.143973 0.777543 0.232450 -0.194041
C62   C     C_R   0.855577 0.777295 0.767686 -0.191967
C63   C     C_R   0.643606 0.277797 0.232394 -0.192053
C64   C     C_R   0.355852 0.277556 0.767712 -0.194816
C65   C     C_R   0.104719 0.777367 0.154050 -0.159690
C66   C     C_R   0.894753 0.777096 0.846092 -0.159217
C67   C     C_R   0.604323 0.277588 0.153993 -0.159965
C68   C     C_R   0.395006 0.277323 0.846121 -0.160013
C69   C     C_R   0.057087 0.749448 0.114506 0.145982
C70   C     C_R   0.942688 0.749548 0.885487 0.145778
C71   C     C_R   0.557076 0.249288 0.114517 0.146222
C72   C     C_R   0.442532 0.249361 0.885496 0.146207
C73   C     C_1   0.016728 0.749370 0.033800 -0.064972
C74   C     C_1   0.982970 0.749407 0.966191 -0.065137
C75   C     C_1   0.516656 0.249198 0.033810 -0.065844
C76   C     C_1   0.482849 0.249227 0.966200 -0.065679
C77   C     C_R   0.643201 0.618754 0.462858 0.132294
C78   C     C_R   0.356980 0.618927 0.537415 0.132096
C79   C     C_R   0.143634 0.118588 0.463414 0.132608
C80   C     C_R   0.818611 0.120126 0.459120 0.126120
C81   C     C_R   0.658354 0.657603 0.501972 -0.095540
C82   C     C_R   0.341727 0.657622 0.498174 -0.095211
C83   C     C_R   0.158352 0.157601 0.501990 -0.095738
C84   C     C_R   0.843608 0.157620 0.502194 -0.092168
C85   C     C_R   0.640181 0.663907 0.542972 -0.205596
C86   C     C_R   0.359923 0.663811 0.457217 -0.205849
C87   C     C_R   0.139725 0.164067 0.542435 -0.204967
C88   C     C_R   0.903625 0.162639 0.546871 -0.218932
C89   C     C_R   0.690787 0.690631 0.500232 0.799718
C90   C     C_R   0.309219 0.690640 0.499793 0.799981
C91   C     C_R   0.190793 0.190630 0.500250 0.799955
C92   C     C_R   0.809542 0.190654 0.500500 0.797164
C93   C     C_R   0.608222 0.631302 0.543589 -0.214820
C94   C     C_R   0.391952 0.631212 0.456684 -0.214786
C95   C     C_R   0.107758 0.131465 0.543043 -0.213219
C96   C     C_R   0.936030 0.130068 0.547024 -0.214368
C97   C     C_R   0.592651 0.592864 0.501240 -0.084676
C98   C     C_R   0.407561 0.592914 0.499076 -0.084534
C99   C     C_R   0.092646 0.092857 0.501242 -0.082196
C100  C     C_R   0.908301 0.093043 0.500570 -0.084323
C101  C     C_R   0.610877 0.588286 0.461318 0.125814
C102  C     C_R   0.389381 0.588470 0.539043 0.125620
C103  C     C_R   0.111315 0.088110 0.461866 0.125118
C104  C     C_R   0.849284 0.089791 0.457078 0.123794
C105  C     C_3   0.610202 0.558565 0.410881 -0.490528
C106  C     C_3   0.389949 0.558856 0.589332 -0.490455
C107  C     C_3   0.111212 0.058172 0.412133 -0.491092
C108  C     C_3   0.798278 0.061697 0.402256 -0.485097
C109  C     C_3   0.646567 0.593596 0.411829 -0.476303
C110  C     C_3   0.353498 0.593889 0.588295 -0.475782
C111  C     C_3   0.147572 0.093208 0.413086 -0.474834
C112  C     C_3   0.763063 0.096634 0.403910 -0.468008
C113  C     C_R   0.440461 0.559374 0.499808 0.803746
C114  C     C_R   0.559596 0.559372 0.500295 0.803360
C115  C     C_R   0.940526 0.059408 0.499965 0.802598
C116  C     C_R   0.059599 0.059365 0.500296 0.804002
C117  C     C_R   0.940319 0.940693 0.499779 0.803121
C118  C     C_R   0.059632 0.940533 0.500167 0.799184
C119  C     C_R   0.440307 0.440526 0.499736 0.797113
C120  C     C_R   0.559640 0.440526 0.500164 0.797249
C121  C     C_R   0.822308 0.749972 0.644555 0.782110
C122  C     C_R   0.177684 0.749906 0.355456 0.781853
C123  C     C_R   0.322272 0.249936 0.644558 0.781800
C124  C     C_R   0.677706 0.249879 0.355458 0.781977
C125  C     C_R   0.446065 0.784674 0.844826 -0.160436
C126  C     C_R   0.554657 0.784852 0.155361 -0.160904
C127  C     C_R   0.928967 0.289541 0.844665 -0.156860
C128  C     C_R   0.052444 0.282109 0.154087 -0.160116
C129  C     C_R   0.406819 0.783049 0.766559 -0.262476
C130  C     C_R   0.593749 0.783209 0.233607 -0.265656
C131  C     C_R   0.890284 0.288920 0.766328 -0.263397
C132  C     C_R   0.092016 0.281420 0.232485 -0.262054
C133  C     C_R   0.363739 0.750745 0.727881 -0.132378
C134  C     C_R   0.636431 0.750681 0.272124 -0.130994
C135  C     C_R   0.864468 0.249672 0.726977 -0.133222
C136  C     C_R   0.135787 0.249726 0.271853 -0.132774
C137  C     C_R   0.361308 0.719423 0.769766 0.440023
C138  C     C_R   0.638611 0.719154 0.230095 0.442952
C139  C     C_R   0.879584 0.210456 0.767406 0.438137
C140  C     C_R   0.138488 0.218008 0.230470 0.440550
C141  C     C_R   0.400303 0.721981 0.848389 -0.257343
C142  C     C_R   0.599775 0.721717 0.151494 -0.255980
C143  C     C_R   0.917819 0.211500 0.846024 -0.238950
C144  C     C_R   0.099170 0.219634 0.151740 -0.256487
Cu1   Cu    Cu3+1 0.780910 0.719080 0.500000 0.961302
Cu2   Cu    Cu3+1 0.219090 0.719080 0.500000 0.957636
Cu3   Cu    Cu3+1 0.280910 0.219080 0.500000 0.957241
Cu4   Cu    Cu3+1 0.719090 0.219080 0.500000 0.959298
Cu5   Cu    Cu3+1 0.719070 0.780890 0.500010 0.939207
Cu6   Cu    Cu3+1 0.280930 0.780890 0.499990 0.938765
Cu7   Cu    Cu3+1 0.219070 0.280890 0.500010 0.939446
Cu8   Cu    Cu3+1 0.780930 0.280890 0.499990 0.939767
Cu9   Cu    Cu3+1 0.462710 0.500000 0.425470 0.945842
Cu10  Cu    Cu3+1 0.537290 0.500000 0.574530 0.945478
Cu11  Cu    Cu3+1 0.962710 0.000000 0.425470 0.945865
Cu12  Cu    Cu3+1 0.037290 0.000000 0.574530 0.944525
H1    H     H_    0.478929 0.809753 0.873404 0.144984
H2    H     H_    0.522098 0.810106 0.126912 0.144462
H3    H     H_    0.948075 0.320180 0.874055 0.144350
H4    H     H_    0.019159 0.306811 0.125030 0.143985
H5    H     H_    0.954971 0.820513 0.664530 0.195944
H6    H     H_    0.102297 0.784575 0.527539 0.211859
H7    H     H_    0.394088 0.284981 0.466065 0.211676
H8    H     H_    0.606291 0.285122 0.534412 0.212053
H9    H     H_    0.012064 0.699921 0.123582 0.133121
H10   H     H_    0.988363 0.700753 0.876146 0.132868
H11   H     H_    0.512795 0.199094 0.123715 0.132578
H12   H     H_    0.487470 0.199835 0.876117 0.132767
H13   H     H_    0.080654 0.699967 0.261073 0.154348
H14   H     H_    0.919935 0.700839 0.738684 0.154031
H15   H     H_    0.581437 0.199192 0.261198 0.153660
H16   H     H_    0.419077 0.199971 0.738663 0.154237
H17   H     H_    0.180473 0.799460 0.261694 0.153305
H18   H     H_    0.818815 0.798892 0.738539 0.154332
H19   H     H_    0.679789 0.300025 0.261591 0.154111
H20   H     H_    0.319427 0.299494 0.738580 0.153008
H21   H     H_    0.111527 0.799014 0.124287 0.131940
H22   H     H_    0.887641 0.798424 0.875973 0.132771
H23   H     H_    0.610797 0.299515 0.124175 0.132093
H24   H     H_    0.388211 0.298959 0.876019 0.131749
H25   H     H_    0.651150 0.693527 0.574951 0.159030
H26   H     H_    0.348889 0.693322 0.425176 0.158961
H27   H     H_    0.150343 0.193814 0.573991 0.158421
H28   H     H_    0.925349 0.191188 0.582030 0.152733
H29   H     H_    0.594985 0.636373 0.575790 0.151755
H30   H     H_    0.405164 0.636162 0.424455 0.151828
H31   H     H_    0.094161 0.136664 0.574806 0.146778
H32   H     H_    0.982160 0.134075 0.582204 0.149059
H33   H     H_    0.633962 0.527772 0.439292 0.194394
H34   H     H_    0.366215 0.528006 0.560827 0.194414
H35   H     H_    0.135114 0.027507 0.441067 0.193873
H36   H     H_    0.788027 0.059498 0.347605 0.207363
H37   H     H_    0.566323 0.554621 0.355346 0.204485
H38   H     H_    0.433786 0.555023 0.644922 0.204479
H39   H     H_    0.067497 0.053980 0.356449 0.205367
H40   H     H_    0.800757 0.030050 0.427083 0.192727
H41   H     H_    0.691160 0.582914 0.440065 0.206992
H42   H     H_    0.308887 0.583147 0.559920 0.207004
H43   H     H_    0.192309 0.082655 0.441849 0.206713
H44   H     H_    0.732768 0.114813 0.350364 0.196731
H45   H     H_    0.410138 0.807317 0.736323 0.177058
H46   H     H_    0.590637 0.807648 0.263958 0.175888
H47   H     H_    0.879728 0.319258 0.736371 0.167722
H48   H     H_    0.088430 0.305935 0.262288 0.176541
H49   H     H_    0.623331 0.610011 0.356937 0.189294
H50   H     H_    0.376635 0.610430 0.643187 0.189218
H51   H     H_    0.124497 0.109381 0.358040 0.189585
H52   H     H_    0.744862 0.085061 0.429193 0.204479
H53   H     H_    0.397519 0.698582 0.880229 0.141292
H54   H     H_    0.602360 0.698138 0.119550 0.141780
H55   H     H_    0.928605 0.181438 0.876775 0.148905
H56   H     H_    0.102321 0.196007 0.120384 0.141085
H57   H     H_    0.766440 0.878008 0.404023 0.151216
H58   H     H_    0.144972 0.881884 0.413124 0.151633
H59   H     H_    0.357809 0.380786 0.589821 0.150238
H60   H     H_    0.641793 0.380317 0.409680 0.150252
H61   H     H_    0.823284 0.934589 0.403252 0.154381
H62   H     H_    0.087814 0.938451 0.412613 0.150977
H63   H     H_    0.414816 0.437361 0.590208 0.151962
H64   H     H_    0.584699 0.436922 0.409224 0.152236
H65   H     H_    0.013408 0.843496 0.601648 0.192683
H66   H     H_    0.111862 0.850369 0.631965 0.201961
H67   H     H_    0.383067 0.352189 0.362568 0.205792
H68   H     H_    0.617263 0.352814 0.637683 0.204935
H69   H     H_    0.011412 0.876990 0.666625 0.206974
H70   H     H_    0.049155 0.840808 0.529826 0.192660
H71   H     H_    0.446983 0.341236 0.463465 0.186647
H72   H     H_    0.553284 0.341399 0.536901 0.186466
H73   H     H_    0.957618 0.786839 0.600213 0.208442
H74   H     H_    0.164862 0.794264 0.629707 0.202824
H75   H     H_    0.330267 0.296028 0.365027 0.203238
H76   H     H_    0.670173 0.296629 0.635337 0.199139
O1    O     O_R   0.821190 0.768980 0.500000 -0.580381
O2    O     O_R   0.178810 0.768980 0.500000 -0.584436
O3    O     O_R   0.321190 0.268980 0.500000 -0.584360
O4    O     O_R   0.678810 0.268980 0.500000 -0.586529
O5    O     O_R   0.486270 0.545120 0.562900 -0.588994
O6    O     O_R   0.513730 0.545120 0.437100 -0.588989
O7    O     O_R   0.986270 0.045120 0.562900 -0.590217
O8    O     O_R   0.013730 0.045120 0.437100 -0.586161
O9    O     O_R   0.923420 0.954920 0.437060 -0.587675
O10   O     O_R   0.076580 0.954920 0.562940 -0.583923
O11   O     O_R   0.423420 0.454920 0.437060 -0.582096
O12   O     O_R   0.576580 0.454920 0.562940 -0.582513
O13   O     O_R   0.986330 0.954940 0.562940 -0.586220
O14   O     O_R   0.013670 0.954940 0.437060 -0.586341
O15   O     O_R   0.486330 0.454940 0.562940 -0.588903
O16   O     O_R   0.513670 0.454940 0.437060 -0.588849
O17   O     O_R   0.768960 0.821170 0.500020 -0.586711
O18   O     O_R   0.231040 0.821170 0.499980 -0.585867
O19   O     O_R   0.268960 0.321170 0.500020 -0.585411
O20   O     O_R   0.731040 0.321170 0.499980 -0.586321
O21   O     O_R   0.721730 0.723890 0.391250 -0.530057
O22   O     O_R   0.278270 0.723890 0.608750 -0.531619
O23   O     O_R   0.221730 0.223890 0.391250 -0.531303
O24   O     O_R   0.778270 0.223890 0.608750 -0.537678
O25   O     O_R   0.669500 0.776090 0.391270 -0.598647
O26   O     O_R   0.330500 0.776090 0.608730 -0.595655
O27   O     O_R   0.169500 0.276090 0.391270 -0.594990
O28   O     O_R   0.830500 0.276090 0.608730 -0.596532
O29   O     O_R   0.731010 0.678810 0.499990 -0.588996
O30   O     O_R   0.268990 0.678810 0.500010 -0.588902
O31   O     O_R   0.231010 0.178810 0.499990 -0.589361
O32   O     O_R   0.768990 0.178810 0.500010 -0.588329
O33   O     O_R   0.678790 0.731000 0.500010 -0.587135
O34   O     O_R   0.321210 0.731000 0.499990 -0.587050
O35   O     O_R   0.178790 0.231000 0.500010 -0.586941
O36   O     O_R   0.821210 0.231000 0.499990 -0.585078
O37   O     O_R   0.830470 0.723890 0.608750 -0.590791
O38   O     O_R   0.169530 0.723890 0.391250 -0.589012
O39   O     O_R   0.330470 0.223890 0.608750 -0.589256
O40   O     O_R   0.669530 0.223890 0.391250 -0.590186
O41   O     O_R   0.778250 0.776080 0.608760 -0.589311
O42   O     O_R   0.221750 0.776080 0.391240 -0.591858
O43   O     O_R   0.278250 0.276080 0.608760 -0.591945
O44   O     O_R   0.721750 0.276080 0.391240 -0.588751
O45   O     O_R   0.423360 0.545090 0.437020 -0.584943
O46   O     O_R   0.576640 0.545090 0.562980 -0.584980
O47   O     O_R   0.923360 0.045090 0.437020 -0.585504
O48   O     O_R   0.076640 0.045090 0.562980 -0.587506
O49   O     O_3   0.319344 0.687423 0.733930 -0.562109
C145  C     C_3   0.344975 0.647031 0.742099 0.075581
H77   H     H_    0.369787 0.634380 0.800042 0.135949
H78   H     H_    0.374105 0.649786 0.729600 0.116568
C146  C     C_3   0.298018 0.614302 0.687458 -0.772066
H79   H     H_    0.272949 0.625918 0.628980 0.254534
H80   H     H_    0.317651 0.582318 0.693641 0.191338
H81   H     H_    0.268586 0.610117 0.698974 0.246960
O50   O     O_3   0.680183 0.686927 0.265771 -0.559759
C147  C     C_3   0.654066 0.646810 0.257597 0.074443
H82   H     H_    0.628628 0.634148 0.199445 0.135738
H83   H     H_    0.625419 0.650011 0.270818 0.116037
C148  C     C_3   0.700658 0.613797 0.311519 -0.770097
H84   H     H_    0.726319 0.625404 0.370200 0.254235
H85   H     H_    0.680640 0.582016 0.305302 0.191032
H86   H     H_    0.729616 0.609206 0.299298 0.247654
O51   O     O_3   0.856437 0.171033 0.730568 -0.567611
C149  C     C_3   0.891470 0.153676 0.717052 0.066646
H87   H     H_    0.935128 0.145822 0.770928 0.135883
H88   H     H_    0.895613 0.176793 0.684443 0.118664
C150  C     C_3   0.864374 0.111914 0.671494 -0.750669
H89   H     H_    0.820561 0.118695 0.617531 0.260457
H90   H     H_    0.891117 0.098445 0.659463 0.199129
H91   H     H_    0.861357 0.087407 0.703336 0.241757
O52   O     O_3   0.181080 0.186545 0.266879 -0.562323
C151  C     C_3   0.156289 0.145879 0.259520 0.076146
H92   H     H_    0.131952 0.132644 0.201929 0.136816
H93   H     H_    0.126913 0.148440 0.271654 0.116946
C152  C     C_3   0.203899 0.113920 0.315103 -0.771915
H94   H     H_    0.228493 0.126107 0.373262 0.254599
H95   H     H_    0.184935 0.081717 0.309518 0.191493
H96   H     H_    0.233626 0.109953 0.304013 0.246932

loop_
_geom_bond_atom_site_label_1
_geom_bond_atom_site_label_2
_ccdc_geom_bond_type
C99   C103  A    
Cu2   O2    S    
C133  C137  A    
C55   C59   A    
C47   C136  S    
C26   H62   S    
C147  C148  S    
Cu4   O40   S    
C48   C135  S    
C109  H41   S    
Cu5   O33   S    
C136  C140  A    
C23   H59   S    
C150  H89   S    
C135  C139  A    
Cu10  O5    S    
C145  H77   S    
Cu1   O1    S    
Cu12  O13   S    
C122  O42   A    
C95   C99   A    
Cu4   Cu8   S    
C29   C33   A    
C100  C104  A    
C3    O3    A    
Cu2   Cu6   S    
C77   C101  A    
C1    O1    A    
C70   C74   S    
C3    C19   S    
C16   C44   S    
C130  H46   S    
C38   H70   S    
C28   H64   S    
C49   C69   A    
Cu2   O22   S    
C130  C134  A    
C100  C115  S    
C51   C71   A    
C91   O35   A    
C25   C29   A    
C27   C31   A    
C105  H33   S    
C28   C32   A    
C4    O20   A    
Cu8   O44   S    
C113  O45   A    
C99   C116  S    
C30   C34   A    
C98   C102  A    
C17   C21   A    
C19   C23   A    
C75   C76   T    
C13   C33   A    
C52   C72   A    
C78   C82   A    
Cu10  O46   S    
C16   C20   A    
C80   C112  S    
C151  H92   S    
C92   O32   A    
Cu12  O10   S    
C129  C133  A    
Cu11  O8    S    
C89   O29   A    
C149  H87   S    
Cu3   O31   S    
C141  H53   S    
C91   O31   A    
C150  H91   S    
C59   C124  S    
C48   O28   A    
C84   C88   A    
C39   C43   S    
C118  O14   A    
C57   C61   A    
C83   C91   S    
C59   C63   A    
C60   C64   A    
C50   C70   A    
C37   H65   S    
C146  H80   S    
C115  O7    A    
C66   C70   A    
C49   C53   A    
Cu3   O23   S    
C125  H1    S    
C127  C131  A    
C92   O36   A    
C61   C65   A    
Cu11  Cu12  S    
C126  C130  A    
C103  C107  S    
C112  H44   S    
C46   O26   A    
C51   H11   S    
C7    C143  A    
Cu7   O27   S    
C106  H38   S    
Cu8   O36   S    
C21   C25   A    
C64   C68   A    
Cu2   O38   S    
C3    O19   A    
C138  O50   S    
C87   H27   S    
C1    O17   A    
C88   H28   S    
Cu9   O16   S    
C119  O15   A    
C7    C11   S    
Cu11  O47   S    
C85   C93   A    
C8    C128  A    
C87   C95   A    
C64   H20   S    
C9    C10   T    
C51   C55   A    
C8    C12   S    
C114  O6    A    
C129  H45   S    
C4    O4    A    
C79   C103  A    
C123  O43   A    
Cu6   O18   S    
C152  H95   S    
Cu12  O7    S    
C62   C66   A    
C116  O48   A    
C144  H56   S    
C78   C110  S    
C30   C118  S    
C4    C20   S    
C40   H72   S    
C60   C123  S    
C77   C109  S    
C5    C9    S    
C148  H84   S    
C125  C129  A    
C132  C136  A    
O50   C147  S    
Cu4   O32   S    
C109  H49   S    
Cu5   O25   S    
Cu4   O24   S    
Cu9   O11   S    
Cu1   O29   S    
C21   H57   S    
C6    C142  A    
C106  H34   S    
C121  O37   A    
Cu8   O20   S    
C123  O39   A    
C105  C109  S    
C124  O40   A    
C85   H25   S    
C18   C22   A    
C107  C111  S    
C24   C28   A    
C14   C34   A    
C42   H6    S    
C26   C30   A    
C52   H12   S    
C145  H78   S    
C13   C17   A    
C15   C43   S    
C16   C36   A    
C24   H60   S    
C65   H21   S    
Cu3   Cu7   S    
C96   C100  A    
C89   O33   A    
C37   C41   S    
C90   O30   A    
C40   C44   S    
Cu10  O15   S    
C145  C146  S    
C5    C125  A    
C108  H36   S    
C84   C92   S    
C7    C127  A    
C97   C114  S    
Cu7   O43   S    
C81   C85   A    
C118  O10   A    
C93   H29   S    
C58   C62   A    
C83   C87   A    
C88   C96   A    
C27   H63   S    
C41   H5    S    
C110  H42   S    
C73   C74   T    
C54   H14   S    
C111  H51   S    
C25   H61   S    
C80   C84   A    
C39   H67   S    
C13   C41   S    
C95   H31   S    
C15   C19   A    
C50   C54   A    
Cu9   O6    S    
C80   C104  A    
Cu12  O48   S    
C148  H86   S    
C106  C110  S    
C43   H75   S    
Cu11  O14   S    
C94   C98   A    
Cu9   O45   S    
C147  H82   S    
C96   H32   S    
Cu3   O39   S    
C57   C122  S    
C2    O2    A    
C47   O27   A    
C50   H10   S    
C151  H93   S    
C69   C73   S    
C108  H40   S    
C131  H47   S    
Cu6   O34   S    
C39   H71   S    
C53   H13   S    
C81   C89   S    
C37   H69   S    
C137  O49   S    
C56   H16   S    
Cu1   O21   S    
C149  H88   S    
C55   H15   S    
C150  H90   S    
Cu5   O17   S    
Cu10  O12   S    
C132  H48   S    
C151  C152  S    
C94   H30   S    
C6    C126  A    
C138  C142  A    
C53   C57   A    
C98   C113  S    
Cu7   O19   S    
C82   C86   A    
C33   C37   S    
C108  C112  S    
C149  C150  S    
Cu5   O41   S    
C35   C39   S    
C47   O23   A    
C146  H79   S    
C93   C97   A    
C77   C81   A    
C31   C119  S    
Cu11  O9    S    
Cu7   O35   S    
C49   H9    S    
C31   C35   A    
C32   C36   A    
C104  C108  S    
C115  O47   A    
C137  C141  A    
C58   C121  S    
C1    C17   S    
C140  C144  A    
C6    C10   S    
C45   O25   A    
C117  O13   A    
C82   C90   S    
C38   H66   S    
C67   H23   S    
C46   C133  S    
C79   C83   A    
C65   C69   A    
Cu6   O42   S    
Cu2   O30   S    
C67   C71   A    
C121  O41   A    
C122  O38   A    
C56   C60   A    
O52   C151  S    
C22   C26   A    
C86   H26   S    
C44   H8    S    
C46   O22   A    
Cu1   Cu5   S    
C43   H7    S    
C2    C18   S    
O51   C149  S    
C14   C18   A    
C72   C76   S    
C107  H39   S    
C152  H94   S    
C105  H37   S    
C66   H22   S    
C45   C134  S    
C40   H68   S    
C90   O34   A    
C139  O51   S    
C146  H81   S    
C131  C135  A    
C2    O18   A    
C62   H18   S    
Cu1   O37   S    
C120  O12   A    
C86   C94   A    
C111  H43   S    
C20   C24   A    
C23   C27   A    
C48   O24   A    
C68   C72   A    
C14   C42   S    
C113  O5    A    
C140  O52   S    
C139  C143  A    
C32   C120  S    
C128  C132  A    
C15   C35   A    
C126  H2    S    
C101  C105  S    
C63   C67   A    
C36   C40   S    
C61   H17   S    
C112  H52   S    
C143  H55   S    
O49   C145  S    
Cu3   O3    S    
C29   C117  S    
C68   H24   S    
Cu4   O4    S    
Cu8   O28   S    
C5    C141  A    
C110  H50   S    
C41   H73   S    
C22   H58   S    
C142  H54   S    
C107  H35   S    
C127  H3    S    
C128  H4    S    
C54   C58   A    
C152  H96   S    
C34   C38   S    
C134  C138  A    
C11   C12   T    
C63   H19   S    
C120  O16   A    
C116  O8    A    
C79   C111  S    
C44   H76   S    
C148  H85   S    
Cu6   O26   S    
C71   C75   S    
C124  O44   A    
C42   H74   S    
C102  C106  S    
C147  H83   S    
C114  O46   A    
C8    C144  A    
C38   C42   S    
C78   C102  A    
Cu9   Cu10  S    
C119  O11   A    
C97   C101  A    
C52   C56   A    
C45   O21   A    
C117  O9    A    
