data_mof_unit_45411.cif
_audit_creation_date              2012-12-11T14:08:14-0500
_audit_creation_method            fapswitch 2.2
_symmetry_space_group_name_H-M    P1
_symmetry_Int_Tables_number       1
_space_group_crystal_system       triclinic
_cell_length_a                    10.89458
_cell_length_b                    10.986902
_cell_length_c                    18.661084
_cell_angle_alpha                 90.486729
_cell_angle_beta                  90.043199
_cell_angle_gamma                 59.972525
_cell_volume                      1933.80965895

loop_
_atom_site_label
_atom_site_type_symbol
_atom_type_description
_atom_site_fract_x
_atom_site_fract_y
_atom_site_fract_z
_atom_type_partial_charge
C1    C     C_R   0.236609 0.645740 0.608816 0.548065
C2    C     C_3   0.671648 0.548983 0.800144 -0.044038
C3    C     C_3   0.699589 0.672628 0.812583 0.058736
C4    C     C_3   0.669413 0.647752 0.676503 0.039911
C5    C     C_3   0.817372 0.629432 0.690253 -0.243799
C6    C     C_3   0.651306 0.536417 0.719625 -0.194419
C7    C     C_2   0.686770 0.132389 0.662571 -0.126311
C8    C     C_2   0.715035 0.100382 0.816990 -0.089407
C9    C     C_2   0.826127 0.057654 0.772448 -0.154966
C10   C     C_2   0.802368 0.111649 0.698479 -0.158192
C11   C     C_2   0.181379 0.663220 0.681554 -0.123963
C12   C     C_R   0.654289 0.622830 0.601087 0.548259
C13   C     C_2   0.195449 0.662150 0.839463 -0.117715
C14   C     C_2   0.193130 0.561186 0.799746 -0.172932
C15   C     C_2   0.221042 0.549360 0.722571 -0.174624
C16   C     C_2   0.605511 0.599466 0.310244 -0.086042
C17   C     C_2   0.632478 0.661616 0.158687 -0.123161
C18   C     C_2   0.697288 0.531991 0.186575 -0.135632
C19   C     C_2   0.701796 0.504523 0.263853 0.057065
C20   C     C_2   0.632944 0.195376 0.318654 -0.077955
C21   C     C_2   0.636224 0.202736 0.163919 -0.113531
C22   C     C_2   0.521054 0.231767 0.201250 -0.166172
C23   C     C_R   0.630558 0.223635 0.600313 0.549284
C24   C     C_2   0.516256 0.259659 0.277170 -0.147124
C25   C     C_2   0.120712 0.681651 0.345118 -0.106593
C26   C     C_2   0.113475 0.691875 0.190857 -0.086249
C27   C     C_2   0.041272 0.804971 0.234202 -0.140854
C28   C     C_2   0.073023 0.800847 0.309658 -0.162788
C29   C     C_R   0.727280 0.047151 0.889379 0.551329
C30   C     C_R   0.722920 0.687748 0.888548 0.556254
C31   C     C_R   0.119447 0.706058 0.907538 0.538500
C32   C     C_R   0.672602 0.114737 0.101187 0.566077
C33   C     C_R   0.691465 0.688146 0.094453 0.561663
C34   C     C_R   0.215286 0.651469 0.404609 0.543864
C35   C     C_R   0.086652 0.713504 0.115323 0.552273
C36   C     C_R   0.612081 0.583503 0.388197 0.588395
C37   C     C_R   0.614911 0.232334 0.393575 0.554116
C38   C     C_3   0.571120 0.810258 0.783139 -0.256158
C39   C     C_3   0.554654 0.796231 0.702427 -0.250923
C40   C     C_3   0.834231 0.646800 0.770413 -0.214486
Cr1   Cr    Cr6+3 0.393010 0.398050 0.501480 1.024252
Cr2   Cr    Cr6+3 0.398820 0.707980 0.501630 1.025383
Cr3   Cr    Cr6+3 0.708140 0.393940 0.496850 1.045822
Cr4   Cr    Cr6+3 0.937950 0.938450 0.008940 1.052350
Cr5   Cr    Cr6+3 0.626180 0.937030 0.994750 1.026778
Cr6   Cr    Cr6+3 0.937790 0.625760 0.001410 1.049071
H1    H     H_    0.586910 0.901717 0.792562 0.138574
H2    H     H_    0.728259 0.428514 0.700422 0.171109
H3    H     H_    0.929794 0.550638 0.789516 0.168077
H4    H     H_    0.902259 0.523402 0.672333 0.152966
H5    H     H_    0.933636 0.990555 0.791381 0.148825
H6    H     H_    0.873552 0.144067 0.676303 0.163155
H7    H     H_    0.608406 0.172452 0.798189 0.123792
H8    H     H_    0.621370 0.092208 0.684140 0.098738
H9    H     H_    0.163920 0.489098 0.823195 0.160246
H10   H     H_    0.275144 0.444161 0.699415 0.163482
H11   H     H_    0.232822 0.728485 0.816564 0.105254
H12   H     H_    0.471902 0.832443 0.811354 0.126929
H13   H     H_    0.124964 0.768530 0.704521 0.102414
H14   H     H_    0.773459 0.444406 0.153746 0.176225
H15   H     H_    0.554791 0.752975 0.188428 0.106586
H16   H     H_    0.512542 0.692096 0.290308 0.084566
H17   H     H_    0.436129 0.219184 0.178556 0.166218
H18   H     H_    0.411771 0.328561 0.299961 0.160285
H19   H     H_    0.716839 0.222503 0.186233 0.129690
H20   H     H_    0.738150 0.125358 0.297217 0.111194
H21   H     H_    0.968193 0.907922 0.212494 0.162638
H22   H     H_    0.446279 0.813808 0.692195 0.150322
H23   H     H_    0.076217 0.890497 0.332571 0.174294
H24   H     H_    0.188106 0.587680 0.210322 0.088766
H25   H     H_    0.108650 0.595972 0.323493 0.125551
H26   H     H_    0.565342 0.878254 0.673070 0.122103
H27   H     H_    0.853271 0.736461 0.779114 0.106640
H28   H     H_    0.830496 0.708753 0.659636 0.117756
H29   H     H_    0.572869 0.571792 0.829011 0.125702
H30   H     H_    0.543617 0.551217 0.710363 0.109008
O1    O     O_R   0.507110 0.256280 0.580300 -0.516931
O2    O     O_R   0.524640 0.695370 0.425100 -0.496874
O3    O     O_R   0.735890 0.504390 0.415980 -0.461538
O4    O     O_R   0.690560 0.277820 0.422350 -0.490356
O5    O     O_3   0.499990 0.499990 0.499980 -0.282113
O6    O     O_R   0.089190 0.825870 0.932320 -0.516201
O7    O     O_R   0.819070 0.053960 0.931440 -0.456634
O8    O     O_R   0.607070 0.076440 0.916460 -0.518327
O9    O     O_R   0.647110 0.806550 0.917690 -0.531019
O10   O     O_R   0.837080 0.593860 0.915300 -0.484360
O11   O     O_R   0.064770 0.636080 0.932550 -0.500833
O12   O     O_R   0.280830 0.527190 0.577940 -0.495580
O13   O     O_R   0.068250 0.829200 0.092940 -0.509445
O14   O     O_R   0.799650 0.057040 0.080330 -0.497860
O15   O     O_R   0.586130 0.079760 0.077080 -0.504539
O16   O     O_R   0.627700 0.809630 0.066580 -0.492406
O17   O     O_R   0.816140 0.597180 0.075920 -0.496005
O18   O     O_R   0.045360 0.639170 0.081440 -0.488521
O19   O     O_3   0.833980 0.833750 0.001700 -0.279566
O20   O     O_R   0.261360 0.738990 0.584270 -0.517099
O21   O     O_R   0.532590 0.694780 0.574370 -0.503170
O22   O     O_R   0.744470 0.503750 0.577000 -0.523398
O23   O     O_R   0.698520 0.277230 0.571620 -0.499737
O24   O     O_R   0.498530 0.256920 0.419280 -0.511508
O25   O     O_R   0.272880 0.527780 0.428680 -0.505554
O26   O     O_R   0.252780 0.739630 0.423250 -0.515309
I1    I     I_    0.887147 0.312376 0.292923 -0.401272
I2    I     I_    0.835689 0.348142 0.840212 -0.414367

loop_
_geom_bond_atom_site_label_1
_geom_bond_atom_site_label_2
_ccdc_geom_bond_type
C7    C10   D    
C23   O23   A    
C39   H22   S    
C28   H23   S    
C1    C11   S    
Cr3   O22   S    
Cr4   O7    S    
C10   H6    S    
C25   C28   D    
C26   C27   D    
C34   O26   A    
C31   O6    A    
C6    H2    S    
Cr2   O20   S    
C8    C29   S    
C20   H20   S    
Cr3   O23   S    
C29   O7    A    
Cr4   O6    S    
C16   C19   D    
Cr1   O1    S    
C38   C39   S    
C32   O15   A    
C13   H11   S    
Cr3   O3    S    
C40   H3    S    
C40   H27   S    
C18   C19   S    
C5    H28   S    
Cr5   O16   S    
C17   H15   S    
C22   H17   S    
C38   H12   S    
C19   I1    S    
C32   O14   A    
Cr6   O19   S    
C20   C24   D    
C3    C38   S    
C8    C9    D    
C9    H5    S    
C39   H26   S    
C25   H25   S    
C30   O10   A    
C9    C10   S    
C12   O22   A    
C25   C34   S    
C1    O12   A    
C14   H9    S    
C24   H18   S    
C21   C22   D    
C2    C6    S    
Cr2   O5    S    
C17   C33   S    
C11   H13   S    
Cr2   O26   S    
C37   O4    A    
C21   C32   S    
C34   O25   A    
C31   O11   A    
C29   O8    A    
C4    C6    S    
Cr2   O21   S    
Cr3   O4    S    
C3    C30   S    
Cr5   O9    S    
Cr6   O18   S    
C4    C39   S    
C2    I2    S    
Cr1   O5    S    
C17   C18   D    
C38   H1    S    
Cr1   O24   S    
C23   O1    A    
C30   O9    A    
C12   O21   A    
C35   O13   A    
C18   H14   S    
C3    C40   S    
Cr2   O2    S    
C11   C15   D    
C26   H24   S    
C22   C24   S    
C5    H4    S    
C33   O16   A    
Cr5   O8    S    
C4    C12   S    
Cr5   O19   S    
Cr4   O14   S    
Cr6   O11   S    
C35   O18   A    
Cr1   O12   S    
Cr3   O5    S    
C21   H19   S    
C13   C31   S    
C4    C5    S    
C36   O3    A    
C33   O17   A    
C8    H7    S    
C6    H30   S    
C15   H10   S    
C2    C3    S    
Cr4   O19   S    
C36   O2    A    
C16   C36   S    
C20   C37   S    
Cr6   O17   S    
C1    O20   A    
C7    C23   S    
Cr1   O25   S    
Cr5   O15   S    
C27   H21   S    
C2    H29   S    
C26   C35   S    
C5    C40   S    
C27   C28   S    
C14   C15   S    
C7    H8    S    
C13   C14   D    
C16   H16   S    
C37   O24   A    
Cr4   O13   S    
Cr6   O10   S    
