data_mof_unit_57645.cif
_audit_creation_date              2012-12-11T15:53:59-0500
_audit_creation_method            fapswitch 2.2
_symmetry_space_group_name_H-M    P1
_symmetry_Int_Tables_number       1
_space_group_crystal_system       triclinic
_cell_length_a                    10.715826
_cell_length_b                    10.664933
_cell_length_c                    16.956955
_cell_angle_alpha                 80.660025
_cell_angle_beta                  99.725518
_cell_angle_gamma                 118.146898
_cell_volume                      1676.5451056

loop_
_atom_site_label
_atom_site_type_symbol
_atom_type_description
_atom_site_fract_x
_atom_site_fract_y
_atom_site_fract_z
_atom_type_partial_charge
C1    C     C_R   0.361486 0.228696 0.627314 0.558315
C2    C     C_R   0.463514 0.776309 0.710756 0.237016
C3    C     C_R   0.462955 0.761737 0.793360 -0.145274
C4    C     C_3   0.074575 0.516071 0.770326 -0.234573
C5    C     C_3   0.082679 0.517895 0.682063 -0.259706
C6    C     C_R   0.348505 0.673746 0.664481 0.032168
C7    C     C_1   0.771391 0.629019 0.712429 -0.069131
C8    C     C_1   0.817793 0.668106 0.778336 -0.084888
C9    C     C_1   0.345745 0.187365 0.709845 -0.032843
C10   C     C_1   0.320148 0.159883 0.778180 -0.045355
C11   C     C_1   0.372947 0.639167 0.274769 0.064708
C12   C     C_R   0.373141 0.654174 0.587427 0.582867
C13   C     C_1   0.347132 0.657478 0.203828 0.073691
C14   C     C_R   0.791589 0.646951 0.147351 0.037263
C15   C     C_R   0.767065 0.519724 0.195376 -0.022004
C16   C     C_R   0.717495 0.488460 0.269181 0.007791
C17   C     C_R   0.705609 0.711166 0.250500 -0.172937
C18   C     C_R   0.741712 0.733754 0.171180 -0.157963
C19   C     C_3   0.855874 0.443767 0.219674 0.166236
C20   C     C_3   0.783706 0.389232 0.296341 0.187659
C21   C     C_R   0.708541 0.594558 0.303223 0.027029
C22   C     C_R   0.256964 0.039083 0.181678 -0.012861
C23   C     C_R   0.719641 0.586916 0.633187 0.554569
C24   C     C_R   0.147622 0.037770 0.216373 0.000056
C25   C     C_R   0.173094 0.084966 0.290784 0.027566
C26   C     C_R   0.395218 0.076654 0.314119 0.190716
C27   C     C_R   0.374385 0.039747 0.234691 -0.116032
C28   C     C_3   0.039131 0.089217 0.186984 -0.199871
C29   C     C_3   0.067252 0.142531 0.268718 0.090902
C30   C     C_R   0.305160 0.124205 0.337395 0.050831
C31   C     C_R   0.884284 0.698592 0.857471 0.535189
C32   C     C_R   0.314397 0.706081 0.898434 0.548064
C33   C     C_R   0.283856 0.114389 0.857795 0.559582
C34   C     C_R   0.348311 0.220121 0.401401 0.580187
C35   C     C_R   0.881033 0.688573 0.081688 0.570488
C36   C     C_R   0.317309 0.697761 0.122234 0.568111
C37   C     C_R   0.245302 0.034879 0.094647 0.586475
C38   C     C_R   0.402954 0.625476 0.359163 0.565025
C39   C     C_R   0.699607 0.582229 0.389470 0.562556
C40   C     C_R   0.340374 0.663156 0.829090 -0.023123
C41   C     C_R   0.230497 0.558123 0.783733 -0.006789
C42   C     C_R   0.237534 0.560706 0.702804 -0.033880
Cr1   Cr    Cr6+3 0.608440 0.389080 0.519680 1.046177
Cr2   Cr    Cr6+3 0.288640 0.400090 0.490760 1.007618
Cr3   Cr    Cr6+3 0.602940 0.710800 0.489510 1.028518
Cr4   Cr    Cr6+3 0.052530 0.947560 0.964210 0.998998
Cr5   Cr    Cr6+3 0.059970 0.626800 0.992920 1.051074
Cr6   Cr    Cr6+3 0.373320 0.938440 0.995370 1.013362
H1    H     H_    0.832949 0.359326 0.180817 0.107051
H2    H     H_    0.700037 0.276807 0.296207 0.111966
H3    H     H_    0.452021 0.018078 0.214130 0.154738
H4    H     H_    0.931270 0.001918 0.176989 0.103482
H5    H     H_    0.069872 0.174939 0.136470 0.202501
H6    H     H_    0.974770 0.087152 0.304521 0.115042
H7    H     H_    0.549050 0.845169 0.826657 0.149641
H8    H     H_    0.050318 0.601208 0.781941 0.174428
H9    H     H_    0.009047 0.407942 0.799395 0.141196
H10   H     H_    0.023340 0.410921 0.659250 0.143636
H11   H     H_    0.062248 0.602869 0.643836 0.167807
H12   H     H_    0.684645 0.789185 0.271649 0.129830
H13   H     H_    0.741341 0.823766 0.131488 0.121193
O1    O     O_R   0.754020 0.497590 0.609930 -0.506574
O2    O     O_R   0.295080 0.533620 0.397890 -0.437637
O3    O     O_R   0.485280 0.746620 0.388440 -0.468011
O4    O     O_R   0.720550 0.696220 0.420010 -0.520505
O5    O     O_3   0.500010 0.499990 0.499980 -0.337944
O6    O     O_R   0.163320 0.092900 0.874450 -0.522690
O7    O     O_R   0.934650 0.822080 0.882840 -0.512903
O8    O     O_R   0.915520 0.604140 0.893670 -0.519662
O9    O     O_R   0.191760 0.638110 0.923230 -0.503095
O10   O     O_R   0.406180 0.826930 0.920660 -0.526022
O11   O     O_R   0.358620 0.062870 0.901950 -0.485069
O12   O     O_R   0.481420 0.271390 0.600630 -0.489900
O13   O     O_R   0.163910 0.085460 0.050210 -0.518715
O14   O     O_R   0.935200 0.815170 0.045770 -0.523097
O15   O     O_R   0.916120 0.596690 0.069430 -0.485365
O16   O     O_R   0.192310 0.631200 0.086170 -0.434443
O17   O     O_R   0.406770 0.819480 0.096420 -0.555463
O18   O     O_R   0.359170 0.055960 0.064880 -0.506113
O19   O     O_3   0.161940 0.837600 0.984160 -0.273518
O20   O     O_R   0.263810 0.254550 0.589590 -0.535728
O21   O     O_R   0.300820 0.531200 0.560890 -0.509700
O22   O     O_R   0.491480 0.744020 0.564270 -0.456098
O23   O     O_R   0.726290 0.693800 0.583010 -0.513747
O24   O     O_R   0.747830 0.500190 0.434090 -0.427186
O25   O     O_R   0.475680 0.273800 0.437630 -0.478983
O26   O     O_R   0.257620 0.257160 0.413750 -0.508646
O27   O     O_3   0.561369 0.903622 0.673984 -0.530597
C43   C     C_3   0.702702 0.924701 0.697330 0.020773
H14   H     H_    0.736836 0.892739 0.649348 0.182598
H15   H     H_    0.716463 0.861402 0.754018 0.106537
C44   C     C_3   0.801290 0.082410 0.707798 -0.279586
H16   H     H_    0.784852 0.150049 0.653978 0.181283
H17   H     H_    0.775392 0.110992 0.760950 0.165638
C45   C     C_3   0.956977 0.111825 0.720360 -0.473966
H18   H     H_    0.969319 0.025024 0.760933 0.196393
H19   H     H_    0.024445 0.213826 0.747578 0.164770
H20   H     H_    0.995592 0.118907 0.662352 0.157079
O28   O     O_3   0.880993 0.420493 0.366728 -0.475001
C46   C     C_3   0.924859 0.312169 0.389131 0.075585
H21   H     H_    0.042130 0.363074 0.393403 0.238835
H22   H     H_    0.885839 0.231813 0.344533 0.126158
C47   C     C_3   0.880457 0.236878 0.471755 -0.265951
H23   H     H_    0.951919 0.306673 0.519189 0.142755
H24   H     H_    0.770452 0.216350 0.476765 0.231332
C48   C     C_3   0.888058 0.095394 0.485496 -0.435705
H25   H     H_    0.818606 0.024635 0.438087 0.182003
H26   H     H_    0.850339 0.039562 0.543936 0.145085
H27   H     H_    0.999249 0.114502 0.485385 0.168075
Cl1   Cl    Cl    0.526311 0.053950 0.383115 -0.633412
Cl2   Cl    Cl    0.143913 0.330458 0.256998 -0.644702
Cl3   Cl    Cl    0.038253 0.573130 0.237593 -0.505254

loop_
_geom_bond_atom_site_label_1
_geom_bond_atom_site_label_2
_ccdc_geom_bond_type
Cr1   O12   S    
Cr4   O19   S    
C5    C42   S    
C16   C21   A    
C28   H4    S    
C41   C42   A    
C14   C18   A    
Cr2   O5    S    
C45   H18   S    
C37   O13   A    
C45   H20   S    
C7    C8    T    
Cr3   O22   S    
C19   Cl3   S    
C15   C19   S    
C37   O18   A    
C35   O14   A    
C26   C27   A    
C5    H10   S    
Cr6   O18   S    
C44   H16   S    
C28   C29   S    
Cr5   O15   S    
Cr2   O21   S    
C36   O16   A    
C6    C12   S    
C48   H25   S    
C1    O20   A    
C15   C16   A    
C34   O25   A    
Cr6   O17   S    
Cr5   O8    S    
C20   H2    S    
C47   H23   S    
C33   O11   A    
C3    H7    S    
C23   O1    A    
C19   C20   S    
C4    H9    S    
C2    O27   S    
C43   H15   S    
Cr2   O26   S    
C9    C10   T    
C26   Cl1   S    
C32   C40   S    
C4    C41   S    
C4    H8    S    
C39   O4    A    
C2    C6    A    
Cr5   O19   S    
Cr6   O11   S    
C44   H17   S    
Cr4   O14   S    
C27   H3    S    
C32   O10   A    
C38   O3    A    
Cr2   O2    S    
C25   C29   S    
C31   O7    A    
C35   O15   A    
C23   O23   A    
C30   C34   S    
Cr1   O24   S    
C1    C9    S    
C24   C25   A    
C13   C36   S    
Cr2   O20   S    
C14   C35   S    
C5    H11   S    
C32   O9    A    
C22   C37   S    
C44   C45   S    
C17   C21   A    
C12   O22   A    
C47   C48   S    
C11   C38   S    
Cr5   O9    S    
Cr4   O7    S    
C19   H1    S    
O28   C46   S    
C21   C39   S    
C16   C20   S    
C46   H22   S    
C17   C18   A    
C12   O21   A    
C47   H24   S    
C43   C44   S    
C40   C41   A    
C3    C40   A    
C26   C30   A    
C22   C27   A    
C6    C42   A    
C22   C24   A    
Cr3   O23   S    
Cr5   O16   S    
Cr6   O10   S    
Cr4   O13   S    
C33   O6    A    
C38   O2    A    
C25   C30   A    
C8    C31   S    
C29   Cl2   S    
C24   C28   S    
C4    C5    S    
C28   H5    S    
C45   H19   S    
C18   H13   S    
Cr3   O3    S    
C1    O12   A    
Cr6   O19   S    
C2    C3    A    
Cr4   O6    S    
C36   O17   A    
Cr3   O4    S    
C11   C13   T    
C20   O28   S    
C48   H26   S    
Cr1   O5    S    
C7    C23   S    
C46   H21   S    
C10   C33   S    
C34   O26   A    
C46   C47   S    
Cr1   O25   S    
C17   H12   S    
C31   O8    A    
O27   C43   S    
C29   H6    S    
Cr3   O5    S    
C39   O24   A    
C14   C15   A    
C43   H14   S    
Cr1   O1    S    
C48   H27   S    
