data_mof_unit_10826.cif
_audit_creation_date              2012-12-10T18:58:10-0500
_audit_creation_method            fapswitch 2.2
_symmetry_space_group_name_H-M    P1
_symmetry_Int_Tables_number       1
_space_group_crystal_system       triclinic
_cell_length_a                    11.056892
_cell_length_b                    10.835022
_cell_length_c                    9.551672
_cell_angle_alpha                 90.355505
_cell_angle_beta                  102.516208
_cell_angle_gamma                 90.159293
_cell_volume                      1117.08002871

loop_
_atom_site_label
_atom_site_type_symbol
_atom_type_description
_atom_site_fract_x
_atom_site_fract_y
_atom_site_fract_z
_atom_type_partial_charge
C1    C     C_R   0.497187 0.262396 0.498812 0.808149
C2    C     C_R   0.483927 0.129436 0.493900 -0.101686
C3    C     C_R   0.481152 0.063573 0.365974 -0.214095
C4    C     C_R   0.482000 0.934899 0.366802 -0.206125
C5    C     C_R   0.485523 0.870989 0.495538 -0.169667
C6    C     C_R   0.469580 0.937643 0.615841 0.198784
C7    C     C_3   0.540162 0.934554 0.768059 0.186675
C8    C     C_3   0.538566 0.074857 0.766895 -0.508722
C9    C     C_R   0.606760 0.521648 0.100511 0.256232
C10   C     C_R   0.397531 0.466146 0.048352 -0.078034
C11   C     C_R   0.397484 0.466270 0.899782 -0.059595
C12   C     C_R   0.262872 0.499317 0.441970 0.866633
C13   C     C_R   0.607122 0.520187 0.953325 0.260798
C14   C     C_3   0.687717 0.631767 0.967209 -0.506931
C15   C     C_3   0.685108 0.635302 0.125415 -0.495928
C16   C     C_R   0.497914 0.737775 0.499664 0.806836
C17   C     C_R   0.737113 0.499413 0.558102 0.857159
C18   C     C_2   0.128063 0.496249 0.409478 -0.354121
C19   C     C_2   0.067386 0.495557 0.516118 -0.142314
C20   C     C_2   0.871929 0.499125 0.591068 -0.356442
C21   C     C_2   0.932938 0.491320 0.485099 -0.152533
C22   C     C_R   0.469002 0.064795 0.614857 0.062944
Cu1   Cu    Cu3+1 0.499990 0.499980 0.640670 0.958581
Cu2   Cu    Cu3+1 0.500010 0.500020 0.359330 0.942577
H1    H     H_    0.883590 0.482380 0.374028 0.172246
H2    H     H_    0.632127 0.116534 0.777109 0.167486
H3    H     H_    0.313966 0.439912 0.082072 0.141604
H4    H     H_    0.313858 0.440024 0.823977 0.134115
H5    H     H_    0.780801 0.610542 0.947067 0.188868
H6    H     H_    0.640528 0.710778 0.906293 0.230738
H7    H     H_    0.777371 0.618658 0.195895 0.190004
H8    H     H_    0.634739 0.716309 0.156104 0.210747
H9    H     H_    0.116941 0.498976 0.627644 0.174638
H10   H     H_    0.921578 0.506462 0.702299 0.143167
H11   H     H_    0.078149 0.493818 0.298087 0.142408
H12   H     H_    0.485166 0.110718 0.267411 0.168356
H13   H     H_    0.486376 0.886336 0.268569 0.170835
H14   H     H_    0.633952 0.893194 0.781503 0.086903
H15   H     H_    0.481502 0.116682 0.837273 0.218930
N1    N     N_R   0.500780 0.500930 0.148120 -0.185761
N2    N     N_R   0.500790 0.500890 0.852210 -0.177965
O1    O     O_R   0.500000 0.319640 0.618810 -0.580080
O2    O     O_R   0.500010 0.319680 0.381230 -0.589361
O3    O     O_R   0.320680 0.500000 0.575130 -0.585227
O4    O     O_R   0.320690 0.500040 0.337550 -0.590769
O5    O     O_R   0.499990 0.680320 0.618770 -0.555638
O6    O     O_R   0.500000 0.680360 0.381190 -0.581661
O7    O     O_R   0.679310 0.499960 0.662450 -0.589001
O8    O     O_R   0.679320 0.500000 0.424870 -0.581317
O9    O     O_3   0.467673 0.885230 0.857760 -0.699163
H16   H     H_    0.517897 0.894181 0.956854 0.315723

loop_
_geom_bond_atom_site_label_1
_geom_bond_atom_site_label_2
_ccdc_geom_bond_type
C10   H3    S    
C2    C22   A    
C8    C22   S    
Cu1   Cu2   S    
C15   H7    S    
C6    C7    S    
C12   O4    A    
C8    H15   S    
C8    H2    S    
C18   H11   S    
Cu1   N2    S    
C17   O7    A    
C20   H10   S    
C13   N2    A    
O9    H16   S    
C9    C15   S    
C15   H8    S    
C12   O3    A    
Cu1   O5    S    
C13   C14   S    
C4    H13   S    
Cu1   O1    S    
C3    H12   S    
C14   H6    S    
Cu2   O4    S    
C11   H4    S    
C16   O6    A    
C19   C21   S    
C7    H14   S    
C11   N2    A    
C2    C3    A    
C5    C6    A    
C10   C11   A    
C14   H5    S    
C12   C18   S    
C3    C4    A    
C6    C22   A    
C1    O1    A    
C7    C8    S    
C17   C20   S    
C20   C21   D    
C10   N1    A    
C1    C2    S    
C19   H9    S    
C16   O5    A    
Cu2   O8    S    
Cu2   O2    S    
C9    C13   A    
C14   C15   S    
C18   C19   D    
C5    C16   S    
C21   H1    S    
Cu1   O7    S    
Cu2   N1    S    
Cu2   O6    S    
C1    O2    A    
C9    N1    A    
C17   O8    A    
Cu1   O3    S    
C7    O9    S    
C4    C5    A    
