data_mof_unit_58103.cif
_audit_creation_date              2012-12-11T15:13:43-0500
_audit_creation_method            fapswitch 2.2
_symmetry_space_group_name_H-M    P1
_symmetry_Int_Tables_number       1
_space_group_crystal_system       triclinic
_cell_length_a                    6.974016
_cell_length_b                    13.6303
_cell_length_c                    20.118539
_cell_angle_alpha                 104.258156
_cell_angle_beta                  91.425011
_cell_angle_gamma                 90.248096
_cell_volume                      1852.83490161

loop_
_atom_site_label
_atom_site_type_symbol
_atom_type_description
_atom_site_fract_x
_atom_site_fract_y
_atom_site_fract_z
_atom_type_partial_charge
O1    O     O_R   0.506780 0.600060 0.449950 -0.544346
O2    O     O_R   0.179840 0.597110 0.589410 -0.543915
O3    O     O_R   0.004570 0.399940 0.550050 -0.535753
C1    C     C_R   0.349693 0.618230 0.616942 0.713329
O4    O     O_R   0.177380 0.612160 0.452890 -0.537889
O5    O     O_R   0.002100 0.415100 0.412560 -0.529573
C2    C     C_R   0.345081 0.638939 0.436610 0.718700
O6    O     O_R   0.509250 0.584900 0.587440 -0.542325
O7    O     O_3   0.337570 0.435330 0.486930 -0.373089
V1    V     V_3+5 0.064650 0.512000 0.502430 1.463332
O8    O     O_R   0.672090 0.402890 0.410590 -0.543133
C3    C     C_R   0.837319 0.384841 0.381938 0.789137
O9    O     O_R   0.674540 0.387840 0.547110 -0.544940
C4    C     C_R   0.844776 0.361696 0.563506 0.785175
V2    V     V_3+5 0.564040 0.488000 0.497570 1.451942
O10   O     O_3   0.840990 0.564670 0.513070 -0.384113
C5    C     C_R   0.935734 0.112778 0.605524 -0.242231
H1    H     H_    0.934829 0.983940 0.681962 0.136237
H2    H     H_    0.975056 0.036443 0.579194 0.124368
C6    C     C_R   0.860006 0.283342 0.601089 -0.137370
C7    C     C_R   0.829032 0.311296 0.928603 -0.175091
C8    C     C_R   0.813328 0.386705 0.893639 -0.091569
C9    C     C_R   0.821205 0.362995 0.822581 -0.089790
C10   C     C_R   0.842871 0.261787 0.784066 0.076967
C11   C     C_R   0.858673 0.183064 0.819874 0.026797
C12   C     C_R   0.854861 0.237181 0.711049 0.088793
C13   C     C_R   0.900153 0.137105 0.675808 0.048730
C14   C     C_R   0.909261 0.061171 0.710425 -0.191345
C15   C     C_R   0.880964 0.081405 0.780446 0.080650
C16   C     C_R   0.824678 0.308382 0.671378 -0.251738
C17   C     C_R   0.928159 0.187288 0.568927 0.447397
C18   C     C_R   0.853037 0.210381 0.893102 -0.073313
H3    H     H_    0.776050 0.384128 0.693456 0.143322
H4    H     H_    0.823342 0.331916 0.984125 0.103579
H5    H     H_    0.814546 0.426306 0.799474 0.134588
H6    H     H_    0.796745 0.464649 0.921959 0.123353
C19   C     C_3   0.705354 0.186931 0.236689 -0.254346
C20   C     C_3   0.855992 0.201807 0.295875 0.387868
H7    H     H_    0.588070 0.129711 0.224337 0.171010
C21   C     C_3   0.838642 0.317475 0.310187 -0.178543
C22   C     C_3   0.687180 0.303863 0.250872 -0.148625
C23   C     C_3   0.848462 0.305320 0.199659 -0.163019
C24   C     C_3   0.999054 0.321131 0.259469 0.061002
C25   C     C_3   0.019234 0.205532 0.246813 0.429922
C26   C     C_3   0.870228 0.189532 0.187024 -0.157545
H8    H     H_    0.555861 0.347964 0.250823 0.197744
H9    H     H_    0.844208 0.347813 0.159118 0.152719
C27   C     C_3   0.520814 0.760839 0.720115 -0.138291
C28   C     C_3   0.370857 0.844175 0.746411 -0.107112
H10   H     H_    0.381643 0.924243 0.743377 0.137078
H11   H     H_    0.656083 0.770814 0.694473 0.136955
C29   C     C_3   0.354773 0.808495 0.813056 -0.026701
C30   C     C_3   0.505379 0.725811 0.787574 -0.125628
C31   C     C_3   0.341672 0.651677 0.754451 0.152940
C32   C     C_3   0.191426 0.734294 0.780876 -0.120323
C33   C     C_3   0.207308 0.769431 0.713477 -0.144002
C34   C     C_3   0.357693 0.687009 0.687907 -0.059390
H12   H     H_    0.628141 0.707511 0.818451 0.135087
H13   H     H_    0.055955 0.722769 0.805910 0.143076
H14   H     H_    0.084743 0.787403 0.682378 0.127668
C35   C     C_R   0.252513 0.881721 0.387477 -0.177085
H15   H     H_    0.229855 0.831717 0.479798 0.103938
H16   H     H_    0.205958 0.999269 0.304105 0.170057
H17   H     H_    0.192624 0.954761 0.410871 0.124924
C36   C     C_R   0.348141 0.716945 0.397983 -0.062973
C37   C     C_R   0.433394 0.687381 0.068165 -0.250043
C38   C     C_R   0.486954 0.616851 0.103996 -0.168351
C39   C     C_R   0.483123 0.639920 0.175612 0.480564
C40   C     C_R   0.403227 0.733389 0.213207 -0.032784
C41   C     C_R   0.352182 0.806150 0.175066 -0.001187
C42   C     C_R   0.372309 0.758973 0.286238 0.086503
C43   C     C_R   0.297363 0.855789 0.317749 0.126276
C44   C     C_R   0.260905 0.925901 0.279521 -0.237832
C45   C     C_R   0.286715 0.901936 0.209584 -0.175038
C46   C     C_R   0.401941 0.691760 0.329296 -0.181133
C47   C     C_R   0.274043 0.812072 0.426933 -0.164561
C48   C     C_R   0.371877 0.782986 0.102880 -0.078139
H18   H     H_    0.455127 0.616918 0.311478 0.202209
H19   H     H_    0.450537 0.669227 0.013081 0.137063
H20   H     H_    0.542563 0.544762 0.076065 0.143531
H21   H     H_    0.250769 0.959052 0.182514 0.165406
O11   O     O_R   0.203580 0.914920 0.912610 -0.526978
O12   O     O_R   0.535710 0.887810 0.047120 -0.545995
O13   O     O_R   0.710730 0.084950 0.087430 -0.540339
C49   C     C_R   0.368994 0.861919 0.064358 0.688668
O14   O     O_R   0.533010 0.902850 0.910600 -0.530274
O15   O     O_R   0.708010 0.100090 0.949930 -0.531685
C50   C     C_R   0.362957 0.879804 0.883529 0.728264
O16   O     O_R   0.206300 0.899780 0.050100 -0.546451
O17   O     O_3   0.375170 0.064580 0.013100 -0.368170
V3    V     V_3+5 0.648200 0.988020 0.997570 1.473650
O18   O     O_R   0.038030 0.112330 0.952840 -0.534382
C51   C     C_R   0.867873 0.137024 0.935039 0.748169
O19   O     O_R   0.040730 0.097300 0.089360 -0.532715
C52   C     C_R   0.874639 0.118245 0.117008 0.716310
V4    V     V_3+5 0.148780 0.012220 0.002360 1.493092
O20   O     O_3   0.871930 0.935430 0.986900 -0.365293
O21   O     O_3   0.979466 0.165077 0.500966 -0.544695
C53   C     C_3   0.181385 0.158792 0.498703 -0.199444
H22   H     H_    0.238372 0.099990 0.523491 0.114894
H23   H     H_    0.249977 0.233473 0.522533 0.155028
H24   H     H_    0.223540 0.136158 0.444540 0.146413
I1    I     I_    0.196535 0.442477 0.267364 -0.493151
O22   O     O_3   0.194541 0.154933 0.247954 -0.568450
C54   C     C_3   0.291022 0.195746 0.311637 -0.247397
H25   H     H_    0.196401 0.208017 0.356193 0.169860
H26   H     H_    0.360998 0.268600 0.312138 0.178270
H27   H     H_    0.403213 0.142990 0.320205 0.146472
I2    I     I_    0.319454 0.497869 0.760888 -0.508844
O23   O     O_3   0.561736 0.569409 0.206570 -0.560861
C55   C     C_3   0.757850 0.593138 0.220801 -0.272648
H28   H     H_    0.781049 0.672841 0.250865 0.139818
H29   H     H_    0.839818 0.578217 0.172662 0.160043
H30   H     H_    0.814788 0.543634 0.252629 0.198075
I3    I     I_    0.863731 0.945148 0.812583 -0.465962
O24   O     O_3   0.859529 0.150537 0.348973 -0.544283
C56   C     C_3   0.815362 0.047066 0.321963 -0.209352
H31   H     H_    0.883318 0.014842 0.271896 0.123241
H32   H     H_    0.657944 0.035243 0.316073 0.135992
H33   H     H_    0.868335 0.004193 0.358822 0.175346

loop_
_geom_bond_atom_site_label_1
_geom_bond_atom_site_label_2
_ccdc_geom_bond_type
C20   C21   S    
C32   C33   S    
C32   H13   S    
C44   C45   A    
C55   H28   S    
C1    O6    A    
C25   O22   S    
C27   C34   S    
C6    C16   A    
C30   C31   S    
C33   C34   S    
C37   H19   S    
C54   H26   S    
C12   C13   A    
C36   C47   A    
C14   C15   A    
C10   C12   A    
O15   V3    S    
O14   V3    S    
C56   H32   S    
O5    C3    A    
O14   C50   A    
V2    O10   S    
O21   C53   S    
O18   V4    S    
O24   C56   S    
C22   C23   S    
C17   O21   S    
C40   C42   A    
O23   C55   S    
O8    V2    S    
C27   H11   S    
C39   C40   A    
C1    C34   S    
C41   C45   A    
C9    C10   A    
O1    V2    S    
O13   V3    S    
O7    V1    S    
C29   C32   S    
C11   C18   A    
C18   C51   S    
C15   I3    S    
C48   C49   S    
O9    C4    A    
C41   C48   A    
H15   C47   S    
O19   C52   A    
O22   C54   S    
C7    C18   A    
C21   C24   S    
C35   C47   A    
C11   C15   A    
C27   C30   S    
C54   H27   S    
O11   V4    S    
C38   C39   A    
C5    C13   A    
C4    C6    S    
C29   C50   S    
H1    C14   S    
C10   C11   A    
C56   H33   S    
O4    C2    A    
C49   O16   A    
C7    H4    S    
H16   C44   S    
C33   H14   S    
C31   I2    S    
O13   C52   A    
C3    C21   S    
C35   H17   S    
O2    C1    A    
C24   C25   S    
C20   C25   S    
C19   C20   S    
C2    C36   S    
C20   O24   S    
C53   H22   S    
C22   H8    S    
C28   C29   S    
V4    O20   S    
C55   H29   S    
C39   O23   S    
C29   C30   S    
V3    O20   S    
O19   V4    S    
O3    C4    A    
C35   C43   A    
C21   C22   S    
O12   C49   A    
C12   C16   A    
O6    V2    S    
C9    H5    S    
O9    V2    S    
C5    C17   A    
C23   C24   S    
C45   H21   S    
C19   C26   S    
C26   C52   S    
O12   V3    S    
C25   C26   S    
C37   C48   A    
C31   C32   S    
C27   C28   S    
C16   H3    S    
C53   H23   S    
O1    C2    A    
C38   H20   S    
C43   C44   A    
O5    V1    S    
C30   H12   S    
O17   V4    S    
C6    C17   A    
C28   C33   S    
C8    H6    S    
C54   H25   S    
C36   C46   A    
O16   V4    S    
O7    V2    S    
C42   C43   A    
C19   H7    S    
O3    V1    S    
V1    O10   S    
C56   H31   S    
C42   C46   A    
O17   V3    S    
O11   C50   A    
O15   C51   A    
O18   C51   A    
C5    H2    S    
C37   C38   A    
C55   H30   S    
C23   H9    S    
C19   C22   S    
C40   C41   A    
C46   H18   S    
C24   I1    S    
O4    V1    S    
C53   H24   S    
C28   H10   S    
C13   C14   A    
C8    C9    A    
C7    C8    A    
C23   C26   S    
O8    C3    A    
C31   C34   S    
O2    V1    S    
