data_mof_unit_10119.cif
_audit_creation_date              2012-12-10T19:09:38-0500
_audit_creation_method            fapswitch 2.2
_symmetry_space_group_name_H-M    P1
_symmetry_Int_Tables_number       1
_space_group_crystal_system       triclinic
_cell_length_a                    9.536721
_cell_length_b                    10.858334
_cell_length_c                    17.103712
_cell_angle_alpha                 89.30434
_cell_angle_beta                  94.043353
_cell_angle_gamma                 89.995658
_cell_volume                      1766.59962313

loop_
_atom_site_label
_atom_site_type_symbol
_atom_type_description
_atom_site_fract_x
_atom_site_fract_y
_atom_site_fract_z
_atom_type_partial_charge
C1    C     C_R   0.499772 0.262736 0.498495 0.820578
C2    C     C_R   0.497966 0.130227 0.495549 -0.117838
C3    C     C_R   0.370527 0.064737 0.498945 -0.171251
C4    C     C_R   0.517591 0.498021 0.650931 0.784481
C5    C     C_R   0.370443 0.935613 0.499822 -0.196626
C6    C     C_R   0.497951 0.870014 0.498133 -0.077578
C7    C     C_R   0.620296 0.937957 0.493716 0.054150
C8    C     C_3   0.775790 0.927451 0.492729 -0.506481
C9    C     C_3   0.776551 0.069482 0.488409 0.316034
C10   C     C_R   0.068557 0.588884 0.459626 0.248899
C11   C     C_R   0.080230 0.419491 0.545589 -0.053618
C12   C     C_R   0.658447 0.485818 0.779391 -0.224713
C13   C     C_R   0.931291 0.419608 0.545690 -0.010707
C14   C     C_R   0.921018 0.588959 0.459661 0.242322
C15   C     C_3   0.904292 0.613221 0.373540 -0.462982
C16   C     C_R   0.499803 0.737346 0.499778 0.808641
C17   C     C_3   0.063066 0.612488 0.373492 -0.494081
C18   C     C_R   0.482547 0.501088 0.349147 0.818261
C19   C     C_R   0.527393 0.495668 0.736906 -0.023484
C20   C     C_R   0.404608 0.502234 0.777239 -0.239541
C21   C     C_R   0.412452 0.499438 0.858630 -0.158647
C22   C     C_R   0.544113 0.489992 0.901425 0.387489
C23   C     C_R   0.581360 0.459873 0.142259 -0.153601
C24   C     C_R   0.666282 0.482634 0.861080 -0.195174
C25   C     C_R   0.587890 0.458734 0.223727 -0.214898
C26   C     C_R   0.459394 0.503043 0.099001 0.380677
C27   C     C_R   0.473428 0.500387 0.263335 -0.028815
C28   C     C_R   0.351759 0.542129 0.220304 -0.207186
C29   C     C_R   0.344891 0.542872 0.138719 -0.180420
C30   C     C_R   0.620279 0.062111 0.490591 0.072209
Cu1   Cu    Cu3+1 0.640670 0.499980 0.500000 0.980768
Cu2   Cu    Cu3+1 0.359330 0.500020 0.500000 0.957409
H1    H     H_    0.682091 0.424161 0.255665 0.179748
H2    H     H_    0.108071 0.703601 0.358770 0.202348
H3    H     H_    0.767983 0.474814 0.893188 0.140276
H4    H     H_    0.263107 0.576405 0.249467 0.151580
H5    H     H_    0.315356 0.504215 0.887659 0.152034
H6    H     H_    0.250538 0.576003 0.106176 0.142987
H7    H     H_    0.302071 0.509554 0.745997 0.159298
H8    H     H_    0.807617 0.880855 0.439308 0.235621
H9    H     H_    0.760084 0.106178 0.274508 0.370274
H10   H     H_    0.140667 0.352658 0.581223 0.128615
H11   H     H_    0.754748 0.480086 0.749634 0.155278
H12   H     H_    0.271131 0.887952 0.502722 0.170163
H13   H     H_    0.271338 0.112494 0.501861 0.187260
H14   H     H_    0.824644 0.889663 0.548884 0.157213
H15   H     H_    0.829184 0.113897 0.540826 0.046229
H16   H     H_    0.879864 0.352854 0.581368 0.116975
H17   H     H_    0.855066 0.535264 0.340414 0.233963
H18   H     H_    0.856963 0.704840 0.358996 0.198900
H19   H     H_    0.102503 0.533123 0.341074 0.225712
H20   H     H_    0.671336 0.426604 0.113526 0.156669
N1    N     N_2   0.558165 0.486479 0.984531 -0.263870
N2    N     N_2   0.446638 0.507129 0.015975 -0.265542
N3    N     N_R   0.147870 0.500930 0.499500 -0.184328
N4    N     N_R   0.851960 0.500890 0.499500 -0.170605
O1    O     O_R   0.618810 0.319640 0.500000 -0.553720
O2    O     O_2   0.980382 0.089023 0.388137 -0.301967
O3    O     O_3   0.727080 0.067492 0.322630 -0.529836
O4    O     O_R   0.381230 0.319680 0.499990 -0.584318
O5    O     O_R   0.631790 0.498830 0.613930 -0.597863
O6    O     O_R   0.394210 0.498870 0.613920 -0.592125
O7    O     O_R   0.618770 0.680320 0.500010 -0.582154
O8    O     O_R   0.381190 0.680360 0.500000 -0.592056
O9    O     O_R   0.605790 0.501130 0.386080 -0.566211
O10   O     O_R   0.368210 0.501170 0.386070 -0.582133
O11   O     O_2   0.820374 0.264745 0.393537 -0.291507
S1    S     S_3+6 0.830600 0.126734 0.396515 -0.007186

loop_
_geom_bond_atom_site_label_1
_geom_bond_atom_site_label_2
_ccdc_geom_bond_type
C29   H6    S    
C23   C26   A    
C13   H16   S    
C14   N4    A    
C6    C7    A    
C16   O7    A    
Cu1   O7    S    
O3    S1    S    
C25   C27   A    
C16   O8    A    
Cu1   O5    S    
Cu2   N3    S    
Cu1   Cu2   S    
C2    C30   A    
C13   N4    A    
Cu2   O8    S    
Cu1   O1    S    
C19   C20   A    
C15   H17   S    
C2    C3    A    
C9    S1    S    
Cu2   O6    S    
C7    C8    S    
C4    O5    A    
C7    C30   A    
C21   C22   A    
C18   O9    A    
C10   N3    A    
C11   C13   A    
C17   H19   S    
C23   H20   S    
C9    C30   S    
C26   C29   A    
C26   N2    S    
C12   C19   A    
O2    S1    D    
C28   C29   A    
C5    H12   S    
C9    H15   S    
C22   N1    S    
C8    H14   S    
C23   C25   A    
C5    C6    A    
Cu1   N4    S    
C22   C24   A    
C1    O4    A    
C24   H3    S    
C18   O10   A    
C17   H2    S    
Cu2   O4    S    
C10   C17   S    
C6    C16   S    
O11   S1    D    
C4    O6    A    
C11   N3    A    
C21   H5    S    
C20   C21   A    
C28   H4    S    
C11   H10   S    
Cu2   O10   S    
C1    C2    S    
C10   C14   A    
C15   H18   S    
C27   C28   A    
C15   C17   S    
C20   H7    S    
Cu1   O9    S    
C14   C15   S    
C8    H8    S    
N1    N2    D    
C4    C19   S    
C12   H11   S    
C3    H13   S    
C18   C27   S    
C12   C24   A    
H9    O3    S    
C25   H1    S    
C8    C9    S    
C3    C5    A    
C1    O1    A    
