data_mof_unit_39271.cif
_audit_creation_date              2013-03-05T16:07:57-0500
_audit_creation_method            fapswitch 2.2
_symmetry_space_group_name_H-M    P1
_symmetry_Int_Tables_number       1
_space_group_crystal_system       triclinic
_cell_length_a                    6.978482
_cell_length_b                    14.518019
_cell_length_c                    16.126797
_cell_angle_alpha                 90.081287
_cell_angle_beta                  90.505393
_cell_angle_gamma                 89.78313
_cell_volume                      1633.78919236

loop_
_atom_site_label
_atom_site_type_symbol
_atom_site_description
_atom_site_fract_x
_atom_site_fract_y
_atom_site_fract_z
_atom_type_partial_charge
O1    O     O_R   0.494380 0.415640 0.412830 -0.605499
O2    O     O_R   0.823960 0.405540 0.586560 -0.583225
O3    O     O_R   0.994270 0.584360 0.587170 -0.585239
C1    C     C_R   0.655640 0.382508 0.614406 1.011868
O4    O     O_R   0.824090 0.404620 0.413450 -0.572741
O5    O     O_R   0.994400 0.583430 0.412820 -0.623089
C2    C     C_R   0.654067 0.380970 0.385693 0.985256
O6    O     O_R   0.494250 0.416570 0.587180 -0.590982
O7    O     O_3   0.660800 0.558670 0.500000 -0.261479
V1    V     V_3+5 0.935650 0.489120 0.500000 1.269179
O8    O     O_R   0.324110 0.594460 0.413440 -0.581526
C3    C     C_R   0.153159 0.619773 0.387624 1.064008
O9    O     O_R   0.323980 0.595380 0.586550 -0.568213
C4    C     C_R   0.155506 0.618665 0.614139 1.017517
V2    V     V_3+5 0.435660 0.510880 0.500000 1.281888
O10   O     O_3   0.160640 0.441330 0.500000 -0.262541
C5    C     C_3   0.083814 0.639321 0.766586 -0.003474
H1    H     H_    0.210110 0.597767 0.785988 0.189779
C6    C     C_3   0.035972 0.711571 0.835965 0.102781
H2    H     H_    0.878100 0.719193 0.837823 0.219259
H3    H     H_    0.855651 0.737809 0.661645 0.165408
C7    C     C_3   0.000887 0.768669 0.664070 0.242840
C8    C     C_3   0.347057 0.733028 0.702389 0.060068
C9    C     C_3   0.145635 0.689068 0.684228 -0.466692
H4    H     H_    0.447573 0.675229 0.713587 0.187748
C10   C     C_3   0.123293 0.808405 0.811631 -0.519589
C11   C     C_3   0.000056 0.845088 0.734328 0.599771
C12   C     C_3   0.338655 0.793062 0.783023 0.013054
H5    H     H_    0.401447 0.861051 0.769048 0.197008
C13   C     C_R   0.257428 0.748018 0.188497 0.030143
C14   C     C_R   0.123453 0.820117 0.186831 -0.453751
C15   C     C_R   0.004955 0.831358 0.257206 0.571234
C16   C     C_R   0.000986 0.763842 0.320243 0.464207
C17   C     C_R   0.136840 0.689457 0.320246 -0.512999
C18   C     C_R   0.264052 0.684319 0.253803 0.201622
C19   C     C_3   0.477723 0.684266 0.259562 0.117631
C20   C     C_3   0.472288 0.756808 0.191361 0.349695
H6    H     H_    0.533500 0.707671 0.320984 0.140751
C21   C     C_R   0.485554 0.309854 0.733991 0.057282
C22   C     C_R   0.647140 0.315408 0.683700 -0.185565
C23   C     C_R   0.798288 0.254284 0.701037 -0.034508
H7    H     H_    0.920216 0.252519 0.661167 0.159477
C24   C     C_R   0.786154 0.189641 0.765718 0.002034
H8    H     H_    0.901112 0.140252 0.773703 0.152595
C25   C     C_R   0.622764 0.184931 0.816260 -0.265406
C26   C     C_R   0.475840 0.249120 0.801307 0.130403
C27   C     C_3   0.269265 0.229574 0.785031 0.156755
C28   C     C_3   0.284918 0.288752 0.707633 0.038294
H9    H     H_    0.236594 0.155750 0.774019 0.159138
H10   H     H_    0.190999 0.350796 0.705909 0.165601
C29   C     C_R   0.511607 0.322535 0.251117 0.048284
C30   C     C_R   0.641697 0.310778 0.317836 -0.390219
C31   C     C_R   0.770648 0.234307 0.313013 0.633017
C32   C     C_R   0.767444 0.175526 0.242945 -0.126677
H11   H     H_    0.867001 0.118304 0.241103 0.158297
C33   C     C_R   0.626071 0.183953 0.180443 -0.279715
C34   C     C_R   0.502904 0.259678 0.185356 0.070106
C35   C     C_3   0.290806 0.263424 0.176814 -0.500961
C36   C     C_3   0.295853 0.330911 0.249038 0.678525
H12   H     H_    0.221752 0.196577 0.191712 0.210516
H13   H     H_    0.245037 0.293976 0.116618 0.204916
O11   O     O_R   0.771490 0.080820 0.910070 -0.606382
O12   O     O_R   0.441590 0.092730 0.083780 -0.604301
O13   O     O_R   0.271350 0.913900 0.084390 -0.569077
C37   C     C_R   0.611158 0.115016 0.112414 1.044572
O14   O     O_R   0.441780 0.091820 0.910670 -0.615513
O15   O     O_R   0.271540 0.912980 0.910040 -0.575048
C38   C     C_R   0.610159 0.114194 0.882326 0.973857
O16   O     O_R   0.771300 0.081740 0.084420 -0.620341
O17   O     O_3   0.604960 0.938700 0.997240 -0.178191
V3    V     V_3+5 0.330090 0.008230 0.997220 1.264287
O18   O     O_R   0.941820 0.901930 0.910640 -0.528359
C39   C     C_R   0.111152 0.878399 0.882881 1.166653
O19   O     O_R   0.941630 0.902840 0.083750 -0.537339
C40   C     C_R   0.111496 0.883385 0.114296 1.068998
V4    V     V_3+5 0.830090 0.986410 0.997190 1.323789
O20   O     O_3   0.105080 0.055990 0.997200 -0.337290
N1    N     N_R   0.926348 0.573353 0.755613 0.264064
O21   O     O_R   0.755608 0.600344 0.733887 -0.403743
O22   O     O_R   0.955519 0.486418 0.770907 -0.349768
O23   O     O_3   0.037877 0.807079 0.585858 -0.614584
H14   H     H_    0.980308 0.765724 0.543760 0.332454
N2    N     N_R   0.067806 0.935263 0.702639 0.274530
O24   O     O_R   0.976847 0.974421 0.641165 -0.250464
O25   O     O_R   0.190119 0.985148 0.743970 -0.451876
O26   O     O_3   0.903418 0.911572 0.271292 -0.611340
H15   H     H_    0.951100 0.960711 0.234527 0.295073
O27   O     O_3   0.873846 0.780233 0.383825 -0.651952
H16   H     H_    0.860814 0.725435 0.418847 0.317978
O28   O     O_3   0.553289 0.599338 0.234132 -0.634866
H17   H     H_    0.691773 0.601041 0.248516 0.350758
N3    N     N_R   0.566449 0.728253 0.114471 0.288722
O29   O     O_R   0.751185 0.716376 0.113528 -0.316396
O30   O     O_R   0.467558 0.714306 0.046881 -0.244378
N4    N     N_R   0.533067 0.848283 0.220047 0.212615
O31   O     O_R   0.485704 0.877779 0.293417 -0.343865
O32   O     O_R   0.602844 0.906712 0.167588 -0.355640
O33   O     O_3   0.153575 0.271305 0.845063 -0.691202
H18   H     H_    0.149117 0.227576 0.892221 0.339298
N5    N     N_R   0.280188 0.233888 0.630870 0.225696
O34   O     O_R   0.371977 0.155809 0.625780 -0.309416
O35   O     O_R   0.194576 0.266061 0.565074 -0.356804
O36   O     O_3   0.891243 0.209519 0.377573 -0.644532
H19   H     H_    0.844685 0.237574 0.429618 0.328089
O37   O     O_3   0.208164 0.294156 0.319593 -0.693860
H20   H     H_    0.203229 0.343330 0.362007 0.364848
N6    N     N_R   0.092855 0.679042 0.919374 0.285212
O38   O     O_R   0.044871 0.727105 0.984039 -0.337868
O39   O     O_R   0.145092 0.593841 0.931340 -0.233071
N7    N     N_R   0.224872 0.422858 0.225922 0.221227
O40   O     O_R   0.302644 0.467259 0.164838 -0.296896
O41   O     O_R   0.066291 0.454295 0.257198 -0.400994
O42   O     O_3   0.809355 0.857833 0.760140 -0.767906
H21   H     H_    0.732484 0.879450 0.711863 0.357771
N8    N     N_R   0.423654 0.784264 0.630815 0.260926
O43   O     O_R   0.545176 0.744405 0.581528 -0.366874
O44   O     O_R   0.390770 0.871821 0.620731 -0.259572
N9    N     N_R   0.460147 0.753229 0.849466 0.262678
O45   O     O_R   0.582552 0.805369 0.887969 -0.287976
O46   O     O_R   0.472278 0.664831 0.861450 -0.310274

loop_
_geom_bond_atom_site_label_1
_geom_bond_atom_site_label_2
_geom_bond_distance
_ccdc_geom_bond_type
O14   C38   1.306880 A    
O12   C37   1.308063 A    
C23   C24   1.407455 A    
C23   H7    1.071216 S    
C32   H11   1.081494 S    
N4    O31   1.302709 A    
O18   V4    2.016803 S    
C36   N7    1.469494 S    
O23   H14   0.989262 S    
C34   C35   1.486108 S    
V1    O10   1.714149 S    
C27   H9    1.110326 S    
C31   C32   1.415125 A    
C10   C11   1.599014 S    
C36   O37   1.403686 S    
C27   O33   1.401626 S    
O19   V4    2.001257 S    
C13   C18   1.402893 A    
N2    O24   1.302571 A    
C12   H5    1.105777 S    
C16   O27   1.381667 S    
C2    C30   1.496421 S    
O5    C3    1.297654 A    
C13   C14   1.400971 A    
N1    O22   1.301254 A    
C35   H12   1.112662 S    
C33   C37   1.487192 S    
C10   C39   1.535526 S    
C33   C34   1.395523 A    
C20   N4    1.468555 S    
O16   V4    2.015702 S    
C17   C18   1.399227 A    
O13   V3    2.009874 S    
C4    C9    1.524670 S    
C6    C10   1.585557 S    
N9    O45   1.297091 A    
C5    N1    1.469738 S    
N7    O40   1.301681 A    
O8    V2    2.001373 S    
C27   C28   1.521258 S    
N8    O44   1.301020 A    
C8    C9    1.570947 S    
O17   V3    2.164184 S    
O1    V2    2.014032 S    
O7    V1    2.164198 S    
C1    O6    1.301323 A    
C35   H13   1.111671 S    
C28   H10   1.112192 S    
O9    C4    1.303949 A    
N6    O39   1.302383 A    
O11   V4    2.002728 S    
N5    O35   1.299660 A    
C5    H1    1.109187 S    
N7    O41   1.301059 A    
C28   N5    1.471293 S    
C32   C33   1.409313 A    
C5    C9    1.576999 S    
O19   C40   1.309652 A    
C29   C30   1.411775 A    
C7    O23   1.406178 S    
C1    C22   1.485262 S    
V4    O20   2.172028 S    
C21   C22   1.397430 A    
O4    C2    1.311233 A    
O26   H15   0.988764 S    
C35   C36   1.521227 S    
C25   C26   1.402461 A    
C13   C20   1.505596 S    
C18   C19   1.493174 S    
O2    C1    1.306102 A    
C24   H8    1.080916 S    
C14   C40   1.489879 S    
O14   V3    2.014841 S    
N6    O38   1.299568 A    
C15   O26   1.380472 S    
C25   C38   1.484244 S    
N3    O30   1.300984 A    
C16   C17   1.434333 A    
C8    C12   1.565813 S    
C24   C25   1.409343 A    
O3    C4    1.303165 A    
C21   C26   1.401804 A    
C29   C34   1.399164 A    
O15   C39   1.300621 A    
C11   O42   1.409339 S    
C22   C23   1.402371 A    
N2    O25   1.300234 A    
O12   V3    2.010535 S    
O6    V2    2.002399 S    
C7    C11   1.584681 S    
O9    V2    2.016840 S    
O17   V4    1.719384 S    
C7    C9    1.564605 S    
C29   C36   1.510159 S    
C3    C17   1.489025 S    
O2    V1    2.014865 S    
V3    O20   1.714101 S    
C30   C31   1.428926 A    
O42   H21   0.992209 S    
C19   O28   1.401421 S    
C26   C27   1.491238 S    
C19   C20   1.523994 S    
C20   N3    1.466991 S    
O1    C2    1.300167 A    
C14   C15   1.418991 A    
O18   C39   1.311230 A    
O5    V1    2.009806 S    
O8    C3    1.311462 A    
N4    O32   1.297999 A    
O37   H20   0.988727 S    
C10   C12   1.590778 S    
O11   C38   1.300026 A    
C15   C16   1.413686 A    
C6    H2    1.107498 S    
C11   N2    1.486431 S    
O7    V2    1.719912 S    
O4    V1    2.010584 S    
O3    V1    2.010974 S    
C12   N9    1.477632 S    
N1    O21   1.298268 A    
O28   H17   0.992258 S    
C31   O36   1.380232 S    
C37   O16   1.300119 A    
C19   H6    1.114163 S    
N3    O29   1.300222 A    
C5    C6    1.569771 S    
O13   C40   1.298895 A    
O15   V3    2.011089 S    
C8    H4    1.105675 S    
N9    O46   1.300427 A    
C8    N8    1.479077 S    
O27   H16   0.981274 S    
O33   H18   0.992124 S    
O36   H19   0.989323 S    
N5    O34   1.302739 A    
N8    O43   1.301030 A    
H3    C7    1.110040 S    
V2    O10   2.172012 S    
C21   C28   1.492407 S    
C6    N6    1.476784 S    
