data_mof_unit_27177.cif
_audit_creation_date              2012-12-11T16:05:00-0500
_audit_creation_method            fapswitch 2.2
_symmetry_space_group_name_H-M    P1
_symmetry_Int_Tables_number       1
_space_group_crystal_system       triclinic
_cell_length_a                    10.587395
_cell_length_b                    10.676126
_cell_length_c                    16.864548
_cell_angle_alpha                 98.694666
_cell_angle_beta                  98.535616
_cell_angle_gamma                 61.285942
_cell_volume                      1646.28519152

loop_
_atom_site_label
_atom_site_type_symbol
_atom_type_description
_atom_site_fract_x
_atom_site_fract_y
_atom_site_fract_z
_atom_type_partial_charge
C1    C     C_R   0.383741 0.705325 0.386410 0.564662
C2    C     C_3   0.788678 0.264300 0.251647 -0.155218
C3    C     C_3   0.839264 0.337884 0.325588 0.060860
C4    C     C_3   0.994645 0.250950 0.305021 0.218923
C5    C     C_3   0.975755 0.369863 0.256024 -0.078042
C6    C     C_3   0.816840 0.458051 0.275994 -0.135345
C7    C     C_3   0.767095 0.383791 0.201724 -0.129377
C8    C     C_3   0.924778 0.296360 0.182631 0.018008
C9    C     C_3   0.489692 0.723304 0.203599 -0.142494
C10   C     C_3   0.420766 0.638039 0.230365 -0.152082
C11   C     C_3   0.376067 0.743825 0.305808 0.051788
C12   C     C_R   0.370105 0.346640 0.358803 0.576038
C13   C     C_3   0.446533 0.827110 0.281114 -0.095022
C14   C     C_3   0.300267 0.924310 0.237484 -0.095359
C15   C     C_3   0.230552 0.840481 0.262807 -0.104690
C16   C     C_3   0.273977 0.735605 0.186608 -0.117095
C17   C     C_3   0.342970 0.819744 0.161532 0.046242
C18   C     C_3   0.431030 0.238087 0.765063 0.262491
C19   C     C_3   0.366913 0.384737 0.733517 -0.103890
C20   C     C_3   0.320855 0.319639 0.654024 0.015093
C21   C     C_3   0.387679 0.171680 0.686203 -0.097156
C22   C     C_3   0.240050 0.215242 0.717503 -0.176254
C23   C     C_R   0.780036 0.375188 0.402844 0.553276
C24   C     C_3   0.173296 0.363777 0.683266 -0.140102
C25   C     C_3   0.219812 0.427428 0.764264 -0.132514
C26   C     C_3   0.287416 0.279536 0.796881 0.070315
C27   C     C_1   0.817646 0.341881 0.709542 -0.048133
C28   C     C_1   0.843737 0.314954 0.778124 -0.045413
C29   C     C_1   0.358417 0.763915 0.714465 -0.047212
C30   C     C_1   0.327415 0.810616 0.782216 -0.041631
C31   C     C_R   0.963312 0.282614 0.101944 0.558045
C32   C     C_R   0.320065 0.300477 0.119935 0.544729
C33   C     C_R   0.299280 0.882728 0.085254 0.536090
C34   C     C_R   0.380023 0.714840 0.631634 0.556728
C35   C     C_R   0.884438 0.299641 0.861047 0.561609
C36   C     C_R   0.277220 0.252058 0.877159 0.569949
C37   C     C_R   0.283044 0.879722 0.859847 0.539213
C38   C     C_R   0.363207 0.343135 0.582165 0.559875
C39   C     C_R   0.774408 0.379509 0.629486 0.538474
C40   C     C_1   0.344588 0.336815 0.274955 -0.052862
C41   C     C_1   0.332987 0.327352 0.203622 -0.070121
C42   C     C_3   0.947605 0.174747 0.230668 -0.134651
Cr1   Cr    Cr6+3 0.608340 0.611040 0.520430 1.025464
Cr2   Cr    Cr6+3 0.287650 0.601120 0.489350 1.027117
Cr3   Cr    Cr6+3 0.604040 0.287870 0.490280 1.019132
Cr4   Cr    Cr6+3 0.054020 0.052700 0.970850 1.041523
Cr5   Cr    Cr6+3 0.059230 0.375120 0.993390 1.018159
Cr6   Cr    Cr6+3 0.374950 0.061200 0.992340 1.047793
H1    H     H_    0.710916 0.222275 0.251499 0.137667
H2    H     H_    0.255006 0.041947 0.237365 0.150455
H3    H     H_    0.125287 0.885848 0.288805 0.128852
H4    H     H_    0.203678 0.697687 0.146473 0.135360
H5    H     H_    0.421172 0.452980 0.739380 0.103780
H6    H     H_    0.457193 0.067245 0.653626 0.145522
H7    H     H_    0.187262 0.145943 0.712954 0.118522
H8    H     H_    0.067727 0.415471 0.647156 0.151201
H9    H     H_    0.151274 0.531683 0.797312 0.146521
H10   H     H_    0.995478 0.061685 0.205141 0.123999
H11   H     H_    0.051712 0.413722 0.256295 0.122703
H12   H     H_    0.763499 0.574500 0.295765 0.131505
H13   H     H_    0.677338 0.432517 0.154700 0.138360
H14   H     H_    0.468614 0.520128 0.230450 0.102157
H15   H     H_    0.592902 0.681684 0.176067 0.122740
H16   H     H_    0.516971 0.864487 0.321508 0.139620
O1    O     O_R   0.751220 0.499230 0.435170 -0.522843
O2    O     O_R   0.297880 0.469080 0.560050 -0.507935
O3    O     O_R   0.489720 0.254590 0.564810 -0.515201
O4    O     O_R   0.725220 0.304230 0.585080 -0.495108
O5    O     O_3   0.500010 0.500010 0.500020 -0.300388
O6    O     O_R   0.171830 0.913880 0.057510 -0.528894
O7    O     O_R   0.940690 0.186050 0.054730 -0.484591
O8    O     O_R   0.920470 0.405720 0.075010 -0.512244
O9    O     O_R   0.196690 0.370460 0.084120 -0.515727
O10   O     O_R   0.412990 0.180750 0.091610 -0.499409
O11   O     O_R   0.366620 0.943130 0.065760 -0.503218
O12   O     O_R   0.477220 0.727600 0.436870 -0.492656
O13   O     O_R   0.160510 0.906330 0.879210 -0.503856
O14   O     O_R   0.930190 0.179050 0.889450 -0.477622
O15   O     O_R   0.909140 0.398170 0.896710 -0.510691
O16   O     O_R   0.186190 0.363460 0.918830 -0.508617
O17   O     O_R   0.401670 0.173200 0.913310 -0.437989
O18   O     O_R   0.356120 0.936130 0.900470 -0.508410
O19   O     O_3   0.162740 0.163010 0.985530 -0.310889
O20   O     O_R   0.258650 0.745120 0.411470 -0.515243
O21   O     O_R   0.297070 0.467240 0.395960 -0.512407
O22   O     O_R   0.488830 0.252610 0.387790 -0.506727
O23   O     O_R   0.724400 0.302390 0.420980 -0.511448
O24   O     O_R   0.752100 0.501210 0.612190 -0.514664
O25   O     O_R   0.478040 0.729440 0.600970 -0.482513
O26   O     O_R   0.259530 0.747110 0.588490 -0.495785
O27   O     O_3   0.566938 0.173302 0.807943 -0.655378
H17   H     H_    0.636872 0.162787 0.771083 0.321659
O28   O     O_3   0.111358 0.184602 0.361676 -0.706494
H18   H     H_    0.092647 0.114675 0.383703 0.329389

loop_
_geom_bond_atom_site_label_1
_geom_bond_atom_site_label_2
_ccdc_geom_bond_type
O28   H18   S    
C18   C21   S    
C39   O4    A    
Cr2   O2    S    
C19   C20   S    
C1    C11   S    
Cr5   O15   S    
C3    C6    S    
C42   H10   S    
C7    C8    S    
C14   H2    S    
C1    O20   A    
Cr1   O25   S    
C25   H9    S    
C12   O21   A    
Cr1   O24   S    
Cr5   O16   S    
Cr3   O23   S    
C8    C42   S    
C32   O10   A    
C5    C6    S    
C15   C16   S    
Cr6   O17   S    
C18   C19   S    
C9    C13   S    
C7    H13   S    
C2    C7    S    
C3    C23   S    
C33   O11   A    
C38   O2    A    
C28   C35   S    
C27   C39   S    
C16   C17   S    
C18   C26   S    
Cr3   O3    S    
C32   C41   S    
C15   H3    S    
C9    C10   S    
C19   H5    S    
C11   C15   S    
C31   O7    A    
Cr1   O5    S    
C23   O23   A    
C21   C22   S    
C8    C31   S    
Cr6   O11   S    
C10   H14   S    
C17   C33   S    
C39   O24   A    
C5    H11   S    
Cr3   O5    S    
Cr6   O10   S    
C24   C25   S    
Cr5   O9    S    
C36   O16   A    
C32   O9    A    
Cr4   O14   S    
C25   C26   S    
C37   O13   A    
C29   C34   S    
Cr4   O19   S    
C30   C37   S    
C12   C40   S    
C34   O26   A    
C29   C30   T    
C2    H1    S    
C6    H12   S    
C5    C8    S    
C20   C38   S    
C36   O17   A    
Cr1   O1    S    
Cr3   O4    S    
Cr2   O5    S    
C20   C21   S    
Cr4   O7    S    
C6    C7    S    
C33   O6    A    
C9    C17   S    
C31   O8    A    
Cr5   O19   S    
C22   C24   S    
C37   O18   A    
C18   O27   S    
Cr2   O21   S    
O27   H17   S    
Cr2   O26   S    
C26   C36   S    
Cr1   O12   S    
C40   C41   T    
C9    H15   S    
C1    O12   A    
C16   H4    S    
C4    C5    S    
Cr2   O20   S    
Cr4   O13   S    
C22   H7    S    
C24   H8    S    
C35   O14   A    
Cr6   O19   S    
C12   O22   A    
C23   O1    A    
C2    C3    S    
C34   O25   A    
C10   C16   S    
C11   C13   S    
C21   H6    S    
C13   H16   S    
C4    C42   S    
C2    C42   S    
C35   O15   A    
Cr6   O18   S    
Cr3   O22   S    
C19   C25   S    
Cr5   O8    S    
Cr4   O6    S    
C10   C11   S    
C4    O28   S    
C38   O3    A    
C22   C26   S    
C27   C28   T    
C14   C15   S    
C13   C14   S    
C20   C24   S    
C3    C4    S    
C14   C17   S    
