data_mof_unit_41791.cif
_audit_creation_date              2012-12-10T17:22:08-0500
_audit_creation_method            fapswitch 2.2
_symmetry_space_group_name_H-M    P1
_symmetry_Int_Tables_number       1
_space_group_crystal_system       triclinic
_cell_length_a                    15.87578
_cell_length_b                    10.781146
_cell_length_c                    9.61425
_cell_angle_alpha                 90.08888
_cell_angle_beta                  90.03043
_cell_angle_gamma                 92.741033
_cell_volume                      1643.6813969

loop_
_atom_site_label
_atom_site_type_symbol
_atom_type_description
_atom_site_fract_x
_atom_site_fract_y
_atom_site_fract_z
_atom_type_partial_charge
C1    C     C_R   0.496036 0.262542 0.499911 0.891908
C2    C     C_3   0.948010 0.402120 0.600737 -0.498638
C3    C     C_3   0.917319 0.502358 0.499612 0.221439
C4    C     C_3   0.955559 0.630573 0.547118 -0.349653
C5    C     C_3   0.053207 0.630567 0.546768 -0.384382
C6    C     C_1   0.825054 0.502026 0.500013 -0.045386
C7    C     C_1   0.175105 0.501867 0.500051 -0.077777
C8    C     C_1   0.250673 0.501278 0.500015 -0.142232
C9    C     C_R   0.352773 0.115733 0.628206 0.558969
C10   C     C_R   0.288891 0.043648 0.692841 -0.190022
C11   C     C_R   0.291804 0.915183 0.695428 -0.243371
C12   C     C_R   0.340362 0.500453 0.500006 0.891674
C13   C     C_R   0.358478 0.857390 0.632702 -0.178104
C14   C     C_R   0.424907 0.927933 0.568166 0.038272
C15   C     C_R   0.422831 0.059289 0.566716 -0.019763
C16   C     C_R   0.489485 0.128221 0.499244 -0.097124
C17   C     C_R   0.552735 0.068273 0.428598 -0.212968
C18   C     C_R   0.553744 0.940443 0.428662 -0.197367
C19   C     C_R   0.491874 0.870413 0.500320 -0.045521
C20   C     C_R   0.611922 0.665794 0.144153 -0.125832
C21   C     C_R   0.666391 0.747157 0.072204 -0.182774
C22   C     C_R   0.666360 0.747202 0.928863 -0.198783
C23   C     C_R   0.498135 0.737119 0.500097 0.742862
C24   C     C_R   0.611839 0.665910 0.856524 -0.134008
C25   C     C_R   0.554899 0.581601 0.925422 0.203631
C26   C     C_R   0.554916 0.581540 0.074902 0.208623
C27   C     C_R   0.447755 0.422348 0.073655 -0.062859
C28   C     C_R   0.447772 0.422377 0.925882 -0.052915
C29   C     C_R   0.659671 0.500505 0.499991 0.787923
C30   C     C_3   0.045622 0.401921 0.600758 -0.377402
C31   C     C_3   0.048158 0.474275 0.351879 -0.408618
C32   C     C_3   0.950410 0.473623 0.351614 0.487518
C33   C     C_1   0.749432 0.501386 0.500081 -0.154596
C34   C     C_3   0.082915 0.502177 0.499900 0.243011
Cu1   Cu    Cu3+1 0.499990 0.499990 0.640660 0.965442
Cu2   Cu    Cu3+1 0.500010 0.500010 0.359340 0.949812
H1    H     H_    0.921489 0.308793 0.569343 0.165742
H2    H     H_    0.925256 0.420429 0.707989 0.204614
H3    H     H_    0.934390 0.704941 0.476920 0.202713
H4    H     H_    0.602798 0.121128 0.375422 0.147250
H5    H     H_    0.235842 0.087786 0.739194 0.157044
H6    H     H_    0.241341 0.859849 0.744103 0.160867
H7    H     H_    0.604271 0.895870 0.375175 0.130601
H8    H     H_    0.404902 0.358608 0.128527 0.144937
H9    H     H_    0.065921 0.308587 0.569099 0.175534
H10   H     H_    0.617539 0.673146 0.253807 0.190901
H11   H     H_    0.709107 0.810532 0.128429 0.152052
H12   H     H_    0.709073 0.810592 0.872956 0.149322
H13   H     H_    0.617346 0.673312 0.746867 0.195437
H14   H     H_    0.404934 0.358637 0.870708 0.179724
H15   H     H_    0.074249 0.545227 0.277538 0.202688
H16   H     H_    0.068805 0.382412 0.315715 0.127538
H17   H     H_    0.924743 0.380552 0.317651 0.069841
H18   H     H_    0.077545 0.653049 0.652909 0.169029
H19   H     H_    0.078916 0.704292 0.475474 0.175363
H20   H     H_    0.933079 0.652305 0.653663 0.163329
N1    N     N_R   0.500800 0.501210 0.147910 -0.199295
N2    N     N_R   0.500820 0.501290 0.852040 -0.201860
O1    O     O_R   0.499990 0.319640 0.618810 -0.539486
O2    O     O_R   0.500000 0.319660 0.381240 -0.585663
O3    O     O_R   0.379430 0.499990 0.618840 -0.544810
O4    O     O_R   0.379440 0.500020 0.381260 -0.582142
O5    O     O_R   0.500000 0.680340 0.618760 -0.608251
O6    O     O_R   0.500010 0.680360 0.381190 -0.596014
O7    O     O_R   0.620560 0.499980 0.618740 -0.597034
O8    O     O_R   0.620570 0.500010 0.381160 -0.587648
H21   H     H_    0.069661 0.419995 0.708033 0.187273
F1    F     F_    0.342578 0.239487 0.621576 -0.706886
H22   H     H_    0.356278 0.757126 0.633374 0.158419
F2    F     F_    0.923438 0.560275 0.256968 -0.672119

loop_
_geom_bond_atom_site_label_1
_geom_bond_atom_site_label_2
_ccdc_geom_bond_type
C19   C23   S    
C24   C25   A    
C6    C33   T    
C29   O7    A    
C28   N2    A    
C29   O8    A    
C12   O4    A    
C9    C10   A    
C2    H2    S    
C30   H9    S    
C22   H12   S    
Cu1   Cu2   S    
C4    H3    S    
C2    C30   S    
C31   H16   S    
C8    C12   S    
C3    C6    S    
C5    C34   S    
C13   H22   S    
C23   O5    A    
C17   C18   A    
C9    C15   A    
C9    F1    S    
C7    C8    T    
Cu1   O3    S    
C1    C16   S    
Cu2   O6    S    
C21   C22   A    
C4    H20   S    
C10   H5    S    
C12   O3    A    
C11   C13   A    
C2    H1    S    
C16   C17   A    
C30   H21   S    
C20   C26   A    
Cu1   N2    S    
Cu2   O4    S    
C14   C19   A    
C23   O6    A    
C7    C34   S    
Cu1   O5    S    
C2    C3    S    
Cu2   O8    S    
C1    O1    A    
C27   N1    A    
C3    C32   S    
C26   N1    A    
C22   C24   A    
C31   C34   S    
C25   N2    A    
C30   C34   S    
C15   C16   A    
C29   C33   S    
C5    H18   S    
C24   H13   S    
C20   C21   A    
C11   H6    S    
Cu1   O1    S    
Cu2   N1    S    
C10   C11   A    
C1    O2    A    
C27   C28   A    
C21   H11   S    
Cu1   O7    S    
C14   C15   A    
C18   C19   A    
C32   F2    S    
C13   C14   A    
C32   H17   S    
C25   C26   A    
C18   H7    S    
C28   H14   S    
C27   H8    S    
C5    H19   S    
C31   C32   S    
C20   H10   S    
C3    C4    S    
C31   H15   S    
C4    C5    S    
Cu2   O2    S    
C17   H4    S    
