data_mof_unit_21845.cif
_audit_creation_date              2012-12-10T18:43:06-0500
_audit_creation_method            fapswitch 2.2
_symmetry_space_group_name_H-M    P1
_symmetry_Int_Tables_number       1
_space_group_crystal_system       triclinic
_cell_length_a                    10.702425
_cell_length_b                    9.925991
_cell_length_c                    10.5814
_cell_angle_alpha                 92.154037
_cell_angle_beta                  91.66178
_cell_angle_gamma                 91.222051
_cell_volume                      1122.53561523

loop_
_atom_site_label
_atom_site_type_symbol
_atom_type_description
_atom_site_fract_x
_atom_site_fract_y
_atom_site_fract_z
_atom_type_partial_charge
C1    C     C_R   0.259530 0.498248 0.509596 0.872345
C2    C     C_R   0.738318 0.500656 0.482678 0.921125
C3    C     C_R   0.499908 0.496980 0.262495 0.937883
C4    C     C_R   0.494356 0.502854 0.737492 0.952873
C5    C     C_2   0.385773 0.446741 0.928481 0.135761
C6    C     C_2   0.380846 0.470290 0.065950 0.155032
C7    C     C_2   0.475664 0.514595 0.869674 -0.341797
C8    C     C_2   0.491369 0.485649 0.129350 -0.285484
C9    C     C_R   0.056745 0.370536 0.484400 -0.147958
C10   C     C_R   0.931176 0.377013 0.446047 -0.131010
C11   C     C_R   0.871158 0.501707 0.458191 -0.168230
C12   C     C_R   0.123888 0.493274 0.516099 -0.173121
C13   C     C_R   0.940397 0.623076 0.477548 0.153803
C14   C     C_R   0.061471 0.616938 0.526724 0.195643
C15   C     C_R   0.554153 0.076662 0.598848 -0.030053
C16   C     C_R   0.449650 0.066778 0.399381 -0.059209
C17   C     C_R   0.553242 0.933014 0.599178 -0.055488
C18   C     C_R   0.446219 0.923305 0.401046 -0.043070
H1    H     H_    0.530110 0.594935 0.919304 0.143204
H2    H     H_    0.579704 0.469692 0.083495 0.124654
N1    N     N_R   0.500000 0.857200 0.500000 -0.161781
N2    N     N_R   0.500000 0.142810 0.500000 -0.159244
O1    O     O_R   0.316770 0.614620 0.499990 -0.592599
O2    O     O_R   0.683230 0.614620 0.500010 -0.590821
O3    O     O_R   0.316800 0.385290 0.500000 -0.589035
O4    O     O_R   0.683200 0.385290 0.500000 -0.586658
O5    O     O_R   0.500000 0.614630 0.319080 -0.615199
O6    O     O_R   0.500000 0.614630 0.680920 -0.610809
O7    O     O_R   0.500030 0.385300 0.319080 -0.596793
O8    O     O_R   0.499970 0.385300 0.680920 -0.607742
Zn1   Zn    Zn3+2 0.500000 0.653120 0.500000 1.001461
Zn2   Zn    Zn3+2 0.500000 0.346880 0.500000 1.026792
C19   C     C_3   0.291941 0.353446 0.858272 -0.704152
H3    H     H_    0.223392 0.309464 0.922369 0.237253
H4    H     H_    0.239844 0.410106 0.786028 0.229730
H5    H     H_    0.340305 0.268088 0.811904 0.287249
C20   C     C_3   0.255662 0.480917 0.128626 -0.766610
H6    H     H_    0.195304 0.549772 0.075057 0.237134
H7    H     H_    0.208879 0.380264 0.129654 0.260314
H8    H     H_    0.263895 0.521649 0.227550 0.248261
C21   C     C_2   0.112464 0.235494 0.501080 1.057980
O9    O     O_2   0.105417 0.149176 0.415502 -0.585214
O10   O     O_R   0.170358 0.206452 0.616615 -0.805438
H9    H     H_    0.204942 0.112122 0.616658 0.337802
C22   C     C_2   0.862109 0.256076 0.388965 1.026329
O11   O     O_2   0.857797 0.150385 0.444700 -0.586134
O12   O     O_R   0.795916 0.267062 0.274064 -0.805974
H10   H     H_    0.749340 0.180463 0.246262 0.362926
C23   C     C_3   0.891031 0.757799 0.438042 -0.701558
H11   H     H_    0.813490 0.745060 0.366335 0.235873
H12   H     H_    0.860186 0.818074 0.521124 0.282158
H13   H     H_    0.965569 0.815863 0.391641 0.256261
C24   C     C_3   0.118155 0.740266 0.598016 -0.769688
H14   H     H_    0.192020 0.712198 0.667436 0.232042
H15   H     H_    0.156665 0.812907 0.531323 0.277625
H16   H     H_    0.046094 0.791377 0.654760 0.242195
C25   C     C_2   0.621753 0.153332 0.702636 0.979692
O13   O     O_2   0.722704 0.207466 0.683858 -0.582240
O14   O     O_R   0.571981 0.159686 0.823356 -0.775944
H17   H     H_    0.626871 0.214587 0.886747 0.350552
C26   C     C_2   0.403223 0.133098 0.285458 0.983239
O15   O     O_2   0.310354 0.201915 0.289727 -0.596475
O16   O     O_R   0.466378 0.116641 0.172300 -0.758795
H18   H     H_    0.425818 0.166432 0.100507 0.359494
C27   C     C_2   0.609694 0.865932 0.708213 0.966851
O17   O     O_2   0.705719 0.803114 0.696364 -0.624267
O18   O     O_R   0.554067 0.877344 0.825912 -0.755769
H19   H     H_    0.603051 0.830763 0.894408 0.351022
C28   C     C_2   0.378214 0.846789 0.297449 0.984360
O19   O     O_2   0.275538 0.796344 0.315574 -0.634955
O20   O     O_R   0.429625 0.836507 0.177588 -0.755292
H20   H     H_    0.373493 0.783526 0.113908 0.347692

loop_
_geom_bond_atom_site_label_1
_geom_bond_atom_site_label_2
_ccdc_geom_bond_type
O8    Zn2   S    
O10   H9    S    
O4    Zn2   S    
C20   H6    S    
C20   H8    S    
C18   N1    A    
C11   C13   A    
C21   O9    D    
C21   O10   S    
C9    C21   S    
O12   H10   S    
C23   H13   S    
N1    Zn1   S    
C10   C22   S    
C3    O5    A    
C19   H3    S    
C6    C20   S    
C15   N2    A    
O20   H20   S    
C2    O4    A    
C26   O16   S    
C13   C14   A    
C24   H16   S    
C1    O3    A    
C15   C25   S    
C3    O7    A    
C25   O13   D    
C8    H2    S    
C1    C12   S    
N2    Zn2   S    
C15   C17   A    
O3    Zn2   S    
C4    C7    S    
C13   C23   S    
C5    C6    S    
C6    C8    D    
C9    C10   A    
C16   C18   A    
C19   H4    S    
C12   C14   A    
C27   O17   D    
O7    Zn2   S    
C7    H1    S    
C28   O19   D    
C24   H15   S    
C3    C8    S    
C2    O2    A    
C26   O15   D    
C9    C12   A    
C4    O8    A    
C25   O14   S    
C28   O20   S    
C16   C26   S    
C2    C11   S    
O5    Zn1   S    
O18   H19   S    
O14   H17   S    
C14   C24   S    
C20   H7    S    
C23   H11   S    
C10   C11   A    
C22   O12   S    
C5    C7    D    
C23   H12   S    
C19   H5    S    
C4    O6    A    
C16   N2    A    
C1    O1    A    
O2    Zn1   S    
C22   O11   D    
C18   C28   S    
C17   C27   S    
O6    Zn1   S    
C17   N1    A    
O16   H18   S    
C24   H14   S    
O1    Zn1   S    
C27   O18   S    
C5    C19   S    
