data_mof_unit_48689.cif
_audit_creation_date              2013-03-05T15:50:43-0500
_audit_creation_method            fapswitch 2.2
_symmetry_space_group_name_H-M    P1
_symmetry_Int_Tables_number       1
_space_group_crystal_system       triclinic
_cell_length_a                    10.778952
_cell_length_b                    12.053322
_cell_length_c                    12.859017
_cell_angle_alpha                 92.329583
_cell_angle_beta                  91.284457
_cell_angle_gamma                 85.288219
_cell_volume                      1663.34410965

loop_
_atom_site_label
_atom_site_type_symbol
_atom_site_description
_atom_site_fract_x
_atom_site_fract_y
_atom_site_fract_z
_atom_type_partial_charge
O1    O     O_R   0.506240 0.421700 0.658830 -0.594306
O2    O     O_R   0.491240 0.609310 0.646410 -0.631543
C1    C     C_R   0.496876 0.521381 0.700155 0.935302
O3    O     O_R   0.692710 0.406190 0.506230 -0.614906
O4    O     O_R   0.677700 0.593810 0.493810 -0.554551
C2    C     C_R   0.741765 0.501239 0.507488 1.037716
Zn1   Zn    Zn3+2 0.510020 0.374730 0.508290 1.026784
Zn2   Zn    Zn3+2 0.489980 0.625270 0.491710 1.111435
O5    O     O_R   0.508760 0.390690 0.353590 -0.643876
O6    O     O_R   0.493760 0.578300 0.341170 -0.572996
O7    O     O_R   0.322300 0.406190 0.506190 -0.649116
O8    O     O_R   0.307290 0.593810 0.493770 -0.555600
C3    C     C_R   0.501042 0.478548 0.299786 1.003467
C4    C     C_R   0.257937 0.501760 0.504123 0.930357
C5    C     C_3   0.939974 0.421663 0.592071 0.064627
H1    H     H_    0.913684 0.336697 0.569411 0.192642
C6    C     C_3   0.084292 0.416949 0.582858 -0.579351
H2    H     H_    0.133310 0.427956 0.658971 0.243319
H3    H     H_    0.917847 0.368966 0.400183 0.111848
C7    C     C_3   0.929338 0.460201 0.400619 0.029317
C8    C     C_3   0.916219 0.629662 0.547783 0.383300
C9    C     C_3   0.877535 0.506504 0.511159 -0.353398
C10   C     C_3   0.121442 0.505915 0.506257 -0.241856
C11   C     C_3   0.071842 0.468911 0.396866 0.080906
C12   C     C_3   0.061853 0.622038 0.551911 0.036651
H4    H     H_    0.091069 0.617101 0.635394 0.169316
C13   C     C_R   0.499031 0.465298 0.188729 -0.051278
C14   C     C_R   0.497553 0.534432 0.811146 -0.041013
C15   C     C_R   0.552612 0.636556 0.967532 -0.099314
C16   C     C_R   0.540305 0.630269 0.860295 -0.097219
C17   C     C_R   0.461396 0.447263 0.868206 -0.163472
C18   C     C_R   0.474452 0.452234 0.974955 0.150477
C19   C     C_R   0.521300 0.547320 0.024819 0.134662
C20   C     C_R   0.535028 0.552153 0.131387 -0.093444
C21   C     C_R   0.455173 0.369748 0.139866 -0.106086
C22   C     C_R   0.442782 0.363230 0.032511 -0.106539
H5    H     H_    0.572727 0.624049 0.169804 0.216197
H6    H     H_    0.427171 0.302117 0.184665 0.199194
H7    H     H_    0.567336 0.698547 0.815909 0.195613
H8    H     H_    0.424912 0.374856 0.829400 0.177531
N1    N     N_R   0.523380 0.207800 0.519350 -0.178541
N2    N     N_R   0.476620 0.792180 0.480650 -0.172034
C23   C     C_R   0.407635 0.957230 0.384029 0.174779
C24   C     C_R   0.419352 0.840193 0.394131 0.367095
C25   C     C_R   0.530326 0.858768 0.554214 0.012240
C26   C     C_R   0.528352 0.975499 0.542820 -0.014335
C27   C     C_R   0.464158 0.025950 0.458336 -0.080218
C28   C     C_R   0.459601 0.143764 0.450328 -0.022425
C29   C     C_R   0.590557 0.157711 0.599331 0.431017
C30   C     C_R   0.591583 0.042553 0.613087 -0.218688
H9    H     H_    0.644477 0.005685 0.677501 0.201235
H10   H     H_    0.578349 0.820682 0.620176 0.187776
N3    N     N_R   0.113341 0.724711 0.519263 0.258050
O9    O     O_R   0.096592 0.760785 0.425948 -0.213237
O10   O     O_R   0.170621 0.785677 0.587824 -0.340155
N4    N     N_R   0.863284 0.493333 0.303414 0.271036
O11   O     O_R   0.899052 0.442785 0.216459 -0.292944
O12   O     O_R   0.756640 0.551629 0.302811 -0.377242
N5    N     N_R   0.116988 0.531165 0.310875 0.280650
O13   O     O_R   0.212216 0.487347 0.258857 -0.383230
O14   O     O_R   0.053349 0.617048 0.273175 -0.167249
H11   H     H_    0.587547 0.710056 0.005396 0.189643
H12   H     H_    0.407405 0.289853 0.994802 0.178981
H13   H     H_    0.405741 0.185209 0.389236 0.184667
N6    N     N_R   0.898138 0.444529 0.699997 0.275367
O15   O     O_R   0.784004 0.430380 0.723470 -0.291068
O16   O     O_R   0.973818 0.473990 0.774557 -0.312438
N7    N     N_R   0.664991 0.220010 0.668903 0.240484
O17   O     O_R   0.623445 0.245482 0.761686 -0.356249
O18   O     O_R   0.784763 0.208177 0.656868 -0.349141
N8    N     N_R   0.341259 0.004317 0.296016 0.225206
O19   O     O_R   0.227745 0.980128 0.274942 -0.257022
O20   O     O_R   0.398880 0.059838 0.229956 -0.363332
N9    N     N_R   0.381485 0.772894 0.306841 0.237584
O21   O     O_R   0.420307 0.791127 0.214456 -0.356092
O22   O     O_R   0.291132 0.709478 0.315080 -0.242541
H14   H     H_    0.118247 0.331594 0.554167 0.217066
H15   H     H_    0.112510 0.381430 0.382397 0.129140
N10   N     N_R   0.864672 0.718729 0.478767 0.254754
O23   O     O_R   0.873110 0.709965 0.378465 -0.235934
O24   O     O_R   0.816886 0.813214 0.518927 -0.318370
N11   N     N_R   0.871309 0.662918 0.654438 0.220275
O25   O     O_R   0.931715 0.732227 0.712682 -0.287834
O26   O     O_R   0.756127 0.653703 0.678186 -0.387528

loop_
_geom_bond_atom_site_label_1
_geom_bond_atom_site_label_2
_geom_bond_distance
_ccdc_geom_bond_type
C29   N7    1.421322 S    
C20   H5    1.083600 S    
H3    C7    1.116479 S    
C7    N4    1.477425 S    
C25   C26   1.418900 A    
C17   H8    1.085134 S    
Zn1   O7    2.027584 S    
C6    C10   1.566710 S    
N9    O22   1.295185 A    
C18   C22   1.396860 A    
C1    C14   1.429436 S    
Zn2   N2    2.015721 S    
O4    C2    1.279336 A    
O7    C4    1.295898 A    
C28   H13   1.080536 S    
C5    H1    1.110742 S    
C2    C9    1.469657 S    
C15   C19   1.395950 A    
N4    O11   1.302113 A    
C6    H2    1.110177 S    
O5    C3    1.284344 A    
C15   H11   1.084083 S    
C5    C9    1.588490 S    
C27   C28   1.424690 A    
N7    O17   1.299948 A    
N6    O16   1.302177 A    
C10   C11   1.554963 S    
C22   H12   1.083979 S    
C10   C12   1.587040 S    
N5    O13   1.301153 A    
C8    C9    1.623367 S    
C12   N3    1.476928 S    
N2    C24   1.384408 A    
O3    Zn1   2.036688 S    
N1    C29   1.375444 A    
C19   C20   1.374415 A    
N3    O10   1.302281 A    
C13   C20   1.390159 A    
N5    O14   1.298603 A    
N9    O21   1.301273 A    
C7    C11   1.550169 S    
C21   H6    1.083452 S    
O3    C2    1.300010 A    
N10   O24   1.302584 A    
C25   H10   1.082154 S    
C13   C21   1.400702 A    
C12   H4    1.114484 S    
N3    O9    1.296659 A    
O1    C1    1.291009 A    
C21   C22   1.383616 A    
C4    C10   1.468840 S    
C23   C24   1.416959 A    
C15   C16   1.381966 A    
C17   C18   1.376127 A    
Zn2   O8    2.036689 S    
C8    N10   1.485332 S    
C6    H14   1.114382 S    
C30   H9    1.084318 S    
C24   N9    1.429813 S    
C11   H15   1.118204 S    
O8    C4    1.282133 A    
N11   O25   1.303620 A    
N11   O26   1.299784 A    
N8    O20   1.301289 A    
C5    C6    1.558951 S    
C8    C12   1.564748 S    
C26   C27   1.407020 A    
C23   N8    1.436692 S    
O1    Zn1   1.995027 S    
C14   C17   1.391739 A    
O2    Zn2   2.005976 S    
C7    C9    1.601130 S    
O6    C3    1.292028 A    
O4    Zn2   2.027583 S    
C26   C30   1.392013 A    
C18   C19   1.414396 A    
C14   C16   1.400438 A    
O2    C1    1.285172 A    
N8    O19   1.301100 A    
N6    O15   1.299612 A    
C11   N5    1.474490 S    
N1    C28   1.363910 A    
N4    O12   1.297117 A    
C16   H7    1.083041 S    
Zn1   N1    2.015960 S    
N10   O23   1.294449 A    
Zn1   O5    2.005975 S    
C8    N11   1.493034 S    
Zn2   O6    1.995028 S    
C29   C30   1.405492 A    
N7    O18   1.299203 A    
C3    C13   1.430403 S    
C23   C27   1.400979 A    
N2    C25   1.365353 A    
C5    N6    1.477124 S    
