data_mof_unit_46775.cif
_audit_creation_date              2012-12-11T15:55:57-0500
_audit_creation_method            fapswitch 2.2
_symmetry_space_group_name_H-M    P1
_symmetry_Int_Tables_number       1
_space_group_crystal_system       triclinic
_cell_length_a                    10.98935
_cell_length_b                    10.984944
_cell_length_c                    18.798661
_cell_angle_alpha                 90.175792
_cell_angle_beta                  90.361818
_cell_angle_gamma                 59.584058
_cell_volume                      1956.96551702

loop_
_atom_site_label
_atom_site_type_symbol
_atom_type_description
_atom_site_fract_x
_atom_site_fract_y
_atom_site_fract_z
_atom_type_partial_charge
C1    C     C_R   0.387377 0.708757 0.389824 0.558318
C2    C     C_R   0.227203 0.411752 0.205473 -0.180208
C3    C     C_R   0.236433 0.413857 0.278894 -0.086091
C4    C     C_R   0.390134 0.354583 0.386608 0.552691
C5    C     C_R   0.885360 0.688731 0.410110 -0.088336
C6    C     C_R   0.973190 0.547770 0.429665 -0.066531
C7    C     C_R   0.077255 0.453780 0.383169 -0.060932
C8    C     C_R   0.105264 0.503849 0.320152 0.048161
C9    C     C_R   0.370702 0.334522 0.311080 0.011326
C10   C     C_R   0.857126 0.334595 0.182789 0.010560
C11   C     C_R   0.887627 0.217227 0.224885 0.058709
C12   C     C_R   0.609134 0.201272 0.145590 0.090490
C13   C     C_R   0.870650 0.229884 0.297446 0.094333
C14   C     C_R   0.777743 0.480401 0.287015 -0.145304
C15   C     C_R   0.794336 0.468197 0.213923 -0.167262
C16   C     C_R   0.776446 0.380325 0.402785 0.538633
C17   C     C_3   0.020404 0.077247 0.231611 -0.238250
C18   C     C_3   0.002143 0.092771 0.311572 -0.268468
C19   C     C_R   0.821868 0.359465 0.329914 0.025172
C20   C     C_R   0.369346 0.812195 0.169178 0.011772
C21   C     C_R   0.445392 0.845517 0.217359 -0.003481
C22   C     C_R   0.456705 0.807320 0.288423 0.004925
C23   C     C_R   0.347855 0.334163 0.163455 -0.044402
C24   C     C_R   0.331195 0.685357 0.264421 -0.159402
C25   C     C_R   0.322010 0.721350 0.192365 -0.156560
C26   C     C_3   0.429189 0.985115 0.235610 -0.252507
C27   C     C_3   0.443493 0.942604 0.313215 -0.249165
C28   C     C_R   0.342735 0.771913 0.603621 0.551348
C29   C     C_R   0.389461 0.737159 0.314041 0.017117
C30   C     C_R   0.296505 0.303835 0.807437 0.015218
C31   C     C_R   0.403469 0.190970 0.769975 0.046383
C32   C     C_R   0.415065 0.195293 0.697936 0.028236
C33   C     C_R   0.195742 0.417399 0.694079 -0.166954
C34   C     C_R   0.493517 0.253536 0.267963 0.201850
C35   C     C_R   0.184383 0.411907 0.768397 -0.163292
C36   C     C_3   0.559061 0.113271 0.782563 -0.277504
C37   C     C_3   0.573454 0.117326 0.703046 -0.270190
C38   C     C_R   0.320322 0.316180 0.659910 0.012736
C39   C     C_R   0.856995 0.314089 0.827316 0.014147
C40   C     C_R   0.368735 0.348413 0.594763 0.538754
C41   C     C_R   0.862242 0.420434 0.789887 0.048763
C42   C     C_R   0.853783 0.428477 0.717705 0.029565
C43   C     C_R   0.852989 0.209528 0.713541 -0.163447
C44   C     C_R   0.864431 0.200857 0.788282 -0.163365
C45   C     C_R   0.483236 0.264460 0.193861 -0.008086
C46   C     C_3   0.780878 0.576236 0.800499 -0.279829
C47   C     C_3   0.770326 0.587006 0.720451 -0.272187
C48   C     C_R   0.834207 0.331399 0.678589 0.016445
C49   C     C_R   0.291565 0.866208 0.821007 0.016242
C50   C     C_R   0.180324 0.872819 0.782160 0.035535
C51   C     C_R   0.187848 0.859875 0.709146 0.029483
C52   C     C_R   0.766923 0.374838 0.609294 0.539453
C53   C     C_R   0.404229 0.864980 0.709287 -0.167123
C54   C     C_R   0.399156 0.872665 0.783419 -0.156643
C55   C     C_3   0.112085 0.786048 0.790022 -0.285980
C56   C     C_R   0.014755 0.645506 0.300311 -0.103099
C57   C     C_3   0.120527 0.770750 0.709912 -0.268060
C58   C     C_R   0.306312 0.842839 0.672216 0.015444
C59   C     C_R   0.913652 0.314118 0.112337 0.545307
C60   C     C_R   0.326638 0.294897 0.092492 0.543911
C61   C     C_R   0.310075 0.894634 0.104133 0.533443
C62   C     C_R   0.889379 0.306226 0.902619 0.533409
C63   C     C_R   0.292318 0.285172 0.883568 0.543406
C64   C     C_R   0.782955 0.075611 0.026669 -0.048984
C65   C     C_R   0.273128 0.898762 0.896453 0.543681
C66   C     C_R   0.691062 0.221525 0.028642 -0.066990
C67   C     C_R   0.904417 0.736615 0.344782 -0.128216
C68   C     C_R   0.608997 0.284619 0.088741 -0.093250
C69   C     C_R   0.707145 0.054706 0.144089 -0.055657
C70   C     C_R   0.794580 0.993197 0.085372 -0.124155
Cl1   Cl    Cl    0.660309 0.131130 0.304159 -0.708014
Cr1   Cr    Cr6+3 0.601740 0.606840 0.505840 0.985295
Cr2   Cr    Cr6+3 0.291500 0.601560 0.495070 1.009374
Cr3   Cr    Cr6+3 0.606780 0.291630 0.499130 1.043319
Cr4   Cr    Cr6+3 0.062440 0.063060 0.008240 0.988986
Cr5   Cr    Cr6+3 0.062950 0.375000 0.998920 0.998870
Cr6   Cr    Cr6+3 0.374550 0.061770 0.992470 1.009570
H1    H     H_    0.802314 0.760575 0.445422 0.111426
H2    H     H_    0.284930 0.624960 0.282222 0.137403
H3    H     H_    0.866975 0.880333 0.084104 0.086904
H4    H     H_    0.265285 0.689983 0.156446 0.127877
H5    H     H_    0.324194 0.076356 0.221607 0.132381
H6    H     H_    0.519094 0.992915 0.216182 0.162087
H7    H     H_    0.542559 0.926155 0.338337 0.174975
H8    H     H_    0.346133 0.008543 0.344486 0.136314
H9    H     H_    0.114659 0.507074 0.664987 0.120296
H10   H     H_    0.093036 0.494794 0.795175 0.129080
H11   H     H_    0.600000 0.004905 0.803422 0.131588
H12   H     H_    0.959427 0.510673 0.480588 0.124325
H13   H     H_    0.595104 0.177338 0.812107 0.133250
H14   H     H_    0.618936 0.183207 0.687722 0.168578
H15   H     H_    0.836324 0.845274 0.329454 0.170845
H16   H     H_    0.622845 0.011303 0.677794 0.124938
H17   H     H_    0.849649 0.126524 0.684067 0.121917
H18   H     H_    0.874966 0.109059 0.815195 0.126147
H19   H     H_    0.845869 0.617789 0.823725 0.136433
H20   H     H_    0.677818 0.612666 0.826936 0.133485
H21   H     H_    0.660652 0.630176 0.701246 0.169637
H22   H     H_    0.828336 0.635787 0.697134 0.124598
H23   H     H_    0.142837 0.344336 0.398801 0.086616
H24   H     H_    0.491733 0.862897 0.682024 0.122552
H25   H     H_    0.481362 0.880298 0.811267 0.134413
H26   H     H_    0.002108 0.848663 0.809806 0.127688
H27   H     H_    0.845472 0.026088 0.979815 0.116901
H28   H     H_    0.180032 0.685166 0.818712 0.135880
H29   H     H_    0.194935 0.661278 0.692587 0.165869
H30   H     H_    0.015499 0.823188 0.683273 0.127691
H31   H     H_    0.680750 0.286077 0.983157 0.105688
H32   H     H_    0.534885 0.397269 0.088002 0.089216
H33   H     H_    0.032618 0.687121 0.251846 0.097157
H34   H     H_    0.730757 0.585078 0.309772 0.160321
H35   H     H_    0.712522 0.984822 0.185580 0.136297
H36   H     H_    0.122993 0.465426 0.181396 0.158516
H37   H     H_    0.766436 0.561613 0.182704 0.138425
H38   H     H_    0.114004 0.080322 0.212648 0.137071
H39   H     H_    0.008234 0.989774 0.209810 0.166311
H40   H     H_    0.980399 0.013651 0.335893 0.187333
H41   H     H_    0.084635 0.106063 0.338969 0.113892
O1    O     O_R   0.748670 0.497520 0.427970 -0.550713
O2    O     O_R   0.417470 0.174910 0.067830 -0.506730
O3    O     O_R   0.375160 0.946380 0.070880 -0.496076
O4    O     O_R   0.476470 0.723930 0.429450 -0.503306
O5    O     O_R   0.160500 0.919670 0.926690 -0.523765
O6    O     O_R   0.933140 0.190380 0.936050 -0.525285
O7    O     O_R   0.909010 0.403210 0.925030 -0.518726
O8    O     O_R   0.179590 0.361290 0.918480 -0.507624
O9    O     O_R   0.391360 0.170840 0.907510 -0.522657
O10   O     O_R   0.350950 0.942600 0.922260 -0.512020
O11   O     O_3   0.166650 0.166610 0.999880 -0.245587
O12   O     O_R   0.300170 0.471020 0.567120 -0.512542
O13   O     O_R   0.264730 0.744140 0.416740 -0.511697
O14   O     O_R   0.309440 0.472410 0.418220 -0.520311
O15   O     O_R   0.501630 0.260530 0.414310 -0.447695
O16   O     O_R   0.727920 0.305730 0.428950 -0.457724
O17   O     O_R   0.738670 0.496020 0.588600 -0.532828
O18   O     O_R   0.467190 0.722540 0.578350 -0.506937
O19   O     O_R   0.254720 0.742640 0.577370 -0.517444
O20   O     O_R   0.491630 0.259030 0.574940 -0.524200
O21   O     O_R   0.718640 0.304340 0.577850 -0.510854
O22   O     O_3   0.500010 0.500010 0.500020 -0.270562
O23   O     O_R   0.186620 0.923750 0.087000 -0.532037
O24   O     O_R   0.957350 0.194160 0.084660 -0.493413
O25   O     O_R   0.935120 0.407280 0.085350 -0.531438
O26   O     O_R   0.203800 0.365060 0.067090 -0.512606

loop_
_geom_bond_atom_site_label_1
_geom_bond_atom_site_label_2
_ccdc_geom_bond_type
C66   C68   A    
C12   C69   A    
Cr2   O13   S    
C26   H6    S    
C23   C45   A    
C22   C29   A    
Cr5   O8    S    
C41   C42   A    
C5    C67   A    
Cr6   O2    S    
C16   O16   A    
C8    C56   A    
C62   O6    A    
C7    C8    A    
C39   C41   A    
C53   C54   A    
C36   H11   S    
C12   C68   A    
C26   C27   S    
C47   H21   S    
C49   C65   S    
C13   C18   S    
C55   H28   S    
Cr4   O5    S    
C27   H7    S    
Cr2   O12   S    
C10   C15   A    
C30   C31   A    
C69   H35   S    
Cr1   O18   S    
C20   C25   A    
C49   C54   A    
Cr3   O15   S    
C55   H26   S    
C52   O21   A    
C47   H22   S    
C61   O3    A    
C20   C61   S    
C27   H8    S    
C1    O4    A    
Cr4   O23   S    
C33   C35   A    
C24   C29   A    
C35   H10   S    
C59   O24   A    
C53   H24   S    
C40   O20   A    
C41   C46   S    
C51   C57   S    
C64   C70   A    
C43   C48   A    
C18   H41   S    
Cr6   O9    S    
C68   H32   S    
C57   H29   S    
Cr2   O14   S    
C59   O25   A    
C26   H5    S    
C21   C22   A    
C25   H4    S    
Cr5   O7    S    
C23   C60   S    
C56   H33   S    
C21   C26   S    
C50   C51   A    
C14   H34   S    
C7    H23   S    
C37   H14   S    
C70   H3    S    
Cr4   O6    S    
C65   O10   A    
C24   C25   A    
C4    O14   A    
C3    C8    S    
C16   O1    A    
C51   C58   A    
C13   C19   A    
Cr1   O17   S    
C42   C48   A    
Cr3   O22   S    
C64   C66   A    
C43   C44   A    
C3    C9    A    
Cr4   O24   S    
Cr3   O20   S    
Cr5   O11   S    
C24   H2    S    
C31   C32   A    
C14   C15   A    
C48   C52   S    
C1    C29   S    
C17   C18   S    
C15   H37   S    
C37   H16   S    
C34   C45   A    
Cr6   O11   S    
C32   C37   S    
C18   H40   S    
C6    C7    A    
Cr6   O10   S    
Cr5   O26   S    
C61   O23   A    
C57   H30   S    
C46   H20   S    
C32   C38   A    
C22   C27   S    
C55   C57   S    
C9    C34   A    
C56   C67   A    
C17   H38   S    
C36   H13   S    
C64   H27   S    
C39   C62   S    
C40   O12   A    
C46   C47   S    
C11   C17   S    
Cr1   O4    S    
C28   O18   A    
C14   C19   A    
C54   H25   S    
C28   O19   A    
C50   C55   S    
C66   H31   S    
C12   C45   S    
C1    O13   A    
C62   O7    A    
C53   C58   A    
C39   C44   A    
Cr2   O22   S    
C28   C58   S    
C6    H12   S    
C30   C35   A    
Cr3   O21   S    
C43   H17   S    
C33   C38   A    
C2    C3    A    
C4    C9    S    
C44   H18   S    
C60   O26   A    
C38   C40   S    
C11   C13   A    
C5    C6    A    
Cr2   O19   S    
C16   C19   S    
Cr3   O16   S    
Cr1   O1    S    
C67   H15   S    
C2    H36   S    
C60   O2    A    
C42   C47   S    
C65   O5    A    
C69   C70   A    
C63   O8    A    
Cr6   O3    S    
C10   C11   A    
Cr5   O25   S    
Cr1   O22   S    
C46   H19   S    
C20   C21   A    
C36   C37   S    
C49   C50   A    
C2    C23   A    
C52   O17   A    
C31   C36   S    
C5    H1    S    
C30   C63   S    
C10   C59   S    
C34   Cl1   S    
C33   H9    S    
C63   O9    A    
Cr4   O11   S    
C17   H39   S    
C4    O15   A    
