data_mof_unit_37792.cif
_audit_creation_date              2012-12-10T16:52:10-0500
_audit_creation_method            fapswitch 2.2
_symmetry_space_group_name_H-M    P1
_symmetry_Int_Tables_number       1
_space_group_crystal_system       triclinic
_cell_length_a                    7.766229
_cell_length_b                    8.564747
_cell_length_c                    14.932796
_cell_angle_alpha                 90.972629
_cell_angle_beta                  85.974851
_cell_angle_gamma                 93.820342
_cell_volume                      988.539432493

loop_
_atom_site_label
_atom_site_type_symbol
_atom_type_description
_atom_site_fract_x
_atom_site_fract_y
_atom_site_fract_z
_atom_type_partial_charge
C1    C     C_R   0.545912 0.794764 0.497820 0.987483
C2    C     C_R   0.592691 0.620901 0.810412 0.279739
C3    C     C_R   0.493136 0.504994 0.232425 -0.191673
C4    C     C_R   0.506863 0.495006 0.767575 -0.191674
C5    C     C_R   0.576003 0.632284 0.185131 0.078520
C6    C     C_R   0.423997 0.367716 0.814869 0.078522
C7    C     C_R   0.579502 0.629904 0.091697 0.103941
C8    C     C_R   0.420497 0.370096 0.908303 0.103942
C9    C     C_R   0.497351 0.501529 0.047019 -0.006186
C10   C     C_R   0.502648 0.498471 0.952981 -0.006186
C11   C     C_R   0.410001 0.376265 0.096122 0.046195
C12   C     C_R   0.454087 0.205236 0.502180 0.987485
C13   C     C_R   0.589998 0.623736 0.903878 0.046195
C14   C     C_R   0.665972 0.752511 0.042115 -0.195781
C15   C     C_R   0.334026 0.247489 0.957885 -0.195781
C16   C     C_3   0.537548 0.886152 0.253633 -0.697753
C17   C     C_3   0.462451 0.113847 0.746367 -0.697762
C18   C     C_R   0.671022 0.749578 0.949431 -0.165531
C19   C     C_R   0.328977 0.250422 0.050569 -0.165532
C20   C     C_2   0.570004 0.958380 0.496597 -0.356536
C21   C     C_2   0.429995 0.041620 0.503403 -0.356536
C22   C     C_R   0.501986 0.497676 0.672556 0.966719
C23   C     C_R   0.498014 0.502324 0.327444 0.966718
C24   C     C_R   0.407309 0.379099 0.189588 0.279739
Cl1   Cl    Cl    0.300665 0.224289 0.254318 -0.685907
Cl2   Cl    Cl    0.699335 0.775711 0.745682 -0.685906
H1    H     H_    0.731217 0.851489 0.074521 0.187026
H2    H     H_    0.431966 0.843151 0.302963 0.244247
H3    H     H_    0.480804 0.926119 0.192404 0.270518
H4    H     H_    0.610415 0.987613 0.283652 0.258274
H5    H     H_    0.274139 0.262363 0.716697 0.249157
H6    H     H_    0.568036 0.156849 0.697040 0.244249
H7    H     H_    0.389586 0.012390 0.716346 0.258274
H8    H     H_    0.519190 0.073878 0.807597 0.270519
H9    H     H_    0.268781 0.148512 0.925479 0.187025
H10   H     H_    0.738978 0.847210 0.914342 0.203316
H11   H     H_    0.261020 0.152790 0.085658 0.203316
H12   H     H_    0.702109 0.009762 0.489971 0.190394
H13   H     H_    0.297891 0.990238 0.510029 0.190394
H14   H     H_    0.013786 0.382946 0.432216 0.224555
H15   H     H_    0.986214 0.617054 0.567784 0.224555
H16   H     H_    0.725862 0.737636 0.283303 0.249156
N1    N     N_2   0.950330 0.457950 0.475660 -0.175179
N2    N     N_2   0.049670 0.542050 0.524340 -0.175179
N3    N     N_2   0.653367 0.763857 0.231058 -0.329534
N4    N     N_2   0.346633 0.236143 0.768942 -0.329534
O1    O     O_R   0.389250 0.738570 0.505970 -0.621067
O2    O     O_R   0.610750 0.261430 0.494030 -0.621067
O3    O     O_R   0.678390 0.711620 0.490370 -0.621214
O4    O     O_R   0.321610 0.288380 0.509630 -0.621215
O5    O     O_R   0.355420 0.513510 0.639950 -0.629688
O6    O     O_R   0.644580 0.486490 0.360050 -0.629688
O7    O     O_R   0.644560 0.486560 0.624350 -0.596139
O8    O     O_R   0.355440 0.513440 0.375650 -0.596140
Zn1   Zn    Zn3+2 0.306940 0.517990 0.510420 0.982107
Zn2   Zn    Zn3+2 0.693060 0.482010 0.489580 0.982108

loop_
_geom_bond_atom_site_label_1
_geom_bond_atom_site_label_2
_ccdc_geom_bond_type
C16   N3    S    
C16   H2    S    
C2    C4    A    
N1    N2    D    
C5    C7    A    
C14   H1    S    
C8    C15   A    
O3    Zn2   S    
C20   H12   S    
C9    C10   A    
C14   C18   A    
C12   O4    A    
O4    Zn1   S    
C21   H13   S    
C12   O2    A    
N1    Zn2   S    
C20   C21   D    
C3    C24   A    
O1    Zn1   S    
C2    Cl2   S    
C10   C13   A    
C24   Cl1   S    
C15   C19   A    
C9    C11   A    
N2    Zn1   S    
C11   C19   A    
C23   O6    A    
C18   H10   S    
C13   C18   A    
C4    C6    A    
C22   O7    A    
O5    Zn1   S    
C7    C14   A    
C6    N4    S    
C17   H6    S    
H15   N2    S    
C17   H8    S    
C16   H4    S    
C7    C9    A    
C11   C24   A    
C4    C22   S    
C17   N4    S    
C16   H3    S    
C23   O8    A    
C8    C10   A    
O7    Zn2   S    
C15   H9    S    
O2    Zn2   S    
C2    C13   A    
O8    Zn1   S    
C1    O1    A    
C1    C20   S    
C6    C8    A    
C19   H11   S    
C17   H7    S    
C3    C23   S    
C5    N3    S    
C12   C21   S    
H5    N4    S    
H14   N1    S    
O6    Zn2   S    
C22   O5    A    
C3    C5    A    
H16   N3    S    
C1    O3    A    
