data_mof_unit_47145.cif
_audit_creation_date              2012-12-11T15:33:46-0500
_audit_creation_method            fapswitch 2.2
_symmetry_space_group_name_H-M    P1
_symmetry_Int_Tables_number       1
_space_group_crystal_system       triclinic
_cell_length_a                    27.175327
_cell_length_b                    7.181913
_cell_length_c                    22.653669
_cell_angle_alpha                 89.990452
_cell_angle_beta                  101.464807
_cell_angle_gamma                 90.015777
_cell_volume                      4333.11628239

loop_
_atom_site_label
_atom_site_type_symbol
_atom_type_description
_atom_site_fract_x
_atom_site_fract_y
_atom_site_fract_z
_atom_type_partial_charge
O1    O     O_R   0.207310 0.594030 0.676830 -0.533191
O2    O     O_R   0.792690 0.405970 0.323170 -0.530771
O3    O     O_R   0.292690 0.094030 0.823170 -0.533198
O4    O     O_R   0.707310 0.905970 0.176830 -0.530727
O5    O     O_R   0.197320 0.262370 0.795700 -0.535515
O6    O     O_R   0.802680 0.737630 0.204300 -0.533092
O7    O     O_R   0.302680 0.762370 0.704300 -0.535640
O8    O     O_R   0.697320 0.237630 0.295700 -0.532821
C1    C     C_R   0.183909 0.433098 0.810937 0.730151
C2    C     C_R   0.814870 0.567009 0.187285 0.741422
C3    C     C_R   0.316082 0.933139 0.689078 0.730164
C4    C     C_R   0.685121 0.066932 0.312715 0.741076
O9    O     O_R   0.201410 0.264250 0.675590 -0.537792
O10   O     O_R   0.798590 0.735750 0.324410 -0.536405
O11   O     O_R   0.298590 0.764250 0.824410 -0.537757
O12   O     O_R   0.701410 0.235750 0.175590 -0.536126
O13   O     O_R   0.296810 0.094940 0.702210 -0.505647
O14   O     O_R   0.703190 0.905060 0.297790 -0.504038
O15   O     O_R   0.203190 0.594940 0.797790 -0.505564
O16   O     O_R   0.796810 0.405060 0.202210 -0.504801
C5    C     C_R   0.189811 0.432219 0.653076 0.682254
C6    C     C_R   0.810492 0.567385 0.346629 0.716931
C7    C     C_R   0.310192 0.932221 0.846916 0.682276
C8    C     C_R   0.689529 0.067393 0.153343 0.718710
O17   O     O_3   0.281300 0.427390 0.758870 -0.351352
O18   O     O_3   0.718700 0.572610 0.241130 -0.368978
O19   O     O_3   0.218700 0.927390 0.741130 -0.351263
O20   O     O_3   0.781300 0.072610 0.258870 -0.370143
V1    V     V_3+5 0.244190 0.152150 0.748350 1.529643
V2    V     V_3+5 0.755810 0.847850 0.251650 1.514107
V3    V     V_3+5 0.255810 0.652150 0.751650 1.529619
V4    V     V_3+5 0.744190 0.347850 0.248350 1.514021
C9    C     C_R   0.654818 0.060650 0.094284 -0.095866
C10   C     C_R   0.345140 0.932340 0.905927 -0.075815
C11   C     C_R   0.845221 0.560521 0.405651 -0.094566
C12   C     C_R   0.154884 0.432401 0.594042 -0.075770
C13   C     C_R   0.640351 0.107953 0.986772 -0.074235
C14   C     C_R   0.363738 0.816504 0.007981 -0.077296
C15   C     C_R   0.859609 0.605760 0.513231 -0.073986
C16   C     C_R   0.136409 0.317783 0.491843 -0.076952
C17   C     C_R   0.672474 0.109280 0.042799 -0.144780
C18   C     C_R   0.329634 0.848929 0.954621 -0.179695
C19   C     C_R   0.827499 0.607730 0.457201 -0.145875
C20   C     C_R   0.170459 0.349712 0.545290 -0.180141
C21   C     C_R   0.604100 0.011819 0.089249 -0.172179
C22   C     C_R   0.395660 0.984869 0.911472 -0.144922
C23   C     C_R   0.895971 0.512376 0.410608 -0.171974
C24   C     C_R   0.104342 0.484546 0.588483 -0.144897
C25   C     C_R   0.570864 0.998134 0.032033 0.067112
C26   C     C_R   0.432632 0.935324 0.963322 0.060053
C27   C     C_R   0.929190 0.497885 0.467808 0.066849
C28   C     C_R   0.067425 0.435356 0.536536 0.059650
C29   C     C_R   0.589640 0.053744 0.980465 -0.036986
C30   C     C_R   0.415274 0.855504 0.012934 -0.016904
C31   C     C_R   0.910356 0.552174 0.519461 -0.036901
C32   C     C_R   0.084856 0.356507 0.486849 -0.015975
C33   C     C_R   0.519427 0.937726 0.024666 -0.171198
C34   C     C_R   0.485840 0.962780 0.967712 -0.174752
C35   C     C_R   0.980655 0.437919 0.475098 -0.170538
C36   C     C_R   0.014201 0.462272 0.532127 -0.174669
C37   C     C_R   0.507381 0.000935 0.916511 0.377910
C38   C     C_R   0.501003 0.841957 0.070911 0.382834
C39   C     C_R   0.992616 0.499236 0.583370 0.377897
C40   C     C_R   0.999169 0.343384 0.428689 0.381593
C41   C     C_R   0.557952 0.051523 0.923311 0.295318
C42   C     C_R   0.449616 0.808506 0.065801 0.299311
C43   C     C_R   0.942021 0.549269 0.576623 0.295312
C44   C     C_R   0.050575 0.310263 0.433847 0.299717
H1    H     H_    0.404642 0.062793 0.874452 0.183488
H2    H     H_    0.591304 0.995266 0.130977 0.163246
H3    H     H_    0.095301 0.561978 0.625558 0.183408
H4    H     H_    0.908782 0.496793 0.368858 0.162423
H5    H     H_    0.290888 0.806225 0.951005 0.111479
H6    H     H_    0.711285 0.150200 0.046024 0.176562
H7    H     H_    0.209223 0.307307 0.548910 0.111605
H8    H     H_    0.788641 0.647968 0.454020 0.173965
H9    H     H_    0.655983 0.149441 0.948464 0.195064
H10   H     H_    0.349329 0.753514 0.044446 0.178988
H11   H     H_    0.843934 0.646172 0.551604 0.194916
H12   H     H_    0.150873 0.255438 0.455328 0.179500
C45   C     C_R   0.638532 0.889609 0.383204 0.394358
C46   C     C_R   0.384139 0.108973 0.648298 0.389466
C47   C     C_R   0.860394 0.391519 0.115456 0.384920
C48   C     C_R   0.115831 0.609107 0.851611 0.389872
C49   C     C_R   0.600710 0.882501 0.416948 -0.215909
C50   C     C_R   0.418116 0.117792 0.609315 -0.218806
C51   C     C_R   0.897962 0.384514 0.081355 -0.218535
C52   C     C_R   0.081776 0.618127 0.890501 -0.217019
H13   H     H_    0.596205 0.755236 0.441024 0.223162
H14   H     H_    0.439146 0.245295 0.607794 0.223848
H15   H     H_    0.901649 0.258734 0.056183 0.222140
H16   H     H_    0.060818 0.745759 0.892027 0.222931
C53   C     C_R   0.569896 0.036328 0.421567 -0.145005
C54   C     C_R   0.426109 0.965131 0.573649 -0.151295
C55   C     C_R   0.929803 0.536285 0.078110 -0.141514
C56   C     C_R   0.073558 0.465374 0.926005 -0.151230
C57   C     C_R   0.577334 0.201241 0.390280 0.463562
C58   C     C_R   0.398989 0.799037 0.578126 0.459830
C59   C     C_R   0.923712 0.698986 0.111062 0.476615
C60   C     C_R   0.100590 0.299144 0.921578 0.460296
C61   C     C_R   0.615461 0.208912 0.356192 -0.259064
C62   C     C_R   0.364709 0.790252 0.617249 -0.276725
C63   C     C_R   0.885466 0.707314 0.145079 -0.256856
C64   C     C_R   0.135076 0.290234 0.882703 -0.277523
H17   H     H_    0.620529 0.337337 0.333072 0.191878
H18   H     H_    0.344434 0.661540 0.619669 0.190943
H19   H     H_    0.881231 0.834298 0.169358 0.186162
H20   H     H_    0.155362 0.161518 0.880431 0.190465
C65   C     C_R   0.646181 0.054104 0.351212 -0.184290
C66   C     C_R   0.355675 0.944944 0.651665 -0.200489
C67   C     C_R   0.853744 0.554349 0.148725 -0.183629
C68   C     C_R   0.144247 0.444917 0.848296 -0.199907
N1    N     N_R   0.515550 0.848838 0.474564 -0.284871
N2    N     N_R   0.478279 0.154304 0.517795 -0.281820
N3    N     N_R   0.988518 0.672072 0.018133 -0.204472
N4    N     N_R   0.016981 0.331133 0.988906 -0.201242
N5    N     N_R   0.482170 0.831087 0.510099 -0.206776
N6    N     N_R   0.511544 0.172126 0.482039 -0.205358
N7    N     N_R   0.021744 0.654400 0.982324 -0.282285
N8    N     N_R   0.983637 0.348717 0.024495 -0.281305
C69   C     C_R   0.462785 0.983402 0.532694 0.541954
C70   C     C_R   0.531021 0.019595 0.459617 0.541859
C71   C     C_R   0.036797 0.483544 0.966860 0.539910
C72   C     C_R   0.968638 0.519455 0.040032 0.540653
Cl1   Cl    Cl    0.580440 0.110813 0.857489 -0.566813
Cl2   Cl    Cl    0.429835 0.700721 0.127538 -0.639508
Cl3   Cl    Cl    0.919475 0.607039 0.642525 -0.566973
Cl4   Cl    Cl    0.070465 0.203956 0.371957 -0.647084
O21   O     O_3   0.480380 0.980340 0.858352 -0.534706
C73   C     C_3   0.480672 0.790635 0.841883 0.110407
H21   H     H_    0.465467 0.700152 0.874019 0.110290
H22   H     H_    0.519467 0.744626 0.840008 0.175518
C74   C     C_3   0.447728 0.765467 0.779758 -0.559181
H23   H     H_    0.461753 0.853668 0.746343 0.243648
H24   H     H_    0.448324 0.617518 0.765752 0.225569
H25   H     H_    0.408457 0.805670 0.780836 0.191269
O22   O     O_3   0.532926 0.769014 0.120759 -0.539114
C75   C     C_3   0.550893 0.594673 0.105313 0.114623
H26   H     H_    0.572218 0.608950 0.068329 0.116212
H27   H     H_    0.519355 0.494809 0.091207 0.150111
C76   C     C_3   0.586087 0.514757 0.160109 -0.629572
H28   H     H_    0.565808 0.496466 0.197730 0.221468
H29   H     H_    0.600414 0.377461 0.148747 0.161480
H30   H     H_    0.618364 0.610274 0.174659 0.220664
O23   O     O_3   0.019614 0.478100 0.641509 -0.534760
C77   C     C_3   0.019422 0.288153 0.657735 0.109806
H31   H     H_    0.034730 0.198381 0.625522 0.110230
H32   H     H_    0.980644 0.241556 0.659482 0.175405
C78   C     C_3   0.052312 0.262539 0.719872 -0.559040
H33   H     H_    0.038195 0.350092 0.753355 0.243482
H34   H     H_    0.051772 0.114393 0.733695 0.225777
H35   H     H_    0.091575 0.303243 0.718919 0.191458
O24   O     O_3   0.967341 0.271427 0.378583 -0.540809
C79   C     C_3   0.949414 0.096363 0.393492 0.115790
H36   H     H_    0.927361 0.109909 0.429796 0.117481
H37   H     H_    0.981005 0.997250 0.408314 0.149719
C80   C     C_3   0.915187 0.015660 0.338055 -0.639878
H38   H     H_    0.936326 0.997133 0.301239 0.221001
H39   H     H_    0.900636 0.878331 0.349107 0.163511
H40   H     H_    0.883005 0.110795 0.322516 0.220860
Cl5   Cl    Cl    0.676314 0.688468 0.386412 -0.658870
Cl6   Cl    Cl    0.381623 0.305731 0.694191 -0.649486
Cl7   Cl    Cl    0.821838 0.192163 0.111414 -0.663306
Cl8   Cl    Cl    0.118510 0.805929 0.805774 -0.650494
O25   O     O_3   0.549388 0.359198 0.395285 -0.528052
C81   C     C_3   0.512068 0.377926 0.342515 0.103620
H41   H     H_    0.484439 0.261920 0.339255 0.120810
H42   H     H_    0.528531 0.379764 0.301205 0.116192
C82   C     C_3   0.484453 0.561042 0.344979 -0.606862
H43   H     H_    0.510901 0.679486 0.346137 0.220328
H44   H     H_    0.454035 0.574873 0.304490 0.196799
H45   H     H_    0.467734 0.565739 0.385829 0.232850
O26   O     O_3   0.407512 0.641005 0.546813 -0.524383
C83   C     C_3   0.368564 0.622831 0.495658 0.107130
H46   H     H_    0.369459 0.741104 0.464051 0.113434
H47   H     H_    0.331000 0.617049 0.508305 0.101968
C84   C     C_3   0.375844 0.442603 0.463222 -0.637500
H48   H     H_    0.373186 0.321739 0.493000 0.215844
H49   H     H_    0.346349 0.429432 0.421812 0.166173
H50   H     H_    0.413225 0.441904 0.450520 0.247592
O27   O     O_3   0.953404 0.853763 0.107736 -0.529580
C85   C     C_3   0.986211 0.885572 0.163777 0.099716
H51   H     H_    0.025220 0.856630 0.158336 0.151824
H52   H     H_    0.979096 0.796849 0.201746 0.099491
C86   C     C_3   0.982843 0.088774 0.181612 -0.659243
H53   H     H_    0.944094 0.121448 0.187212 0.222868
H54   H     H_    0.009222 0.115727 0.224892 0.225764
H55   H     H_    0.992850 0.180715 0.146383 0.233514
O28   O     O_3   0.091908 0.141483 0.952985 -0.524759
C87   C     C_3   0.130414 0.124980 0.004646 0.103666
H56   H     H_    0.131818 0.250604 0.033847 0.110222
H57   H     H_    0.167621 0.104757 0.991992 0.104639
C88   C     C_3   0.119938 0.956331 0.040853 -0.619066
H58   H     H_    0.119849 0.827873 0.013548 0.216444
H59   H     H_    0.149517 0.943662 0.082212 0.162653
H60   H     H_    0.082883 0.971577 0.054019 0.253943

loop_
_geom_bond_atom_site_label_1
_geom_bond_atom_site_label_2
_ccdc_geom_bond_type
C55   C72   S    
O17   V3    S    
C59   C63   A    
C52   C56   A    
O1    C5    A    
C87   H56   S    
N4    C71   A    
C51   H15   S    
O19   V1    S    
C9    C21   A    
C82   H43   S    
O12   C8    A    
O3    C7    A    
C60   O28   S    
C10   C18   A    
C60   C64   A    
C11   C23   A    
O23   C77   S    
C33   C34   A    
C25   C33   A    
C33   C38   A    
C57   O25   S    
C5    C12   S    
O27   C85   S    
O7    C3    A    
C6    C11   S    
C35   C40   A    
C48   C68   A    
C36   C39   A    
C46   C66   A    
O9    V1    S    
C14   C18   A    
C76   H29   S    
O4    C8    A    
C55   C59   A    
C86   H54   S    
C54   C58   A    
C61   C65   A    
O1    V3    S    
O13   V1    S    
O2    V4    S    
N6    C70   A    
O3    V1    S    
N5    C69   A    
C85   H51   S    
C22   H1    S    
C50   C54   A    
C87   C88   S    
C17   H6    S    
C83   H46   S    
N2    C69   A    
C49   C53   A    
C1    O15   A    
C80   H38   S    
C15   C31   A    
N1    C70   A    
C52   H16   S    
C2    O16   A    
C16   C32   A    
C51   C55   A    
O2    C6    A    
C74   H25   S    
C16   H12   S    
C12   C24   A    
C10   C22   A    
C11   C19   A    
C44   Cl4   S    
C16   C20   A    
O5    V1    S    
C48   Cl8   S    
C37   O21   S    
C13   C29   A    
C88   H60   S    
C34   C37   A    
O11   C7    A    
O15   V3    S    
C35   C36   A    
C80   H39   S    
O26   C83   S    
C3    C66   S    
C81   H42   S    
C82   H44   S    
C45   Cl5   S    
O10   V2    S    
C4    C65   S    
C77   H32   S    
C61   H17   S    
C39   C43   A    
O7    V3    S    
C38   C42   A    
O8    V4    S    
C53   C70   S    
C79   C80   S    
C50   H14   S    
C76   H30   S    
C64   C68   A    
C58   O26   S    
C49   H13   S    
O18   V4    S    
C86   H55   S    
C23   C27   A    
C46   Cl6   S    
C84   H49   S    
C32   C44   A    
C13   H9    S    
C40   O24   S    
O4    V2    S    
C42   Cl2   S    
C85   C86   S    
C15   H11   S    
C20   H7    S    
C73   H22   S    
O5    C1    A    
C43   Cl3   S    
C77   C78   S    
C53   C57   A    
C31   C43   A    
C14   C30   A    
C21   C25   A    
O8    C4    A    
C84   H50   S    
C57   C61   A    
C88   H59   S    
C26   C34   A    
O9    C5    A    
C2    C67   S    
C26   C30   A    
C83   C84   S    
C79   H36   S    
N2    N6    A    
C75   H27   S    
C37   C41   A    
N1    N5    A    
O6    V2    S    
C45   C65   A    
C88   H58   S    
C80   H40   S    
N3    N7    A    
C81   H41   S    
C82   H45   S    
C47   C67   A    
C78   H35   S    
C73   C74   S    
C27   C35   A    
C24   H3    S    
C40   C44   A    
C64   H20   S    
C29   C41   A    
C77   H31   S    
O16   V4    S    
C19   H8    S    
C47   Cl7   S    
C3    O13   A    
C7    C10   S    
C87   H57   S    
N3    C72   A    
C56   C71   S    
C21   H2    S    
C79   H37   S    
C48   C52   A    
C75   C76   S    
C47   C51   A    
O6    C2    A    
C15   C19   A    
O11   V3    S    
C30   C42   A    
C63   C67   A    
N7    C71   A    
O12   V4    S    
C14   H10   S    
O22   C75   S    
C22   C26   A    
C8    C9    S    
C9    C17   A    
O10   C6    A    
C78   H34   S    
C73   H21   S    
O21   C73   S    
C58   C62   A    
C76   H28   S    
C46   C50   A    
C86   H53   S    
C74   H23   S    
C28   C32   A    
C1    C68   S    
C62   C66   A    
C25   C29   A    
C56   C60   A    
O20   V2    S    
C18   H5    S    
C83   H47   S    
C62   H18   S    
C27   C31   A    
C38   O22   S    
C13   C17   A    
O28   C87   S    
C85   H52   S    
C23   H4    S    
C59   O27   S    
C12   C20   A    
C75   H26   S    
O14   V2    S    
C54   C69   S    
N4    N8    A    
O25   C81   S    
C24   C28   A    
C81   C82   S    
C28   C36   A    
C84   H48   S    
C4    O14   A    
C74   H24   S    
C63   H19   S    
O24   C79   S    
C78   H33   S    
C39   O23   S    
C45   C49   A    
N8    C72   A    
C41   Cl1   S    
