data_mof_unit_35419.cif
_audit_creation_date              2012-12-11T15:20:06-0500
_audit_creation_method            fapswitch 2.2
_symmetry_space_group_name_H-M    P1
_symmetry_Int_Tables_number       1
_space_group_crystal_system       triclinic
_cell_length_a                    16.627458
_cell_length_b                    16.588118
_cell_length_c                    43.037885
_cell_angle_alpha                 89.808465
_cell_angle_beta                  90.005229
_cell_angle_gamma                 120.173971
_cell_volume                      10262.1263291

loop_
_atom_site_label
_atom_site_type_symbol
_atom_type_description
_atom_site_fract_x
_atom_site_fract_y
_atom_site_fract_z
_atom_type_partial_charge
C1    C     C_R   0.584246 0.425809 0.794798 0.573683
C2    C     C_R   0.843450 0.417084 0.705635 0.571722
C3    C     C_R   0.573367 0.156566 0.794684 0.549987
C4    C     C_R   0.583251 0.427204 0.705559 0.558000
C5    C     C_R   0.839859 0.415017 0.795407 0.576067
C6    C     C_R   0.572950 0.155889 0.705784 0.563412
C7    C     C_R   0.426824 0.582671 0.294331 0.573048
C8    C     C_R   0.416229 0.842100 0.205041 0.567151
C9    C     C_R   0.155652 0.572633 0.294348 0.550527
C10   C     C_R   0.426651 0.583275 0.205767 0.582668
C11   C     C_R   0.417219 0.844153 0.294188 0.567210
C12   C     C_R   0.157032 0.573559 0.205157 0.548195
C13   C     C_R   0.031202 0.476299 0.127367 -0.022581
C14   C     C_R   0.439119 0.979303 0.367674 -0.030908
C15   C     C_R   0.530194 0.507852 0.141344 -0.017872
C16   C     C_R   0.043988 0.468390 0.372116 -0.050734
C17   C     C_R   0.432567 0.950439 0.124815 -0.006548
C18   C     C_R   0.539933 0.550186 0.366717 -0.029010
C19   C     C_R   0.459164 0.024450 0.631771 -0.031253
C20   C     C_R   0.936877 0.427813 0.877480 -0.011611
C21   C     C_R   0.579370 0.527620 0.626745 -0.051517
C22   C     C_R   0.476204 0.033355 0.872764 -0.027620
C23   C     C_R   0.998189 0.461765 0.635043 -0.028185
C24   C     C_R   0.560331 0.525027 0.871559 -0.035554
C25   C     C_R   0.068096 0.476848 0.156857 0.217445
C26   C     C_R   0.421428 0.953570 0.336391 0.198444
C27   C     C_R   0.514627 0.530780 0.171258 0.217391
C28   C     C_R   0.065286 0.469954 0.340609 0.196250
C29   C     C_R   0.411097 0.931471 0.156607 0.225675
C30   C     C_R   0.532178 0.574263 0.336065 0.204707
C31   C     C_R   0.467136 0.048855 0.663177 0.197803
C32   C     C_R   0.923665 0.409869 0.845303 0.223033
C33   C     C_R   0.599388 0.527715 0.658275 0.188412
C34   C     C_R   0.475517 0.064089 0.842320 0.210885
C35   C     C_R   0.966444 0.439778 0.665825 0.198814
C36   C     C_R   0.570704 0.518793 0.839385 0.190912
C37   C     C_R   0.091262 0.632383 0.165005 -0.157402
C38   C     C_R   0.510121 0.873728 0.341904 -0.161763
C39   C     C_R   0.386066 0.545632 0.150899 -0.150208
C40   C     C_R   0.101236 0.631181 0.337967 -0.162129
C41   C     C_R   0.514797 0.867666 0.158763 -0.171546
C42   C     C_R   0.363504 0.488050 0.342012 -0.160985
C43   C     C_R   0.635822 0.125533 0.658080 -0.164586
C44   C     C_R   0.841776 0.497032 0.843631 -0.174742
C45   C     C_R   0.469661 0.368507 0.662127 -0.161608
C46   C     C_R   0.635891 0.100084 0.836466 -0.158327
C47   C     C_R   0.855352 0.491220 0.654980 -0.154090
C48   C     C_R   0.534868 0.358485 0.846834 -0.156285
C49   C     C_R   0.052950 0.629571 0.135932 -0.052765
C50   C     C_R   0.529232 0.902230 0.372648 -0.046520
C51   C     C_R   0.402601 0.523621 0.121318 -0.051525
C52   C     C_R   0.071266 0.625434 0.368566 -0.052085
C53   C     C_R   0.536209 0.888305 0.127504 -0.076477
C54   C     C_R   0.372632 0.463946 0.372235 -0.061608
C55   C     C_R   0.626393 0.097906 0.627221 -0.046856
C56   C     C_R   0.855755 0.514288 0.875315 -0.070599
C57   C     C_R   0.445777 0.372883 0.631378 -0.051975
C58   C     C_R   0.633741 0.065549 0.866135 -0.050904
C59   C     C_R   0.888379 0.513792 0.624718 -0.055730
C60   C     C_R   0.524942 0.365619 0.878540 -0.056533
C61   C     C_R   0.024989 0.552687 0.116530 0.183733
C62   C     C_R   0.490189 0.951273 0.386052 0.199057
C63   C     C_R   0.474886 0.504923 0.116260 0.187881
C64   C     C_R   0.047894 0.546043 0.386622 0.193272
C65   C     C_R   0.493252 0.927045 0.110202 0.195140
C66   C     C_R   0.460793 0.497471 0.384993 0.208288
C67   C     C_R   0.538371 0.051159 0.613542 0.195798
C68   C     C_R   0.901841 0.478668 0.892514 0.197284
C69   C     C_R   0.503437 0.450469 0.612843 0.192757
C70   C     C_R   0.555360 0.035352 0.885015 0.182074
C71   C     C_R   0.958172 0.497066 0.614430 0.205850
C72   C     C_R   0.538654 0.449014 0.891180 0.199951
C73   C     C_R   0.873048 0.442935 0.828008 -0.007441
C74   C     C_R   0.557187 0.105691 0.676063 -0.002757
C75   C     C_R   0.558946 0.434601 0.826906 -0.001068
C76   C     C_R   0.891816 0.451941 0.675655 0.000507
C77   C     C_R   0.558873 0.103642 0.824304 -0.018529
C78   C     C_R   0.548933 0.443685 0.675695 -0.007163
C79   C     C_R   0.452405 0.894713 0.323799 -0.003014
C80   C     C_R   0.102638 0.558222 0.175803 -0.019406
C81   C     C_R   0.442324 0.546126 0.323836 -0.001671
C82   C     C_R   0.449352 0.884993 0.173715 -0.007529
C83   C     C_R   0.103256 0.555603 0.323938 -0.007486
C84   C     C_R   0.442036 0.550394 0.175972 0.004089
C85   C     C_R   0.034378 0.620846 0.032906 0.000593
C86   C     C_R   0.546007 0.072546 0.462851 0.036623
C87   C     C_R   0.427120 0.398882 0.037240 0.012745
C88   C     C_R   0.072511 0.618031 0.470652 -0.002959
C89   C     C_R   0.606424 0.024444 0.033528 -0.002073
C90   C     C_R   0.447098 0.392490 0.463218 0.007071
C91   C     C_R   0.557265 0.100570 0.528237 0.012269
C92   C     C_R   0.002533 0.594874 0.968334 -0.006654
C93   C     C_R   0.457325 0.378124 0.528859 0.000503
C94   C     C_R   0.626675 0.053596 0.968554 0.006663
C95   C     C_R   0.050367 0.603477 0.536377 0.027137
C96   C     C_R   0.442049 0.391896 0.971628 0.011180
C97   C     C_R   0.057988 0.621117 0.064551 0.420361
C98   C     C_R   0.540230 0.055788 0.430373 0.450943
C99   C     C_R   0.420783 0.409652 0.069722 0.436211
C100  C     C_R   0.089124 0.619763 0.438235 0.408078
C101  C     C_R   0.584719 0.016475 0.065643 0.436644
C102  C     C_R   0.449324 0.404400 0.430457 0.437478
C103  C     C_R   0.568002 0.112042 0.560884 0.439703
C104  C     C_R   0.992789 0.571605 0.936376 0.436468
C105  C     C_R   0.470081 0.376066 0.561428 0.422729
C106  C     C_R   0.625318 0.074160 0.936663 0.425778
C107  C     C_R   0.035395 0.592578 0.569019 0.456812
C108  C     C_R   0.448382 0.398128 0.938786 0.426601
C109  C     C_R   0.908619 0.487384 0.075024 0.430829
C110  C     C_R   0.454981 0.890442 0.438626 0.447769
C111  C     C_R   0.575863 0.540181 0.070943 0.415785
C112  C     C_R   0.961918 0.464213 0.433550 0.411054
C113  C     C_R   0.450037 0.865695 0.057933 0.444660
C114  C     C_R   0.496464 0.565912 0.436183 0.418095
C115  C     C_R   0.480712 0.946762 0.569185 0.439534
C116  C     C_R   0.841149 0.439505 0.945358 0.413464
C117  C     C_R   0.496691 0.531119 0.566238 0.425154
C118  C     C_R   0.491157 0.923588 0.928103 0.432176
C119  C     C_R   0.938782 0.426685 0.563928 0.428733
C120  C     C_R   0.610047 0.514293 0.941198 0.436494
C121  C     C_R   0.882691 0.482139 0.043213 -0.001626
C122  C     C_R   0.456022 0.902027 0.471277 0.046656
C123  C     C_R   0.590403 0.524688 0.039603 -0.005420
C124  C     C_R   0.962505 0.450694 0.465933 -0.003420
C125  C     C_R   0.465562 0.871978 0.025333 0.025020
C126  C     C_R   0.509410 0.561779 0.468460 0.008434
C127  C     C_R   0.471627 0.929906 0.536691 0.015217
C128  C     C_R   0.850200 0.454889 0.978061 -0.026036
C129  C     C_R   0.507256 0.544153 0.533782 0.007106
C130  C     C_R   0.488267 0.900110 0.960045 -0.000272
C131  C     C_R   0.951886 0.432412 0.531341 0.011147
C132  C     C_R   0.606676 0.516199 0.974205 0.026840
C133  C     C_R   0.950095 0.544924 0.021841 -0.037007
C134  C     C_R   0.504223 0.994281 0.483424 -0.023398
C135  C     C_R   0.512673 0.459639 0.022015 -0.023319
C136  C     C_R   0.013762 0.530330 0.484788 -0.042678
C137  C     C_R   0.541528 0.955067 0.013154 -0.047385
C138  C     C_R   0.479412 0.473013 0.482181 -0.047645
C139  C     C_R   0.510868 0.008232 0.516106 -0.031417
C140  C     C_R   0.934109 0.531465 0.989413 -0.055617
C141  C     C_R   0.481388 0.465011 0.514900 -0.046859
C142  C     C_R   0.552219 0.969426 0.980576 -0.043590
C143  C     C_R   0.005691 0.522128 0.517542 -0.055015
C144  C     C_R   0.520628 0.455554 0.989293 -0.008471
C145  C     C_R   0.093086 0.693596 0.012071 0.000315
C146  C     C_R   0.589760 0.164685 0.475167 0.053921
C147  C     C_R   0.351702 0.328893 0.019736 0.009287
C148  C     C_R   0.115478 0.699875 0.489178 -0.033029
C149  C     C_R   0.690829 0.098754 0.021194 0.015903
C150  C     C_R   0.414585 0.303578 0.477462 0.025286
C151  C     C_R   0.593540 0.178568 0.507572 0.027969
C152  C     C_R   0.077480 0.680278 0.979653 0.024882
C153  C     C_R   0.421223 0.296782 0.510069 -0.005031
C154  C     C_R   0.700814 0.113141 0.988656 -0.006800
C155  C     C_R   0.104519 0.692722 0.521882 0.027047
C156  C     C_R   0.359300 0.325118 0.987140 0.006416
C157  C     C_R   0.792924 0.415099 0.032032 0.012883
C158  C     C_R   0.412334 0.824125 0.491918 0.059224
C159  C     C_R   0.679271 0.575199 0.025272 0.010360
C160  C     C_R   0.914910 0.360442 0.479563 0.010703
C161  C     C_R   0.410686 0.797016 0.004713 0.047049
C162  C     C_R   0.549682 0.643175 0.487314 0.041456
C163  C     C_R   0.422422 0.837705 0.524352 0.024950
C164  C     C_R   0.777148 0.400170 0.999581 -0.006395
C165  C     C_R   0.546973 0.634059 0.519976 0.021320
C166  C     C_R   0.423026 0.810485 0.972142 0.024691
C167  C     C_R   0.911523 0.351315 0.512268 0.042259
C168  C     C_R   0.686706 0.574602 0.992521 0.018040
Cr1   Cr    Cr6+3 0.530290 0.262330 0.750000 1.158860
Cr2   Cr    Cr6+3 0.732040 0.469710 0.750000 1.154939
Cr3   Cr    Cr6+3 0.737670 0.267960 0.750000 1.137289
Cr4   Cr    Cr6+3 0.262330 0.530290 0.250000 1.180155
Cr5   Cr    Cr6+3 0.469710 0.732040 0.250000 1.130325
Cr6   Cr    Cr6+3 0.267960 0.737670 0.250000 1.138706
H1    H     H_    0.802411 0.523452 0.831662 0.171302
H2    H     H_    0.705515 0.167492 0.667236 0.170838
H3    H     H_    0.528757 0.294502 0.838105 0.165211
H4    H     H_    0.797157 0.499466 0.661670 0.170600
H5    H     H_    0.699994 0.126892 0.823404 0.194929
H6    H     H_    0.427398 0.304435 0.674944 0.182812
H7    H     H_    0.536117 0.830142 0.332964 0.177670
H8    H     H_    0.114593 0.694801 0.178722 0.195529
H9    H     H_    0.294248 0.465864 0.333589 0.188462
H10   H     H_    0.546625 0.833298 0.170752 0.169569
H11   H     H_    0.126066 0.696569 0.325670 0.180168
H12   H     H_    0.331122 0.561943 0.154069 0.148160
H13   H     H_    0.828999 0.554147 0.886709 0.175461
H14   H     H_    0.688013 0.117410 0.613413 0.185095
H15   H     H_    0.509063 0.306828 0.893520 0.161185
H16   H     H_    0.856306 0.539775 0.608723 0.148447
H17   H     H_    0.694814 0.065602 0.874913 0.183254
H18   H     H_    0.384426 0.313875 0.621680 0.183437
H19   H     H_    0.570066 0.881528 0.386616 0.176454
H20   H     H_    0.047745 0.688853 0.128053 0.176348
H21   H     H_    0.311134 0.423920 0.386400 0.144668
H22   H     H_    0.583637 0.870585 0.116341 0.154799
H23   H     H_    0.070687 0.684918 0.378577 0.173200
H24   H     H_    0.359853 0.522347 0.102123 0.169881
H25   H     H_    0.009029 0.417020 0.112165 0.206440
H26   H     H_    0.410780 0.018872 0.378219 0.169666
H27   H     H_    0.585333 0.492423 0.137364 0.193703
H28   H     H_    0.024808 0.406074 0.385556 0.149208
H29   H     H_    0.401041 0.982035 0.111104 0.195863
H30   H     H_    0.607725 0.575248 0.377054 0.150350
H31   H     H_    0.391227 0.986648 0.621055 0.175911
H32   H     H_    0.973755 0.401698 0.891080 0.195848
H33   H     H_    0.623694 0.588331 0.612752 0.166334
H34   H     H_    0.415180 0.008609 0.887336 0.206526
H35   H     H_    0.052258 0.449193 0.626647 0.153706
H36   H     H_    0.570024 0.589068 0.881574 0.162000
N1    N     N_R   0.995919 0.554432 0.084891 -0.375228
N2    N     N_R   0.496202 0.966423 0.419114 -0.380815
N3    N     N_R   0.491792 0.483450 0.085275 -0.374052
N4    N     N_R   0.031200 0.544462 0.419836 -0.368663
N5    N     N_R   0.508277 0.937913 0.077133 -0.381565
N6    N     N_R   0.470131 0.488953 0.417860 -0.382748
N7    N     N_R   0.529534 0.036064 0.580448 -0.378423
N8    N     N_R   0.913248 0.495303 0.925554 -0.376969
N9    N     N_R   0.487183 0.451335 0.579732 -0.365371
N10   N     N_R   0.557477 0.010166 0.917169 -0.375260
N11   N     N_R   0.980325 0.505701 0.581859 -0.390790
N12   N     N_R   0.531819 0.455906 0.924373 -0.372241
O1    O     O_R   0.509640 0.171340 0.784000 -0.416773
O2    O     O_R   0.661700 0.490360 0.716000 -0.420958
O3    O     O_R   0.828660 0.338300 0.784000 -0.420093
O4    O     O_R   0.509640 0.171340 0.716000 -0.429571
O5    O     O_R   0.661700 0.490360 0.784000 -0.450547
O6    O     O_R   0.828660 0.338300 0.716000 -0.440860
O7    O     O_R   0.171340 0.509640 0.284000 -0.426907
O8    O     O_R   0.490360 0.661700 0.216000 -0.463658
O9    O     O_R   0.338300 0.828660 0.284000 -0.429021
O10   O     O_R   0.171340 0.509640 0.216000 -0.410347
O11   O     O_R   0.490360 0.661700 0.284000 -0.429975
O12   O     O_R   0.338300 0.828660 0.216000 -0.416316
O13   O     O_R   0.539230 0.345420 0.781810 -0.488343
O14   O     O_R   0.806190 0.460770 0.718190 -0.489285
O15   O     O_R   0.654580 0.193810 0.781810 -0.512043
O16   O     O_R   0.539230 0.345420 0.718190 -0.506185
O17   O     O_R   0.806190 0.460770 0.781810 -0.509771
O18   O     O_R   0.654580 0.193810 0.718190 -0.508781
O19   O     O_R   0.345420 0.539230 0.281810 -0.496751
O20   O     O_R   0.460770 0.806190 0.218190 -0.515727
O21   O     O_R   0.193810 0.654580 0.281810 -0.509607
O22   O     O_R   0.345420 0.539230 0.218190 -0.471107
O23   O     O_R   0.460770 0.806190 0.281810 -0.505601
O24   O     O_R   0.193810 0.654580 0.218190 -0.511683
O25   O     O_3   0.666667 0.333333 0.750000 -0.307483
O26   O     O_3   0.333333 0.666667 0.250000 -0.303693
O27   O     O_2   0.135759 0.677829 0.073765 -0.500056
O28   O     O_2   0.574698 0.120323 0.411814 -0.480536
O29   O     O_2   0.351920 0.354400 0.084382 -0.489994
O30   O     O_2   0.157017 0.686529 0.426607 -0.532025
O31   O     O_2   0.632077 0.080239 0.083420 -0.458366
O32   O     O_2   0.433955 0.340438 0.412962 -0.473085
O33   O     O_2   0.612077 0.189741 0.572225 -0.488820
O34   O     O_2   0.055669 0.618196 0.918091 -0.448069
O35   O     O_2   0.468555 0.308572 0.573437 -0.541706
O36   O     O_2   0.682034 0.150713 0.926366 -0.516657
O37   O     O_2   0.069955 0.660010 0.586226 -0.434609
O38   O     O_2   0.379287 0.353887 0.922717 -0.482074
O39   O     O_2   0.855044 0.430583 0.093874 -0.478168
O40   O     O_2   0.417850 0.812623 0.427224 -0.487358
O41   O     O_2   0.636336 0.606915 0.085101 -0.495805
O42   O     O_2   0.899397 0.405253 0.417548 -0.489674
O43   O     O_2   0.384072 0.796764 0.069434 -0.494365
O44   O     O_2   0.505834 0.637138 0.424269 -0.500149
O45   O     O_2   0.445503 0.882336 0.587763 -0.479428
O46   O     O_2   0.769702 0.376308 0.934278 -0.510823
O47   O     O_2   0.494949 0.590184 0.582630 -0.507644
O48   O     O_2   0.433190 0.868276 0.910039 -0.472481
O49   O     O_2   0.887647 0.351764 0.576507 -0.486003
O50   O     O_2   0.682332 0.564314 0.927190 -0.526794
C169  C     C_2   0.682676 0.329440 0.988630 0.317058
H37   H     H_    0.672744 0.271301 0.974474 0.162589
O51   O     O_2   0.614847 0.335599 0.995606 -0.506497
C170  C     C_2   0.381074 0.753840 0.545039 0.370077
H38   H     H_    0.423941 0.744463 0.561968 0.151913
O52   O     O_2   0.298707 0.694912 0.543375 -0.430950
C171  C     C_2   0.779263 0.632538 0.977793 0.340557
H39   H     H_    0.812440 0.599582 0.965828 0.108171
O53   O     O_2   0.816630 0.717446 0.977744 -0.403413
C172  C     C_2   0.874789 0.257324 0.526378 0.354856
H40   H     H_    0.921475 0.241343 0.539078 0.111536
O54   O     O_2   0.791990 0.199629 0.525374 -0.405181
C173  C     C_2   0.371468 0.729290 0.950921 0.373600
H41   H     H_    0.407285 0.719845 0.931431 0.149980
O55   O     O_2   0.288947 0.673182 0.954752 -0.403104
C174  C     C_2   0.598192 0.719246 0.539323 0.322339
H42   H     H_    0.561539 0.738997 0.555596 0.153237
O56   O     O_2   0.682549 0.768020 0.537009 -0.463348
C175  C     C_2   0.354415 0.727254 0.479913 0.364708
H43   H     H_    0.296642 0.710589 0.464487 0.181959
O57   O     O_2   0.371791 0.666183 0.486825 -0.475567
C176  C     C_2   0.714291 0.362845 0.054191 0.360656
H44   H     H_    0.703003 0.399689 0.072931 0.123542
O58   O     O_2   0.662976 0.278606 0.052091 -0.407781
C177  C     C_2   0.599847 0.738171 0.472968 0.355055
H45   H     H_    0.644203 0.751168 0.452871 0.138023
O59   O     O_2   0.591214 0.802028 0.483156 -0.473735
C178  C     C_2   0.344670 0.702290 0.016870 0.355424
H46   H     H_    0.281543 0.688861 0.028743 0.195618
O60   O     O_2   0.360918 0.638775 0.013540 -0.481914
C179  C     C_2   0.881743 0.276355 0.459486 0.280909
H47   H     H_    0.923939 0.278106 0.439965 0.128339
O61   O     O_2   0.806628 0.206101 0.463822 -0.455912
C180  C     C_2   0.764714 0.617890 0.045068 0.281379
H48   H     H_    0.765804 0.582428 0.066171 0.119530
O62   O     O_2   0.833022 0.692826 0.038717 -0.432086
C181  C     C_2   0.129582 0.759656 0.957784 0.366996
H49   H     H_    0.091337 0.779802 0.942198 0.132383
O63   O     O_2   0.214141 0.799137 0.955692 -0.379387
C182  C     C_2   0.634998 0.275929 0.519455 0.343622
H50   H     H_    0.596412 0.293746 0.535613 0.145897
O64   O     O_2   0.712904 0.336378 0.511571 -0.454312
C183  C     C_2   0.281116 0.248428 0.969557 0.361138
H51   H     H_    0.295026 0.207087 0.953264 0.155077
O65   O     O_2   0.201418 0.232525 0.972630 -0.415177
C184  C     C_2   0.145154 0.780689 0.540004 0.372222
H52   H     H_    0.118903 0.828209 0.536683 0.117255
O66   O     O_2   0.211057 0.802634 0.557333 -0.380677
C185  C     C_2   0.792894 0.183125 0.975730 0.332804
H53   H     H_    0.802161 0.245049 0.963968 0.160133
O67   O     O_2   0.859549 0.171668 0.978495 -0.421512
C186  C     C_2   0.380792 0.202638 0.524495 0.328848
H54   H     H_    0.424919 0.181834 0.536444 0.137047
O68   O     O_2   0.297354 0.147577 0.522869 -0.454741
C187  C     C_2   0.631110 0.248288 0.454457 0.391389
H55   H     H_    0.687779 0.261523 0.438874 0.201224
O69   O     O_2   0.601861 0.302645 0.454744 -0.455396
C188  C     C_2   0.160857 0.787225 0.024742 0.314106
H56   H     H_    0.140404 0.814847 0.044092 0.160414
O70   O     O_2   0.240273 0.832134 0.014911 -0.449717
C189  C     C_2   0.369051 0.216306 0.458699 0.360062
H57   H     H_    0.316256 0.205472 0.441749 0.142118
O71   O     O_2   0.390606 0.156410 0.461878 -0.464328
C190  C     C_2   0.771188 0.156891 0.042059 0.371536
H58   H     H_    0.785244 0.125088 0.061822 0.158331
O72   O     O_2   0.821765 0.240401 0.037584 -0.456530
C191  C     C_2   0.165042 0.793939 0.474125 0.248263
H59   H     H_    0.136845 0.807078 0.453227 0.158493
O73   O     O_2   0.238114 0.856669 0.484515 -0.488845
C192  C     C_2   0.263972 0.258347 0.035087 0.370067
H60   H     H_    0.221405 0.280134 0.047548 0.166404
O74   O     O_2   0.239270 0.175550 0.033904 -0.423922
S1    S     S_3+6 0.068883 0.374286 0.168156 0.064746
O75   O     O_2   0.167523 0.394215 0.169729 -0.261892
O76   O     O_2   0.023590 0.342465 0.199492 -0.192189
O77   O     O_3   0.010048 0.288414 0.142330 -0.501284
H61   H     H_    0.015207 0.234977 0.150165 0.391519
S2    S     S_3+6 0.361619 0.997430 0.314356 0.088043
O78   O     O_2   0.400328 0.020584 0.281914 -0.157438
O79   O     O_2   0.260022 0.925028 0.312852 -0.270015
O80   O     O_3   0.373523 0.094749 0.330823 -0.449636
H62   H     H_    0.321345 0.072886 0.345790 0.355083
S3    S     S_3+6 0.585037 0.532237 0.202231 0.083948
O81   O     O_2   0.650547 0.631594 0.211405 -0.205617
O82   O     O_2   0.524354 0.479896 0.229474 -0.218795
O83   O     O_3   0.646966 0.482152 0.191429 -0.494980
H63   H     H_    0.684761 0.486987 0.209875 0.397741
S4    S     S_3+6 0.036908 0.361822 0.323321 0.074353
O84   O     O_2   0.997522 0.355587 0.291401 -0.159403
O85   O     O_2   0.122413 0.353218 0.320757 -0.290894
O86   O     O_3   0.956783 0.272690 0.344904 -0.460234
H64   H     H_    0.992731 0.258289 0.360046 0.345118
S5    S     S_3+6 0.338066 0.968506 0.173489 0.072875
O87   O     O_2   0.241272 0.886390 0.176583 -0.272117
O88   O     O_2   0.374225 0.009416 0.205027 -0.184527
O89   O     O_3   0.334963 0.049747 0.150839 -0.488957
H65   H     H_    0.291925 0.065453 0.161561 0.395578
S6    S     S_3+6 0.636486 0.639740 0.314635 0.083797
O90   O     O_2   0.623214 0.604645 0.281852 -0.134931
O91   O     O_2   0.662542 0.740659 0.314152 -0.269893
O92   O     O_3   0.723534 0.630238 0.330827 -0.475139
H66   H     H_    0.751788 0.680892 0.346376 0.349611
S7    S     S_3+6 0.362977 0.005692 0.684976 0.092700
O93   O     O_2   0.377092 0.980831 0.717347 -0.158774
O94   O     O_2   0.335508 0.079198 0.686714 -0.267199
O95   O     O_3   0.276724 0.909671 0.668077 -0.441592
H67   H     H_    0.247325 0.932804 0.653229 0.361305
S8    S     S_3+6 0.972992 0.348070 0.828001 0.078362
O96   O     O_2   0.898073 0.248463 0.823141 -0.265751
O97   O     O_2   0.015939 0.391605 0.797236 -0.178450
O98   O     O_3   0.055433 0.350477 0.851284 -0.481996
H68   H     H_    0.077979 0.313237 0.840279 0.396919
S9    S     S_3+6 0.683837 0.635970 0.674468 0.082845
O99   O     O_2   0.652193 0.648200 0.705921 -0.138788
O100  O     O_2   0.775288 0.638958 0.677799 -0.282628
O101  O     O_3   0.698756 0.724863 0.651510 -0.457299
H69   H     H_    0.748409 0.734721 0.636643 0.355021
S10   S     S_3+6 0.368124 0.047547 0.828130 0.069913
O102  O     O_2   0.371151 0.139563 0.826824 -0.266541
O103  O     O_2   0.350391 0.005903 0.796147 -0.176123
O104  O     O_3   0.280542 0.974907 0.851712 -0.489547
H70   H     H_    0.223870 0.970034 0.842326 0.392784
S11   S     S_3+6 0.021818 0.398107 0.690985 0.093037
O105  O     O_2   0.032082 0.439317 0.722789 -0.159980
O106  O     O_2   0.963816 0.293694 0.693415 -0.247874
O107  O     O_3   0.128066 0.427652 0.677360 -0.456910
H71   H     H_    0.117809 0.376986 0.662914 0.351802
S12   S     S_3+6 0.597879 0.616696 0.815736 0.090819
O108  O     O_2   0.700635 0.669208 0.809164 -0.238596
O109  O     O_2   0.546296 0.585470 0.785465 -0.170221
O110  O     O_3   0.567904 0.687782 0.833687 -0.462547
H72   H     H_    0.622132 0.729366 0.846734 0.353557

loop_
_geom_bond_atom_site_label_1
_geom_bond_atom_site_label_2
_ccdc_geom_bond_type
C132  C144  A    
C71   N11   S    
C175  H43   S    
C44   H1    S    
C93   C141  A    
Cr4   O10   S    
Cr6   O26   S    
C179  O61   D    
C189  H57   S    
C100  N4    Am   
C172  H40   S    
C38   H7    S    
C165  C174  S    
C47   C76   A    
C112  C124  A    
C33   C78   A    
C21   C33   A    
C60   C72   A    
C103  O33   D    
C33   S9    S    
C15   H27   S    
C86   C134  A    
C186  H54   S    
C150  C189  S    
C11   O9    A    
C48   C60   A    
C45   C78   A    
C25   S1    S    
C96   C108  A    
C28   C83   A    
C40   C83   A    
C16   H28   S    
Cr6   O12   S    
O89   H65   S    
C163  C170  S    
C188  H56   S    
C2    O6    A    
C11   O23   A    
C114  N6    Am   
C164  C169  S    
C57   H18   S    
C99   O29   D    
C192  H60   S    
C58   C70   A    
C97   O27   D    
Cr3   O15   S    
Cr3   O25   S    
C157  C176  S    
C101  O31   D    
C4    C78   S    
C96   C144  A    
C162  C165  A    
C15   C27   A    
S3    O81   D    
C45   C57   A    
C7    O19   A    
C180  H48   S    
C122  C158  A    
C22   H34   S    
C14   C26   A    
S1    O77   S    
C11   C79   S    
C112  O42   D    
Cr2   O2    S    
Cr1   O16   S    
C1    O13   A    
C116  N8    Am   
O98   H68   S    
C3    C77   S    
C131  C143  A    
C178  H46   S    
Cr6   O24   S    
C120  N12   Am   
C89   C101  A    
C46   H5    S    
C20   C68   A    
C111  N3    Am   
C166  C173  S    
C91   C103  A    
C190  H58   S    
C138  C141  A    
C46   C77   A    
C117  O47   D    
S7    O93   D    
C155  C184  S    
C119  O49   D    
O104  H70   S    
C120  O50   D    
C93   C153  A    
C29   C82   A    
C173  O55   D    
C4    O2    A    
S5    O87   D    
C109  C121  A    
C96   C156  A    
C123  C159  A    
C101  N5    Am   
C41   C82   A    
C124  C160  A    
O77   H61   S    
C5    O3    A    
C117  N9    Am   
C171  O53   D    
S2    O78   D    
C160  C179  S    
C85   C97   A    
C92   C104  A    
C159  C180  S    
C47   C59   A    
Cr3   O6    S    
C185  H53   S    
Cr3   O18   S    
C21   C69   A    
C146  C187  S    
C53   H22   S    
C62   N2    S    
Cr1   O4    S    
O95   H67   S    
C109  N1    Am   
C110  C122  A    
S8    O96   D    
S9    O100  D    
C39   C51   A    
C137  C142  A    
C90   C150  A    
S6    O90   D    
C31   S7    S    
C54   C66   A    
C24   C36   A    
C27   C84   A    
C175  O57   D    
C85   C145  A    
C39   C84   A    
C65   N5    S    
C136  C143  A    
C114  O44   D    
C114  C126  A    
C50   H19   S    
C14   C62   A    
C119  N11   Am   
C182  H50   S    
C107  O37   D    
C30   S6    S    
C17   H29   S    
C122  C134  A    
C184  O66   D    
O101  H69   S    
C105  N9    Am   
C119  C131  A    
C41   H10   S    
C148  C155  A    
C112  N4    Am   
C117  C129  A    
C131  C167  A    
C46   C58   A    
C177  O59   D    
C42   C81   A    
S4    O84   D    
C90   C138  A    
C181  O63   D    
C22   C34   A    
C37   C80   A    
C35   C76   A    
C94   C142  A    
S10   O103  D    
S5    O89   S    
C134  C139  A    
C187  O69   D    
C31   C74   A    
C56   C68   A    
C63   N3    S    
C123  C135  A    
C174  O56   D    
C38   C79   A    
C36   C75   A    
C32   S8    S    
C56   H13   S    
O86   H64   S    
C41   C53   A    
C55   H14   S    
C157  C164  A    
C27   S3    S    
C158  C163  A    
S8    O98   S    
Cr5   O26   S    
C2    O14   A    
C7    C81   S    
C103  N7    Am   
C118  N10   Am   
C9    O21   A    
C24   C72   A    
C20   C32   A    
S7    O95   S    
C102  N6    Am   
C3    O1    A    
Cr1   O13   S    
C35   S11   S    
C110  N2    Am   
C170  O52   D    
S12   O108  D    
C116  O46   D    
Cr4   O7    S    
C43   C55   A    
C18   C66   A    
C172  O54   D    
C128  C140  A    
C12   O24   A    
C169  O51   D    
C66   N6    S    
C130  C142  A    
C145  C152  A    
Cr5   O8    S    
C146  C151  A    
C170  H38   S    
Cr4   O22   S    
C186  O68   D    
C4    O16   A    
C18   H30   S    
C161  C178  S    
C22   C70   A    
S4    O86   S    
C118  O48   D    
C8    O12   A    
C106  N10   Am   
Cr2   O17   S    
C95   C143  A    
C25   C80   A    
C17   C29   A    
C28   S4    S    
C19   C31   A    
O80   H62   S    
C14   H26   S    
C87   C147  A    
C8    C82   S    
C149  C190  S    
C47   H4    S    
C34   C77   A    
C176  H44   S    
S11   O107  S    
C192  O74   D    
C129  C141  A    
C49   H20   S    
C45   H6    S    
C39   H12   S    
Cr5   O20   S    
C126  C138  A    
Cr5   O11   S    
C150  C153  A    
C180  O62   D    
C171  H39   S    
C19   C67   A    
C20   H32   S    
S1    O76   D    
C97   N1    Am   
C147  C192  S    
C89   C149  A    
C36   S12   S    
C183  H51   S    
Cr2   O5    S    
C158  C175  S    
S12   O110  S    
C86   C146  A    
C115  O45   D    
C6    C74   S    
C189  O71   D    
C49   C61   A    
C124  C136  A    
C111  C123  A    
C87   C135  A    
C67   N7    S    
C10   O22   A    
C88   C136  A    
C190  O72   D    
C52   C64   A    
C98   O28   D    
C24   H36   S    
S2    O80   S    
C125  C137  A    
C98   N2    Am   
C102  O32   D    
C149  C154  A    
C173  H41   S    
C118  C130  A    
C51   H24   S    
C23   C71   A    
C37   C49   A    
C43   H2    S    
C44   C56   A    
C191  H59   S    
C51   C63   A    
S2    O79   D    
C147  C156  A    
C104  N8    Am   
C88   C100  A    
C153  C186  S    
C95   C107  A    
C91   C139  A    
C29   S5    S    
C23   C35   A    
Cr2   O25   S    
C34   S10   S    
C109  O39   D    
C92   C140  A    
C2    C76   S    
S8    O97   D    
S9    O99   D    
Cr5   O23   S    
C105  O35   D    
C54   H21   S    
C5    O17   A    
C152  C181  S    
C69   N9    S    
C17   C65   A    
C125  C161  A    
S6    O91   D    
S11   O105  D    
S10   O102  D    
C99   N3    Am   
C26   C79   A    
C129  C165  A    
C30   C81   A    
C187  H55   S    
C42   C54   A    
Cr2   O14   S    
C37   H8    S    
C6    O4    A    
C182  O64   D    
C44   C73   A    
C86   C98   A    
S6    O92   S    
C133  C140  A    
C156  C183  S    
C58   H17   S    
C59   H16   S    
C52   H23   S    
C168  C171  S    
C85   C133  A    
C16   C28   A    
C91   C151  A    
C7    O11   A    
C177  H45   S    
O110  H72   S    
C128  C164  A    
S10   O104  S    
S4    O85   D    
C181  H49   S    
C64   N4    S    
S5    O88   D    
C10   O8    A    
C160  C167  A    
C113  C125  A    
Cr4   O26   S    
C115  C127  A    
C159  C168  A    
C9    O7    A    
C61   N1    S    
C148  C191  S    
C130  C166  A    
C93   C105  A    
C90   C102  A    
C179  H47   S    
C60   H15   S    
C185  O67   D    
C92   C152  A    
C18   C30   A    
C178  O60   D    
Cr6   O9    S    
C161  C166  A    
S9    O101  S    
C1    O5    A    
C43   C74   A    
C151  C182  S    
C121  C157  A    
C5    C73   S    
C48   C75   A    
C13   C25   A    
O83   H63   S    
C127  C139  A    
C48   H3    S    
C12   O10   A    
C87   C99   A    
S7    O94   D    
C88   C148  A    
C183  O65   D    
C1    C75   S    
Cr3   O3    S    
S12   O109  D    
C32   C73   A    
C40   H11   S    
C23   H35   S    
C40   C52   A    
C6    O18   A    
C70   N10   S    
C127  C163  A    
C26   S2    S    
C68   N8    S    
C184  H52   S    
C108  N12   Am   
C8    O20   A    
C94   C154  A    
C72   N12   S    
C169  H37   S    
C188  O70   D    
Cr1   O25   S    
C162  C177  S    
C111  O41   D    
Cr6   O21   S    
C3    O15   A    
C135  C144  A    
C191  O73   D    
C9    C83   S    
Cr4   O19   S    
C50   C62   A    
C108  O38   D    
C113  N5    Am   
C53   C65   A    
C19   H31   S    
C94   C106  A    
C120  C132  A    
C132  C168  A    
C100  O30   D    
C55   C67   A    
C38   C50   A    
C42   H9    S    
C89   C137  A    
C104  O34   D    
C57   C69   A    
C174  H42   S    
C21   H33   S    
O92   H66   S    
C176  O58   D    
S11   O106  D    
Cr1   O1    S    
C12   C80   S    
C10   C84   S    
C95   C155  A    
S3    O82   D    
C145  C188  S    
C113  O43   D    
C110  O40   D    
C167  C172  S    
S3    O83   S    
C13   C61   A    
C116  C128  A    
C106  O36   D    
C15   C63   A    
O107  H71   S    
C115  N7    Am   
C16   C64   A    
C13   H25   S    
C121  C133  A    
S1    O75   D    
C126  C162  A    
C154  C185  S    
C59   C71   A    
C107  N11   Am   
