data_mof_unit_64742.cif
_audit_creation_date              2012-12-10T16:35:08-0500
_audit_creation_method            fapswitch 2.2
_symmetry_space_group_name_H-M    P1
_symmetry_Int_Tables_number       1
_space_group_crystal_system       triclinic
_cell_length_a                    10.850973
_cell_length_b                    10.859187
_cell_length_c                    10.876322
_cell_angle_alpha                 80.811239
_cell_angle_beta                  97.98042
_cell_angle_gamma                 90.126116
_cell_volume                      1252.62747819

loop_
_atom_site_label
_atom_site_type_symbol
_atom_type_description
_atom_site_fract_x
_atom_site_fract_y
_atom_site_fract_z
_atom_type_partial_charge
C1    C     C_R   0.834657 0.471982 0.527596 0.759781
C2    C     C_2   0.469127 0.029330 0.532691 -0.472108
C3    C     C_2   0.533168 0.967577 0.464363 0.519661
C4    C     C_2   0.029506 0.537109 0.463445 -0.485142
C5    C     C_3   0.678847 0.292707 0.999474 0.077845
C6    C     C_3   0.741796 0.187975 0.097655 -0.637963
C7    C     C_2   0.967163 0.459044 0.539403 0.528540
C8    C     C_2   0.475018 0.540099 0.024616 0.360573
C9    C     C_2   0.532977 0.455057 0.973940 0.193785
C10   C     C_R   0.164042 0.527150 0.472818 0.932456
C11   C     C_R   0.522849 0.472295 0.838392 0.817586
C12   C     C_R   0.477048 0.527236 0.160252 0.807384
C13   C     C_R   0.523464 0.834811 0.475907 0.777733
C14   C     C_R   0.476648 0.164047 0.523457 0.921572
F1    F     F_    0.606560 0.025475 0.381740 -0.639755
F2    F     F_    0.023890 0.366198 0.628070 -0.627087
F3    F     F_    0.416162 0.641908 0.950307 -0.662163
H1    H     H_    0.410414 0.979259 0.596470 0.135478
H2    H     H_    0.980071 0.609525 0.393398 0.121142
H3    H     H_    0.749550 0.364828 0.978460 0.140797
H4    H     H_    0.644364 0.253140 0.913073 0.139857
H5    H     H_    0.674262 0.113364 0.119437 0.282652
H6    H     H_    0.820822 0.147688 0.061378 0.192697
H7    H     H_    0.777582 0.224599 0.185248 0.266952
O1    O     O_3   0.500000 0.500000 0.500000 -0.530781
O2    O     O_R   0.597340 0.765700 0.560080 -0.633522
O3    O     O_R   0.548200 0.222430 0.451790 -0.557587
O4    O     O_R   0.441590 0.789440 0.401000 -0.636270
O5    O     O_R   0.412860 0.222430 0.587130 -0.642992
O6    O     O_3   0.578703 0.342750 0.047291 -0.598106
O7    O     O_R   0.441590 0.410520 0.779910 -0.621210
O8    O     O_R   0.548210 0.443940 0.230290 -0.609887
O9    O     O_R   0.787780 0.544200 0.591150 -0.641754
O10   O     O_R   0.222430 0.601350 0.398650 -0.648641
O11   O     O_R   0.767360 0.410530 0.454140 -0.641614
O12   O     O_R   0.222430 0.443930 0.556060 -0.558450
O13   O     O_R   0.597340 0.544190 0.781580 -0.643623
O14   O     O_R   0.412870 0.601350 0.208220 -0.602334
Zn1   Zn    Zn3+2 0.396020 0.396030 0.603970 1.046864
Zn2   Zn    Zn3+2 0.618560 0.587010 0.606350 1.008119
Zn3   Zn    Zn3+2 0.396030 0.620930 0.379070 1.022347
Zn4   Zn    Zn3+2 0.589390 0.396030 0.410610 1.037168

loop_
_geom_bond_atom_site_label_1
_geom_bond_atom_site_label_2
_ccdc_geom_bond_type
O1    Zn4   S    
C13   O4    A    
C14   O3    A    
C2    H1    S    
C8    F3    S    
C3    C13   S    
C8    C12   S    
C6    H7    S    
O5    Zn1   S    
C2    C3    D    
C11   O7    A    
C10   O10   A    
C5    H3    S    
C12   O8    A    
C9    C11   S    
O3    Zn4   S    
O2    Zn2   S    
O10   Zn3   S    
C9    O6    S    
C4    C7    D    
C6    H6    S    
C7    F2    S    
O7    Zn1   S    
O13   Zn2   S    
O1    Zn2   S    
C12   O14   A    
C5    C6    S    
C2    C14   S    
C13   O2    A    
O9    Zn2   S    
C14   O5    A    
C1    O9    A    
C6    H5    S    
O4    Zn3   S    
C3    F1    S    
C1    O11   A    
O14   Zn3   S    
C5    O6    S    
O1    Zn3   S    
C11   O13   A    
O11   Zn4   S    
O8    Zn4   S    
C10   O12   A    
C1    C7    S    
C4    H2    S    
C4    C10   S    
O12   Zn1   S    
O1    Zn1   S    
C8    C9    D    
C5    H4    S    
