data_mof_unit_41354.cif
_audit_creation_date              2012-12-11T17:02:20-0500
_audit_creation_method            fapswitch 2.2
_symmetry_space_group_name_H-M    P1
_symmetry_Int_Tables_number       1
_space_group_crystal_system       triclinic
_cell_length_a                    21.660274
_cell_length_b                    7.067799
_cell_length_c                    14.84624
_cell_angle_alpha                 90.373414
_cell_angle_beta                  106.030036
_cell_angle_gamma                 90.136819
_cell_volume                      2184.37680711

loop_
_atom_site_label
_atom_site_type_symbol
_atom_type_description
_atom_site_fract_x
_atom_site_fract_y
_atom_site_fract_z
_atom_type_partial_charge
O1    O     O_R   0.585850 0.505770 0.002130 -0.537530
O2    O     O_R   0.414150 0.005770 0.997870 -0.537159
O3    O     O_R   0.467530 0.173560 0.861970 -0.538844
O4    O     O_R   0.532470 0.673560 0.138030 -0.538727
C1    C     C_R   0.455521 0.343578 0.825266 0.684814
C2    C     C_R   0.544397 0.845259 0.174627 0.685292
O5    O     O_R   0.588690 0.175900 0.993250 -0.544547
O6    O     O_R   0.411310 0.675900 0.006750 -0.544973
O7    O     O_R   0.536170 0.007950 0.130090 -0.536455
O8    O     O_R   0.463830 0.507950 0.869910 -0.536985
C3    C     C_R   0.615120 0.344818 0.997966 0.689392
C4    C     C_R   0.384871 0.844528 0.001981 0.688862
O9    O     O_3   0.482630 0.339970 0.044740 -0.373312
O10   O     O_3   0.517370 0.839970 0.955260 -0.373443
V1    V     V_3+5 0.503220 0.064200 0.991700 1.409974
V2    V     V_3+5 0.496780 0.564200 0.008300 1.408720
C5    C     C_R   0.277415 0.007593 0.958767 0.113547
C6    C     C_R   0.722920 0.508616 0.041632 0.109353
C7    C     C_R   0.315575 0.852483 0.997637 -0.111662
C8    C     C_R   0.684393 0.353012 0.002221 -0.108330
C9    C     C_R   0.284684 0.700635 0.028648 -0.187555
C10   C     C_R   0.714943 0.200221 0.970942 -0.185421
H1    H     H_    0.311742 0.577002 0.058417 0.138587
H2    H     H_    0.687599 0.076000 0.940893 0.136368
C11   C     C_R   0.219499 0.712170 0.027572 -0.176200
C12   C     C_R   0.780175 0.211325 0.972177 -0.176656
C13   C     C_R   0.183157 0.876299 0.995769 -0.110388
C14   C     C_R   0.816893 0.375890 0.004447 -0.107414
C15   C     C_R   0.213045 0.019413 0.958034 0.104686
C16   C     C_R   0.787331 0.520004 0.042497 0.102392
C17   C     C_3   0.218290 0.226039 0.979440 -0.417834
C18   C     C_3   0.782678 0.726305 0.021750 -0.415027
C19   C     C_3   0.288390 0.213332 0.979769 -0.402472
C20   C     C_3   0.712519 0.714022 0.021260 -0.403782
H3    H     H_    0.188767 0.311545 0.920687 0.176555
H4    H     H_    0.812403 0.812727 0.080803 0.175791
H5    H     H_    0.322463 0.239784 0.049915 0.169689
H6    H     H_    0.678556 0.739307 0.951163 0.170845
H7    H     H_    0.299245 0.290959 0.921004 0.167035
H8    H     H_    0.701828 0.792781 0.080236 0.166365
C21   C     C_R   0.927236 0.879636 0.723735 -0.029060
C22   C     C_R   0.072665 0.389706 0.276632 -0.031566
C23   C     C_R   0.572547 0.857170 0.275860 -0.027342
C24   C     C_R   0.427535 0.347037 0.723763 -0.029836
C25   C     C_R   0.938472 0.823253 0.568717 -0.162343
C26   C     C_R   0.063013 0.449346 0.432321 -0.163105
C27   C     C_R   0.966069 0.844056 0.664702 -0.174408
C28   C     C_R   0.035040 0.435605 0.336161 -0.171956
C29   C     C_R   0.860663 0.894117 0.687024 -0.212620
C30   C     C_R   0.138576 0.358538 0.313211 -0.214137
C31   C     C_R   0.831099 0.871524 0.589758 0.084641
C32   C     C_R   0.168760 0.376861 0.410599 0.084304
C33   C     C_R   0.871602 0.835752 0.530931 0.140652
C34   C     C_R   0.129336 0.422216 0.469829 0.140890
C35   C     C_R   0.763029 0.881361 0.549255 0.059118
C36   C     C_R   0.236540 0.355437 0.450771 0.059244
C37   C     C_R   0.736766 0.855036 0.450300 0.058344
C38   C     C_R   0.263551 0.379596 0.549760 0.058519
C39   C     C_R   0.779429 0.820058 0.395201 -0.187986
C40   C     C_R   0.221844 0.422989 0.605288 -0.188669
C41   C     C_R   0.845285 0.811033 0.434890 -0.202943
C42   C     C_R   0.156284 0.443350 0.565949 -0.203046
C43   C     C_R   0.720365 0.916233 0.604361 -0.188429
C44   C     C_R   0.278232 0.311759 0.395261 -0.189027
C45   C     C_R   0.654515 0.925280 0.564688 -0.203438
C46   C     C_R   0.343803 0.291699 0.434570 -0.203441
C47   C     C_R   0.628198 0.900703 0.468648 0.141267
C48   C     C_R   0.370779 0.313378 0.530649 0.141428
C49   C     C_R   0.668695 0.864971 0.409804 0.083618
C50   C     C_R   0.331352 0.358581 0.589898 0.083358
C51   C     C_R   0.561332 0.913313 0.430889 -0.162218
C52   C     C_R   0.437142 0.286978 0.568096 -0.162964
C53   C     C_R   0.533725 0.892684 0.334909 -0.175721
C54   C     C_R   0.465163 0.301352 0.664216 -0.173106
C55   C     C_R   0.639122 0.842558 0.312535 -0.210227
C56   C     C_R   0.361569 0.377378 0.687252 -0.211992
H9    H     H_    0.876004 0.783451 0.389700 0.121467
H10   H     H_    0.126346 0.477796 0.611436 0.122113
H11   H     H_    0.666081 0.816729 0.262682 0.090744
H12   H     H_    0.335330 0.409081 0.737394 0.093142
H13   H     H_    0.482166 0.905589 0.306566 0.102706
H14   H     H_    0.516108 0.275036 0.692345 0.103399
H15   H     H_    0.623798 0.952792 0.609889 0.120438
H16   H     H_    0.373735 0.257174 0.389085 0.121070
H17   H     H_    0.969426 0.795454 0.523938 0.113145
H18   H     H_    0.032923 0.485051 0.477376 0.113134
H19   H     H_    0.017630 0.831235 0.693059 0.103768
H20   H     H_    0.984133 0.462478 0.307995 0.104539
H21   H     H_    0.833699 0.920019 0.736858 0.088937
H22   H     H_    0.164813 0.326661 0.263092 0.091409
H23   H     H_    0.763722 0.798282 0.320545 0.122473
H24   H     H_    0.238134 0.443215 0.680010 0.122322
H25   H     H_    0.736065 0.937880 0.679018 0.120116
H26   H     H_    0.261925 0.291101 0.320571 0.120098
H27   H     H_    0.530387 0.941072 0.475688 0.113028
H28   H     H_    0.467234 0.251400 0.523025 0.113011
O11   O     O_R   0.036080 0.231270 0.130120 -0.538333
O12   O     O_R   0.963920 0.731270 0.869880 -0.538015
O13   O     O_R   0.911300 0.558970 0.006750 -0.540752
O14   O     O_R   0.088700 0.058970 0.993250 -0.540921
C57   C     C_R   0.884796 0.389732 0.001684 0.689654
C58   C     C_R   0.115221 0.890040 0.998397 0.689117
O15   O     O_R   0.032450 0.561140 0.138040 -0.539899
O16   O     O_R   0.967550 0.061140 0.861960 -0.539639
O17   O     O_R   0.085870 0.728910 0.002130 -0.540934
O18   O     O_R   0.914130 0.228910 0.997870 -0.541181
C59   C     C_R   0.044731 0.393382 0.175104 0.690152
C60   C     C_R   0.955363 0.891674 0.824994 0.690378
O19   O     O_3   0.017320 0.394650 0.955270 -0.372708
O20   O     O_3   0.982680 0.894650 0.044730 -0.372878
V3    V     V_3+5 0.996780 0.670490 0.008300 1.411757
V4    V     V_3+5 0.003220 0.170490 0.991700 1.411146
H29   H     H_    0.198459 0.596164 0.056149 0.131781
H30   H     H_    0.800951 0.094685 0.943310 0.129313
H31   H     H_    0.211741 0.259146 0.049534 0.164925
H32   H     H_    0.789380 0.758065 0.951797 0.166630

loop_
_geom_bond_atom_site_label_1
_geom_bond_atom_site_label_2
_ccdc_geom_bond_type
C23   C53   A    
C46   C48   A    
C43   C45   A    
C21   C60   S    
C13   C15   A    
C5    C15   A    
O1    C3    A    
O2    C4    A    
C2    O7    A    
O18   V4    S    
O5    C3    A    
C19   H7    S    
C20   H8    S    
C18   H4    S    
C10   H2    S    
O15   V3    S    
C7    C9    A    
O19   V3    S    
C52   H28   S    
C37   C39   A    
C51   H27   S    
C38   C40   A    
O12   C60   A    
C58   O17   A    
C40   C42   A    
C53   H13   S    
C24   C56   A    
O20   V3    S    
C18   C20   S    
C33   C41   A    
C14   C57   S    
C30   H22   S    
C41   H9    S    
C45   C47   A    
C35   C43   A    
C30   C32   A    
C28   H20   S    
C6    C16   A    
C22   C59   S    
C47   C51   A    
C48   C52   A    
O5    V1    S    
O17   V3    S    
C25   C33   A    
O6    V2    S    
C5    C19   S    
C54   H14   S    
C17   H31   S    
C32   C34   A    
C25   C27   A    
C23   C55   A    
C26   C28   A    
C3    C8    S    
C39   C41   A    
C52   C54   A    
O19   V4    S    
C51   C53   A    
O11   V4    S    
C38   C50   A    
C22   C28   A    
C34   C42   A    
C31   C35   A    
C29   C31   A    
C19   H5    S    
C31   C33   A    
C44   C46   A    
O4    V2    S    
C25   H17   S    
C12   H30   S    
C11   H29   S    
O6    C4    A    
O13   V3    S    
C26   C34   A    
C17   C19   S    
C21   C27   A    
O1    V2    S    
C39   H23   S    
C18   H32   S    
C24   C54   A    
O2    V1    S    
C6    C20   S    
C22   C30   A    
O4    C2    A    
O13   C57   A    
C1    C24   S    
C8    C10   A    
O14   V4    S    
C2    C23   S    
C9    H1    S    
C50   C56   A    
C17   H3    S    
O16   C60   A    
O3    V1    S    
O16   V4    S    
O14   C58   A    
C57   O18   A    
C9    C11   A    
O12   V3    S    
C20   H6    S    
C42   H10   S    
C56   H12   S    
C29   H21   S    
O3    C1    A    
C11   C13   A    
C21   C29   A    
C43   H25   S    
C13   C58   S    
C12   C14   A    
C37   C49   A    
C35   C37   A    
O7    V1    S    
C44   H26   S    
C1    O8    A    
C15   C17   S    
O8    V2    S    
C16   C18   S    
C36   C44   A    
C4    C7    S    
C14   C16   A    
C5    C7    A    
C36   C38   A    
C49   C55   A    
C6    C8    A    
O20   V4    S    
C45   H15   S    
C46   H16   S    
O11   C59   A    
C48   C50   A    
C10   C12   A    
O9    V2    S    
O10   V1    S    
O15   C59   A    
C47   C49   A    
C40   H24   S    
C55   H11   S    
C32   C36   A    
C27   H19   S    
C26   H18   S    
