data_mof_unit_57052.cif
_audit_creation_date              2013-03-05T16:07:49-0500
_audit_creation_method            fapswitch 2.2
_symmetry_space_group_name_H-M    P1
_symmetry_Int_Tables_number       1
_space_group_crystal_system       triclinic
_cell_length_a                    8.161689
_cell_length_b                    15.151139
_cell_length_c                    18.792148
_cell_angle_alpha                 102.116951
_cell_angle_beta                  91.720633
_cell_angle_gamma                 98.428913
_cell_volume                      2243.05801203

loop_
_atom_site_label
_atom_site_type_symbol
_atom_site_description
_atom_site_fract_x
_atom_site_fract_y
_atom_site_fract_z
_atom_type_partial_charge
P1    P     P_3+3 0.039440 0.410950 0.333260 0.548416
O1    O     O_2   0.871970 0.437290 0.322980 -0.312825
O2    O     O_3   0.121420 0.444460 0.412460 -0.336550
O3    O     O_3   0.661430 0.607560 0.372520 -0.360094
O4    O     O_2   0.785506 0.543788 0.246921 -0.376869
O5    O     O_3   0.998577 0.291428 0.310646 -0.612063
O6    O     O_3   0.702497 0.705332 0.259929 -0.526606
H1    H     H_    0.736160 0.775507 0.367675 0.161032
C1    C     C_3   0.682735 0.863714 0.297386 -0.888628
H2    H     H_    0.814915 0.883208 0.286882 0.292246
H3    H     H_    0.603670 0.861498 0.247710 0.246355
P2    P     P_3+3 0.676740 0.714970 0.563520 0.522214
P3    P     P_3+3 0.126083 0.772261 0.410457 0.508007
O7    O     O_2   0.852280 0.726960 0.542370 -0.375562
O8    O     O_3   0.083990 0.657360 0.410240 -0.368948
O9    O     O_2   0.996137 0.817862 0.457294 -0.377262
O10   O     O_3   0.744131 0.752672 0.656557 -0.575507
O11   O     O_3   0.069026 0.778505 0.321274 -0.439623
C2    C     C_3   0.190115 0.747182 0.275102 0.463814
H4    H     H_    0.226101 0.682740 0.285583 0.037483
H5    H     H_    0.300565 0.801235 0.282179 0.062986
C3    C     C_3   0.121370 0.728219 0.196339 -0.901260
H6    H     H_    0.014723 0.671540 0.186608 0.276088
H7    H     H_    0.079617 0.790358 0.184236 0.265295
C4    C     C_3   0.203239 0.742606 0.622235 0.333199
H8    H     H_    0.323858 0.734846 0.599375 -0.021345
H9    H     H_    0.109400 0.705678 0.579261 0.124352
C5    C     C_3   0.180566 0.842988 0.637854 0.018853
H10   H     H_    0.167090 0.866048 0.585838 0.080775
H11   H     H_    0.065089 0.851155 0.666634 0.209468
Ba1   Ba    Ba6+2 0.853510 0.540900 0.466480 1.648146
C6    C     C_3   0.952816 0.254534 0.370460 0.235453
H12   H     H_    0.844478 0.282632 0.394242 0.103901
H13   H     H_    0.056673 0.270028 0.412475 0.129538
C7    C     C_3   0.908845 0.150974 0.342447 -0.047526
H14   H     H_    0.788157 0.135288 0.310082 0.231114
H15   H     H_    0.004035 0.125160 0.305747 0.122315
C8    C     C_3   0.625773 0.734815 0.705847 0.597596
H16   H     H_    0.499494 0.732950 0.683952 0.009231
C9    C     C_3   0.659453 0.811426 0.775448 -0.126882
H17   H     H_    0.786593 0.813826 0.799558 0.148756
H18   H     H_    0.569400 0.795964 0.816150 0.103363
P4    P     P_3+3 0.150270 0.589130 0.666750 0.514205
O12   O     O_2   0.317740 0.562750 0.677070 -0.338999
O13   O     O_3   0.068290 0.555610 0.587550 -0.399957
O14   O     O_3   0.528280 0.392520 0.627490 -0.341757
O15   O     O_3   0.191697 0.709338 0.686847 -0.561742
P5    P     P_3+3 0.070643 0.226728 0.591981 0.452537
O16   O     O_3   0.609300 0.386850 0.459730 -0.376191
O17   O     O_3   0.105720 0.342720 0.589770 -0.378347
O18   O     O_2   0.196020 0.181164 0.542420 -0.409525
O19   O     O_3   0.133462 0.217757 0.679705 -0.542438
Ba2   Ba    Ba6+2 0.336320 0.459170 0.533530 1.607759
P6    P     P_3+3 0.646632 0.596593 0.278345 0.470810
C10   C     C_3   0.657229 0.770725 0.317510 0.502079
H19   H     H_    0.525209 0.753163 0.328601 -0.032807
H20   H     H_    0.648783 0.916235 0.342765 0.235258
O20   O     O_3   0.580410 0.613230 0.540280 -0.326754
C11   C     C_3   0.442853 0.284572 0.304725 0.208252
H21   H     H_    0.349465 0.320411 0.335830 0.079269
H22   H     H_    0.544705 0.334948 0.292025 0.094086
C12   C     C_3   0.353406 0.228469 0.233328 -0.066775
H23   H     H_    0.249696 0.178601 0.245283 0.111620
H24   H     H_    0.299545 0.275290 0.204135 0.045646
P7    P     P_3+3 0.522117 0.270945 0.436944 0.437086
O21   O     O_2   0.337420 0.273080 0.457680 -0.390425
O22   O     O_3   0.510874 0.226545 0.342578 -0.555327
H25   H     H_    0.219232 0.708477 0.159136 0.213628
C13   C     C_3   0.010890 0.241505 0.728250 0.965293
H26   H     H_    0.947090 0.296187 0.714156 -0.037565
C14   C     C_3   0.092874 0.279508 0.804825 -0.901665
H27   H     H_    0.178931 0.343784 0.805906 0.247535
H28   H     H_    0.996853 0.294555 0.844339 0.221562
H29   H     H_    0.164005 0.229356 0.821677 0.260093
P8    P     P_3+3 0.548689 0.398682 0.720595 0.518289
C15   C     C_3   0.530934 0.224355 0.683328 0.366838
H30   H     H_    0.666378 0.240066 0.678170 0.039336
O23   O     O_2   0.422416 0.458887 0.755383 -0.350269
O24   O     O_3   0.477077 0.290797 0.737503 -0.526346
H31   H     H_    0.464740 0.220319 0.630033 0.142986
H32   H     H_    0.538700 0.078884 0.661801 0.209239
C16   C     C_3   0.493102 0.131620 0.703425 -0.682105
H33   H     H_    0.357275 0.112133 0.706082 0.260127
H34   H     H_    0.555485 0.134111 0.757298 0.287177
C17   C     C_R   0.988661 0.462181 0.046951 -0.061754
C18   C     C_R   0.885529 0.417024 0.091234 0.003837
C19   C     C_R   0.719968 0.381238 0.066388 -0.079057
C20   C     C_R   0.659733 0.386468 0.997501 -0.203586
C21   C     C_R   0.764292 0.426383 0.951363 0.116832
C22   C     C_R   0.928558 0.465683 0.976144 0.048534
C23   C     C_R   0.707585 0.424886 0.880209 -0.211259
C24   C     C_R   0.813696 0.459985 0.831553 -0.015399
C25   C     C_R   0.976132 0.504725 0.857078 0.007839
C26   C     C_R   0.032949 0.506885 0.929743 -0.015274
C27   C     C_R   0.763196 0.449308 0.757585 0.230992
C28   C     C_R   0.875373 0.481053 0.709840 -0.360456
C29   C     C_R   0.028029 0.535716 0.735086 0.259910
C30   C     C_R   0.081676 0.546623 0.810191 -0.052989
C31   C     C_R   0.153087 0.500293 0.071996 0.010676
C32   C     C_R   0.213423 0.496579 0.143075 -0.032289
C33   C     C_R   0.108433 0.452185 0.188934 -0.267319
C34   C     C_R   0.949300 0.405318 0.158454 0.529173
H35   H     H_    0.635908 0.349433 0.100363 0.203727
H36   H     H_    0.531998 0.357423 0.979723 0.152672
H37   H     H_    0.838687 0.467844 0.652339 0.178548
H38   H     H_    0.581326 0.393210 0.862962 0.179641
C35   C     C_R   0.238542 0.595005 0.839802 -0.117679
C36   C     C_R   0.297765 0.592946 0.910645 0.099315
C37   C     C_R   0.195475 0.547813 0.955476 0.007253
C38   C     C_R   0.256062 0.543806 0.026218 0.033026
C39   C     C_R   0.459627 0.634020 0.937115 -0.135904
C40   C     C_R   0.521243 0.627693 0.005828 -0.188807
C41   C     C_R   0.420375 0.582814 0.050748 0.103536
C42   C     C_R   0.379244 0.536878 0.167507 -0.044190
C43   C     C_R   0.481391 0.577638 0.120004 -0.205764
C44   C     C_R   0.437593 0.536988 0.239159 0.050440
C45   C     C_R   0.330093 0.498688 0.286013 0.108274
C46   C     C_R   0.166326 0.457982 0.263089 0.217529
H39   H     H_    0.318911 0.631660 0.807457 0.166403
H40   H     H_    0.539462 0.670628 0.904559 0.175830
H41   H     H_    0.647746 0.658793 0.024151 0.147193
H42   H     H_    0.609520 0.606236 0.136114 0.183400
C47   C     C_R   0.341855 0.821881 0.449033 0.162035
H43   H     H_    0.379378 0.691054 0.468246 0.197546
C48   C     C_R   0.580448 0.794451 0.518054 0.246247
C49   C     C_R   0.762601 0.232894 0.528890 -0.499049
C50   C     C_R   0.856136 0.176628 0.556717 0.248295
C51   C     C_R   0.793921 0.083359 0.549066 -0.169919
C52   C     C_R   0.637683 0.044490 0.510735 0.071732
C53   C     C_R   0.550770 0.102990 0.478977 0.008059
C54   C     C_R   0.567861 0.949440 0.500066 -0.037278
C55   C     C_R   0.412175 0.915653 0.458102 -0.097337
C56   C     C_R   0.334072 0.976006 0.425440 0.485415
C57   C     C_R   0.403810 0.067055 0.436509 -0.263489
C58   C     C_R   0.647123 0.887111 0.530420 -0.227255
C59   C     C_R   0.431495 0.762547 0.476023 -0.522556
C60   C     C_R   0.614524 0.196741 0.488010 0.273766
H44   H     H_    0.760096 0.908465 0.564671 0.173070
H45   H     H_    0.811760 0.304372 0.533835 0.158662
H46   H     H_    0.872941 0.043029 0.570757 0.144937
H47   H     H_    0.338135 0.109505 0.410542 0.169345
O25   O     O_3   0.314913 0.897499 0.681548 -0.658972
H48   H     H_    0.406552 0.905612 0.648802 0.328834
O26   O     O_3   0.896117 0.105314 0.399775 -0.746528
H49   H     H_    0.011034 0.106591 0.419092 0.343241
N1    N     N_R   0.642198 0.646896 0.722557 0.206884
O27   O     O_R   0.683445 0.639195 0.788142 -0.510814
O28   O     O_R   0.637995 0.577243 0.668747 -0.343263
N2    N     N_R   0.645518 0.900956 0.760662 0.267871
O29   O     O_R   0.551902 0.952325 0.799553 -0.318369
O30   O     O_R   0.746592 0.935966 0.718049 -0.410522
N3    N     N_R   0.466254 0.179443 0.187115 0.290328
O31   O     O_R   0.490487 0.194686 0.122396 -0.383532
O32   O     O_R   0.526122 0.112348 0.206381 -0.354042
O33   O     O_3   0.892841 0.164221 0.728422 -0.789247
H50   H     H_    0.954478 0.114515 0.735419 0.358990
O34   O     O_3   0.859627 0.341000 0.189406 -0.703372
H51   H     H_    0.926750 0.290838 0.184806 0.332634
O35   O     O_3   0.383707 0.501018 0.356405 -0.691136
H52   H     H_    0.482892 0.470353 0.353606 0.331602
O36   O     O_3   0.190600 0.945899 0.380997 -0.712916
H53   H     H_    0.163434 0.993717 0.355826 0.313091

loop_
_geom_bond_atom_site_label_1
_geom_bond_atom_site_label_2
_geom_bond_distance
_ccdc_geom_bond_type
C58   H44   1.076389 S    
O5    C6    1.393997 S    
C10   H19   1.108143 S    
C49   C60   1.387208 A    
C25   C26   1.421097 A    
C47   C55   1.424929 A    
C45   O35   1.372471 S    
C27   C28   1.405703 A    
C15   O24   1.403370 S    
O6    C10   1.403662 S    
O7    Ba1   2.881356 S    
C28   H37   1.081465 S    
C51   C52   1.427706 A    
H32   C16   1.109522 S    
P8    C27   1.856347 S    
C17   C18   1.407624 A    
C44   C45   1.411885 A    
C4    C5    1.527056 S    
C52   C54   1.438828 A    
C13   O33   1.403723 S    
O16   P7    1.753056 S    
P3    O11   1.751352 S    
C33   C46   1.438690 A    
Ba1   O20   2.890724 S    
C5    H10   1.112582 S    
C2    H5    1.109807 S    
O11   C2    1.403892 S    
C54   C58   1.420831 A    
N2    O30   1.301101 A    
C8    H16   1.092451 S    
P3    C47   1.870415 S    
C29   C30   1.433447 A    
P1    Ba1   3.388444 S    
C36   C37   1.411054 A    
H1    C10   1.109123 S    
P1    O1    1.497083 D    
C13   C14   1.526882 S    
C8    N1    1.454792 S    
C12   H24   1.112545 S    
O19   C13   1.408912 S    
C11   O22   1.403245 S    
O3    P6    1.741283 S    
O12   Ba2   2.842382 S    
P4    Ba2   3.389062 S    
P5    O18   1.544509 D    
C39   C40   1.398766 A    
C55   C56   1.415018 A    
P7    O22   1.754130 S    
P6    C44   1.860728 S    
P2    O10   1.765353 S    
C35   C36   1.410734 A    
C1    C10   1.521105 S    
C21   C23   1.396305 A    
C1    H2    1.110806 S    
C4    O15   1.409655 S    
C7    O26   1.395890 S    
O10   C8    1.395216 S    
P2    O20   1.589490 S    
C48   C58   1.397335 A    
P5    O17   1.748156 S    
O13   Ba2   2.898065 S    
C11   H21   1.110097 S    
C43   H42   1.079846 S    
O34   H51   0.991235 S    
C40   C41   1.404021 A    
C23   H38   1.080248 S    
C53   C57   1.393076 A    
Ba1   O16   2.816594 S    
C34   O34   1.370416 S    
C35   H39   1.080281 S    
O14   P8    1.734100 S    
C20   H36   1.083982 S    
C33   C34   1.425953 A    
C22   C26   1.411803 A    
N1    O28   1.294892 A    
C49   H45   1.081928 S    
C11   H22   1.110377 S    
O17   Ba2   2.775057 S    
H43   C59   1.081820 S    
P1    O5    1.749998 S    
C6    C7    1.531219 S    
C15   H31   1.109409 S    
O4    P6    1.543118 D    
C2    C3    1.520684 S    
C32   C42   1.420557 A    
C15   H30   1.107725 S    
C15   C16   1.521407 S    
C23   C24   1.409085 A    
C14   H28   1.110764 S    
C18   C19   1.406746 A    
P2    C48   1.861965 S    
C4    H8    1.098021 S    
C31   C38   1.414257 A    
O8    Ba1   2.774563 S    
C24   C27   1.407071 A    
C30   C35   1.413150 A    
C39   H40   1.080251 S    
P1    O2    1.563324 S    
C7    H14   1.109667 S    
C6    H13   1.104841 S    
P4    O12   1.497460 D    
C12   H23   1.110415 S    
C17   C31   1.405949 A    
P4    O13   1.563336 S    
O35   H52   0.988177 S    
P5    O19   1.750052 S    
Ba2   O20   2.816129 S    
C28   C29   1.400137 A    
Ba1   Ba2   4.520653 S    
O2    Ba1   2.897244 S    
Ba2   O21   2.881366 S    
C1    H3    1.110536 S    
C38   C41   1.405847 A    
C3    H25   1.109946 S    
C12   N3    1.460145 S    
C19   H35   1.081244 S    
C48   C59   1.394715 A    
C9    H17   1.112273 S    
N3    O32   1.301049 A    
P7    O21   1.571482 D    
C16   H34   1.110382 S    
P3    O8    1.723464 S    
P2    Ba1   3.408380 S    
C56   C57   1.382925 A    
C3    H7    1.110634 S    
C5    O25   1.398001 S    
C50   C51   1.405494 A    
C18   C34   1.407012 A    
N1    O27   1.301116 A    
C11   C12   1.528441 S    
C7    H15   1.113663 S    
O25   H48   0.992795 S    
P4    C29   1.891031 S    
P2    O7    1.493925 D    
O26   H49   0.991528 S    
C56   O36   1.378949 S    
C14   H29   1.110853 S    
C42   C44   1.414269 A    
C17   C22   1.418459 A    
C36   C39   1.403385 A    
C42   C43   1.413691 A    
C4    H9    1.095137 S    
C26   C37   1.404424 A    
C45   C46   1.401681 A    
C31   C32   1.424783 A    
C47   C59   1.400931 A    
C6    H12   1.103184 S    
C2    H4    1.113399 S    
C5    H11   1.110316 S    
C52   C53   1.423339 A    
P7    C60   1.847101 S    
C40   H41   1.083755 S    
O36   H53   0.991191 S    
N2    O29   1.301066 A    
P5    C50   1.846618 S    
C8    C9    1.543102 S    
O2    Ba2   2.781236 S    
P4    O15   1.759849 S    
C49   C50   1.391735 A    
O16   Ba2   2.889840 S    
O14   Ba2   2.763752 S    
C9    H18   1.112943 S    
C24   C25   1.417412 A    
C9    N2    1.460046 S    
C1    H20   1.109595 S    
P1    C46   1.891906 S    
C51   H46   1.076928 S    
C13   H26   1.112659 S    
P8    O23   1.545082 D    
O3    Ba1   2.764429 S    
C14   H27   1.110164 S    
C20   C21   1.399646 A    
C19   C20   1.392857 A    
C16   H33   1.110030 S    
Ba1   O13   2.780650 S    
P3    O9    1.546747 D    
O33   H50   0.993071 S    
C3    H6    1.110817 S    
O1    Ba1   2.841761 S    
C32   C33   1.431114 A    
N3    O31   1.300217 A    
O6    P6    1.752306 S    
C41   C43   1.401194 A    
C21   C22   1.407451 A    
C37   C38   1.420810 A    
C53   C60   1.412096 A    
P8    O24   1.750289 S    
C25   C30   1.428793 A    
C54   C55   1.441586 A    
C57   H47   1.075271 S    
