data_mof_unit_43661.cif
_audit_creation_date              2012-10-26T19:35:35-0400
_audit_creation_method            fapswitch 2.2
_symmetry_space_group_name_H-M    P1
_symmetry_Int_Tables_number       1
_space_group_crystal_system       triclinic
_cell_length_a                    15.860163
_cell_length_b                    10.820501
_cell_length_c                    9.554302
_cell_angle_alpha                 90.000858
_cell_angle_beta                  89.616804
_cell_angle_gamma                 90.102173
_cell_volume                      1639.62139634

loop_
_atom_site_label
_atom_site_type_symbol
_atom_type_description
_atom_site_fract_x
_atom_site_fract_y
_atom_site_fract_z
_atom_type_partial_charge
C1    C     C_R   0.498533 0.262343 0.499979 0.543510
C2    C     C_R   0.490376 0.129209 0.499881 0.007466
C3    C     C_R   0.478496 0.064375 0.373956 -0.159724
C4    C     C_R   0.339844 0.500109 0.500409 0.547852
C5    C     C_R   0.478656 0.935531 0.373935 -0.161466
C6    C     C_R   0.490665 0.870777 0.499842 0.008470
C7    C     C_R   0.490775 0.936394 0.625574 0.029036
C8    C     C_3   0.550487 0.930197 0.745628 -0.272183
C9    C     C_3   0.550093 0.070537 0.745873 -0.265857
C10   C     C_R   0.546139 0.585503 0.072738 0.175219
C11   C     C_R   0.449713 0.421728 0.074967 0.009781
C12   C     C_3   0.082804 0.501819 0.500085 0.069495
C13   C     C_R   0.450016 0.421292 0.926152 0.002276
C14   C     C_R   0.544280 0.587694 0.925474 0.117517
C15   C     C_3   0.636556 0.610869 0.914527 -0.236987
C16   C     C_R   0.498703 0.737665 0.499952 0.541633
C17   C     C_3   0.639975 0.602504 0.073247 0.127549
C18   C     C_R   0.660151 0.500155 0.499759 0.547488
C19   C     C_3   0.971198 0.494855 0.632436 -0.100094
C20   C     C_3   0.027694 0.396974 0.559706 -0.112896
C21   C     C_1   0.250116 0.500792 0.501373 0.002959
C22   C     C_1   0.749865 0.500533 0.499703 -0.042892
C23   C     C_3   0.971751 0.606281 0.439963 -0.124586
C24   C     C_3   0.027560 0.599739 0.572619 -0.113024
C25   C     C_3   0.769034 0.513910 0.120350 -0.007979
C26   C     C_3   0.813038 0.390652 0.141280 -0.360135
C27   C     C_2   0.057671 0.516545 0.220220 0.211122
C28   C     C_3   0.917097 0.501162 0.499844 0.032449
C29   C     C_3   0.027947 0.508101 0.369078 0.051749
C30   C     C_3   0.971934 0.403071 0.427011 -0.121240
C31   C     C_1   0.174544 0.501400 0.501444 -0.000864
C32   C     C_1   0.825439 0.500851 0.500044 -0.077701
C33   C     C_R   0.490560 0.063577 0.625610 0.019614
Cu1   Cu    Cu3+1 0.500000 0.499980 0.640670 0.941915
Cu2   Cu    Cu3+1 0.500000 0.500020 0.359330 0.991062
H1    H     H_    0.051712 0.311225 0.609092 0.110529
H2    H     H_    0.946378 0.489342 0.741199 0.106140
H3    H     H_    0.948366 0.322140 0.367465 0.098875
H4    H     H_    0.947636 0.691785 0.390124 0.095795
H5    H     H_    0.051453 0.680270 0.632531 0.112392
H6    H     H_    0.473092 0.112511 0.275026 0.133564
H7    H     H_    0.473358 0.887372 0.274984 0.134362
H8    H     H_    0.520710 0.889294 0.840613 0.136799
H9    H     H_    0.785475 0.576593 0.208346 0.132672
H10   H     H_    0.792884 0.554680 0.020526 0.105869
H11   H     H_    0.797701 0.327187 0.053669 0.153298
H12   H     H_    0.612545 0.890059 0.715706 0.129314
H13   H     H_    0.882254 0.404714 0.143718 0.076598
H14   H     H_    0.792216 0.347856 0.241342 0.165280
H15   H     H_    0.012068 0.525464 0.136848 0.082705
H16   H     H_    0.519878 0.110630 0.840846 0.138695
H17   H     H_    0.611956 0.111957 0.716486 0.140446
H18   H     H_    0.410190 0.356731 0.131185 0.117140
H19   H     H_    0.410903 0.355740 0.870839 0.117941
H20   H     H_    0.671107 0.535100 0.860831 0.179173
H21   H     H_    0.650832 0.704979 0.874318 0.065884
H22   H     H_    0.659455 0.688985 0.127720 0.077663
N1    N     N_R   0.500530 0.500930 0.147930 -0.209347
N2    N     N_R   0.500530 0.500890 0.852020 -0.229726
O1    O     O_R   0.500000 0.319640 0.618810 -0.505673
O2    O     O_2   0.132756 0.514155 0.191813 -0.501475
O3    O     O_R   0.500010 0.319680 0.381230 -0.507729
O4    O     O_R   0.379070 0.499970 0.618770 -0.502105
O5    O     O_R   0.379080 0.500010 0.381190 -0.488224
O6    O     O_R   0.499990 0.680320 0.618770 -0.496475
O7    O     O_R   0.500000 0.680360 0.381190 -0.518024
O8    O     O_R   0.620920 0.499990 0.618810 -0.514577
O9    O     O_R   0.620930 0.500030 0.381230 -0.441905
O10   O     O_3   0.681127 0.493666 0.117257 -0.516405

loop_
_geom_bond_atom_site_label_1
_geom_bond_atom_site_label_2
_ccdc_geom_bond_type
Cu1   O8    S    
Cu1   O1    S    
C23   C24   S    
C27   H15   S    
C17   O10   S    
C6    C7    A    
C13   N2    A    
C7    C33   A    
C12   C29   S    
C27   C29   S    
C11   N1    A    
C21   C31   T    
C4    O5    A    
C19   C20   S    
C11   H18   S    
C8    H8    S    
C26   H13   S    
C27   O2    D    
C5    H7    S    
C1    O3    A    
C12   C20   S    
C28   C30   S    
C19   C24   S    
C25   C26   S    
C8    H12   S    
C7    C8    S    
C20   C30   S    
C23   C28   S    
C15   H21   S    
C9    C33   S    
C4    C21   S    
C11   C13   A    
C4    O4    A    
Cu2   O5    S    
C9    H17   S    
C22   C32   T    
Cu2   O9    S    
Cu2   N1    S    
C23   H4    S    
C23   C29   S    
C2    C33   A    
Cu1   O4    S    
C10   N1    A    
C15   H20   S    
Cu1   Cu2   S    
Cu2   O3    S    
C2    C3    A    
C12   C31   S    
Cu1   O6    S    
C5    C6    A    
C26   H14   S    
C25   O10   S    
C26   H11   S    
C10   C17   S    
C29   C30   S    
C19   C28   S    
C20   H1    S    
C25   H10   S    
C28   C32   S    
C16   O7    A    
C30   H3    S    
C15   C17   S    
C13   H19   S    
C10   C14   A    
C1    O1    A    
C25   H9    S    
C1    C2    S    
C12   C24   S    
C14   C15   S    
C3    H6    S    
C16   O6    A    
C19   H2    S    
Cu2   O7    S    
C24   H5    S    
C18   O8    A    
C18   C22   S    
Cu1   N2    S    
C6    C16   S    
C14   N2    A    
C18   O9    A    
C17   H22   S    
C8    C9    S    
C3    C5    A    
C9    H16   S    
