data_mof_unit_59650.cif
_audit_creation_date              2012-12-11T17:00:23-0500
_audit_creation_method            fapswitch 2.2
_symmetry_space_group_name_H-M    P1
_symmetry_Int_Tables_number       1
_space_group_crystal_system       triclinic
_cell_length_a                    6.962236
_cell_length_b                    13.641552
_cell_length_c                    20.229254
_cell_angle_alpha                 103.168842
_cell_angle_beta                  90.250253
_cell_angle_gamma                 90.367319
_cell_volume                      1870.69147089

loop_
_atom_site_label
_atom_site_type_symbol
_atom_type_description
_atom_site_fract_x
_atom_site_fract_y
_atom_site_fract_z
_atom_type_partial_charge
O1    O     O_R   0.506770 0.599700 0.449550 -0.538238
O2    O     O_R   0.179980 0.595740 0.587960 -0.526829
O3    O     O_R   0.004580 0.400300 0.550450 -0.543101
C1    C     C_R   0.348420 0.616724 0.615308 0.745860
O4    O     O_R   0.177380 0.611700 0.452380 -0.540171
O5    O     O_R   0.001970 0.416370 0.413900 -0.546916
C2    C     C_R   0.346639 0.637344 0.435013 0.705857
O6    O     O_R   0.509390 0.583630 0.586100 -0.541973
O7    O     O_3   0.337530 0.435890 0.487530 -0.381082
V1    V     V_3+5 0.064660 0.511890 0.502310 1.469626
O8    O     O_R   0.671950 0.404260 0.412040 -0.545430
C3    C     C_R   0.840315 0.382264 0.385070 0.706523
O9    O     O_R   0.674540 0.388300 0.547620 -0.545608
C4    C     C_R   0.843739 0.361946 0.564446 0.706217
V2    V     V_3+5 0.564030 0.488110 0.497690 1.437889
O10   O     O_3   0.841030 0.564110 0.512470 -0.355161
C5    C     C_R   0.958952 0.117257 0.610770 0.499366
H1    H     H_    0.953344 0.170692 0.518556 0.121388
C6    C     C_R   0.857157 0.284159 0.603524 -0.088856
C7    C     C_R   0.775531 0.308250 0.928386 -0.262222
C8    C     C_R   0.731851 0.380898 0.891710 0.496729
C9    C     C_R   0.759633 0.358536 0.821575 -0.205073
C10   C     C_R   0.838658 0.265657 0.786630 0.034197
C11   C     C_R   0.887668 0.193992 0.825147 -0.016356
C12   C     C_R   0.865062 0.240601 0.714530 -0.027696
C13   C     C_R   0.936379 0.143582 0.682275 -0.094489
C14   C     C_R   0.984917 0.075074 0.722038 0.654870
C15   C     C_R   0.961891 0.100327 0.791920 -0.302381
C16   C     C_R   0.825828 0.309492 0.673425 -0.186253
C17   C     C_R   0.924235 0.188940 0.572553 -0.276052
C18   C     C_R   0.854312 0.215859 0.896053 -0.105146
H2    H     H_    0.779456 0.385353 0.694268 0.098456
H3    H     H_    0.740985 0.321811 0.981846 0.107334
H4    H     H_    0.713819 0.415525 0.796028 0.124169
H5    H     H_    0.001862 0.044581 0.819823 0.149159
C19   C     C_R   0.718826 0.174456 0.229970 -0.011404
C20   C     C_R   0.868480 0.181904 0.185259 -0.192951
C21   C     C_R   0.015894 0.252877 0.209345 0.451733
C22   C     C_R   0.010051 0.314109 0.275635 -0.262179
H6    H     H_    0.123910 0.368799 0.291977 0.135974
C23   C     C_R   0.851675 0.311323 0.317955 -0.157041
C24   C     C_R   0.709172 0.238743 0.294505 0.083205
C25   C     C_3   0.499277 0.254612 0.287831 -0.367802
C26   C     C_3   0.510411 0.185512 0.217865 -0.312147
H7    H     H_    0.464637 0.333659 0.286694 0.172087
H8    H     H_    0.413981 0.222361 0.324209 0.164829
H9    H     H_    0.490089 0.224113 0.175704 0.218851
H10   H     H_    0.427425 0.114645 0.213407 0.165208
C27   C     C_R   0.489369 0.761983 0.701795 0.095505
C28   C     C_R   0.351801 0.685542 0.683333 -0.212128
C29   C     C_R   0.202889 0.682002 0.729833 -0.191083
H11   H     H_    0.089213 0.626368 0.716386 0.122098
C30   C     C_R   0.205893 0.745277 0.795892 0.459545
C31   C     C_R   0.353930 0.817693 0.815259 -0.170061
C32   C     C_R   0.489711 0.826684 0.765896 -0.041202
C33   C     C_3   0.703479 0.828224 0.769860 -0.411969
C34   C     C_3   0.703019 0.756852 0.700149 0.541630
H12   H     H_    0.755787 0.793398 0.810881 0.186363
H13   H     H_    0.764008 0.903847 0.770314 0.216762
H14   H     H_    0.759746 0.680607 0.699241 0.021216
C35   C     C_R   0.483612 0.876083 0.385516 -0.169592
H15   H     H_    0.471933 0.827923 0.479065 0.132911
H16   H     H_    0.569879 0.990468 0.300299 0.128404
H17   H     H_    0.545479 0.948522 0.409806 0.112313
C36   C     C_R   0.362008 0.713921 0.395167 -0.042577
C37   C     C_R   0.268788 0.692682 0.070123 -0.249144
C38   C     C_R   0.230200 0.617605 0.105118 0.503508
C39   C     C_R   0.262091 0.637712 0.175352 -0.234445
C40   C     C_R   0.343171 0.730465 0.211164 0.013518
C41   C     C_R   0.393786 0.803062 0.173383 0.063020
C42   C     C_R   0.372236 0.754646 0.283245 0.101993
C43   C     C_R   0.452942 0.850018 0.315079 0.144173
C44   C     C_R   0.505912 0.918317 0.276448 -0.210416
C45   C     C_R   0.478086 0.895007 0.206758 -0.186625
C46   C     C_R   0.326251 0.687555 0.325084 -0.225569
C47   C     C_R   0.440260 0.808069 0.425136 -0.152847
C48   C     C_R   0.352333 0.783825 0.103100 -0.142326
H18   H     H_    0.270024 0.612936 0.304696 0.092913
H19   H     H_    0.227975 0.681622 0.017257 0.110189
H20   H     H_    0.220272 0.579418 0.200420 0.117224
H21   H     H_    0.523596 0.949944 0.179040 0.123028
O11   O     O_R   0.203450 0.916320 0.913910 -0.516853
O12   O     O_R   0.535520 0.888300 0.047620 -0.547997
O13   O     O_R   0.710860 0.083650 0.086100 -0.550767
C49   C     C_R   0.366492 0.862645 0.064861 0.709709
O14   O     O_R   0.532860 0.904250 0.912040 -0.547976
O15   O     O_R   0.708190 0.099710 0.949550 -0.538961
C50   C     C_R   0.363995 0.883256 0.884616 0.749849
O16   O     O_R   0.206120 0.900260 0.050460 -0.537749
O17   O     O_3   0.375280 0.064080 0.012470 -0.372877
V3    V     V_3+5 0.648180 0.988110 0.997690 1.435933
O18   O     O_R   0.038220 0.111740 0.952370 -0.546257
C51   C     C_R   0.868934 0.137951 0.935426 0.704358
O19   O     O_R   0.040880 0.095790 0.087940 -0.515952
C52   C     C_R   0.872989 0.116640 0.115505 0.717024
V4    V     V_3+5 0.148800 0.011950 0.002300 1.480142
O20   O     O_3   0.871820 0.935920 0.987530 -0.364260
O21   O     O_3   0.066864 0.734522 0.842193 -0.559585
C53   C     C_3   0.109089 0.649186 0.867657 -0.293498
H22   H     H_    0.259537 0.650897 0.886989 0.129384
H23   H     H_    0.081055 0.578619 0.828686 0.144103
H24   H     H_    0.012726 0.649484 0.911025 0.168570
F1    F     F_    0.056597 0.982691 0.693919 -0.618363
F2    F     F_    0.778034 0.800925 0.650582 -0.637366
O22   O     O_3   0.137556 0.529021 0.073545 -0.579581
C54   C     C_3   0.248099 0.476260 0.018565 -0.309951
H25   H     H_    0.254353 0.515672 0.976294 0.167949
H26   H     H_    0.178440 0.402188 0.997830 0.165190
H27   H     H_    0.395065 0.461605 0.035491 0.160623
O23   O     O_3   0.031425 0.024446 0.578685 -0.518785
C55   C     C_3   0.881147 0.965317 0.542687 -0.054056
H28   H     H_    0.758375 0.958418 0.576523 0.168866
H29   H     H_    0.935968 0.888360 0.521758 0.177499
H30   H     H_    0.831513 0.995944 0.499148 0.063690
O24   O     O_3   0.639539 0.469795 0.921264 -0.571534
C56   C     C_3   0.747072 0.524593 0.976954 -0.262445
H31   H     H_    0.901433 0.528766 0.964382 0.155936
H32   H     H_    0.730013 0.492255 0.022222 0.157646
H33   H     H_    0.692141 0.602749 0.990516 0.166198
O25   O     O_3   0.165195 0.264839 0.167665 -0.570128
C57   C     C_3   0.120616 0.342867 0.135513 -0.222834
H34   H     H_    0.250927 0.358193 0.108400 0.177301
H35   H     H_    0.082496 0.413644 0.172499 0.144247
H36   H     H_    0.003045 0.319794 0.097614 0.130259

loop_
_geom_bond_atom_site_label_1
_geom_bond_atom_site_label_2
_ccdc_geom_bond_type
C39   H20   S    
C31   C50   S    
C32   C33   S    
O15   V3    S    
C23   C24   A    
C19   C24   A    
C55   H28   S    
C1    O6    A    
C5    O23   S    
C22   C23   A    
C30   C31   A    
C56   H31   S    
C37   H19   S    
C13   C14   A    
C20   C21   A    
C36   C47   A    
C5    C13   A    
C19   C20   A    
C16   H2    S    
O14   V3    S    
O5    C3    A    
C21   C22   A    
O14   C50   A    
C54   H25   S    
O24   C56   S    
O18   V4    S    
C27   C34   S    
C33   C34   S    
C20   C52   S    
C44   C45   A    
C40   C42   A    
O23   C55   S    
C57   H36   S    
O8    V2    S    
C15   H5    S    
C56   H32   S    
C39   C40   A    
C41   C45   A    
C10   C11   A    
H1    C17   S    
O13   V3    S    
O7    V1    S    
C26   H9    S    
C8    O24   S    
C21   O25   S    
C10   C12   A    
C37   C38   A    
C48   C49   S    
O9    C4    A    
C41   C48   A    
C5    C17   A    
H15   C47   S    
O19   C52   A    
C25   H8    S    
C35   C47   A    
C12   C16   A    
C9    H4    S    
O11   V4    S    
V2    O10   S    
C29   H11   S    
C22   H6    S    
O4    C2    A    
C49   O16   A    
C38   O22   S    
C34   H14   S    
H16   C44   S    
C12   C13   A    
C18   C51   S    
C38   C39   A    
C1    C28   S    
C29   C30   A    
O13   C52   A    
C35   H17   S    
O2    C1    A    
C25   C26   S    
C3    C23   S    
C2    C36   S    
C53   H22   S    
V4    O20   S    
C28   C29   A    
C55   H29   S    
V3    O20   S    
O19   V4    S    
C25   H7    S    
C57   H34   S    
O3    C4    A    
O1    V2    S    
C7    H3    S    
C35   C43   A    
C53   H23   S    
O21   C53   S    
O6    V2    S    
O9    V2    S    
C19   C26   S    
C24   C25   S    
C45   H21   S    
O2    V1    S    
O25   C57   S    
C34   F2    S    
C31   C32   A    
O12   C49   A    
O1    C2    A    
C4    C6    S    
C11   C15   A    
C43   C44   A    
O5    V1    S    
O8    C3    A    
C33   H13   S    
O17   V4    S    
C30   O21   S    
O12   V3    S    
O22   C54   S    
C36   C46   A    
C56   H33   S    
O16   V4    S    
O7    V2    S    
C11   C18   A    
C42   C43   A    
O3    V1    S    
C27   C32   A    
C42   C46   A    
O17   V3    S    
C54   H26   S    
O11   C50   A    
O15   C51   A    
C14   F1    S    
O18   C51   A    
C33   H12   S    
C55   H30   S    
C37   C48   A    
C40   C41   A    
C46   H18   S    
C57   H35   S    
O4    V1    S    
C53   H24   S    
C7    C8    A    
C27   C28   A    
C14   C15   A    
C9    C10   A    
V1    O10   S    
C8    C9    A    
C6    C17   A    
C7    C18   A    
C26   H10   S    
C54   H27   S    
C6    C16   A    
