data_mof_unit_67691.cif
_audit_creation_date              2012-12-10T19:48:30-0500
_audit_creation_method            fapswitch 2.2
_symmetry_space_group_name_H-M    P1
_symmetry_Int_Tables_number       1
_space_group_crystal_system       triclinic
_cell_length_a                    11.929437
_cell_length_b                    11.021467
_cell_length_c                    9.949911
_cell_angle_alpha                 91.663172
_cell_angle_beta                  93.580985
_cell_angle_gamma                 88.803776
_cell_volume                      1304.87064355

loop_
_atom_site_label
_atom_site_type_symbol
_atom_type_description
_atom_site_fract_x
_atom_site_fract_y
_atom_site_fract_z
_atom_type_partial_charge
C1    C     C_R   0.495051 0.260449 0.497159 0.831607
C2    C     C_R   0.508733 0.738990 0.503004 0.858079
C3    C     C_R   0.871363 0.499476 0.509047 -0.103793
C4    C     C_R   0.126558 0.505162 0.501989 -0.078836
C5    C     C_R   0.948693 0.436864 0.600203 0.096108
C6    C     C_R   0.048198 0.566375 0.413722 0.102098
C7    C     C_3   0.450063 0.045026 0.603131 0.135202
C8    C     C_3   0.558952 0.953891 0.396654 0.152776
C9    C     C_3   0.562167 0.972962 0.616478 0.149505
C10   C     C_3   0.446920 0.026743 0.383592 0.126738
C11   C     C_3   0.515040 0.877865 0.509371 -0.236481
C12   C     C_3   0.493897 0.121213 0.490578 -0.249620
C13   C     C_3   0.403158 0.950087 0.497298 0.078162
C14   C     C_3   0.605028 0.048668 0.501996 0.098846
C15   C     C_3   0.524388 0.601977 0.055737 -0.141331
C16   C     C_3   0.477002 0.399294 0.942794 -0.141981
C17   C     C_3   0.428521 0.579083 0.944201 0.297216
C18   C     C_3   0.572755 0.422832 0.053112 0.266376
C19   C     C_3   0.597278 0.527312 0.955570 0.181188
C20   C     C_3   0.402354 0.474252 0.040958 0.209454
C21   C     C_R   0.262455 0.503226 0.498202 0.772420
C22   C     C_R   0.736928 0.499047 0.503885 0.781111
C23   C     C_R   0.137489 0.694391 0.110048 0.159659
C24   C     C_R   0.896400 0.292155 0.923410 0.172535
C25   C     C_R   0.077697 0.687583 0.222075 0.098568
C26   C     C_R   0.926812 0.305400 0.791770 0.120668
C27   C     C_R   0.081074 0.574751 0.283061 0.009569
C28   C     C_R   0.915533 0.420815 0.733899 -0.004948
C29   C     C_R   0.102115 0.465471 0.209478 0.133616
C30   C     C_R   0.900278 0.528227 0.813533 0.136038
C31   C     C_R   0.107384 0.480921 0.072253 -0.203292
C32   C     C_R   0.883345 0.512322 0.948678 -0.202034
C33   C     C_R   0.138250 0.591570 0.026073 0.097030
C34   C     C_R   0.870224 0.397169 0.997774 0.077564
C35   C     C_R   0.927964 0.570872 0.422026 -0.214561
C36   C     C_R   0.069803 0.435756 0.591971 -0.204301
Cu1   Cu    Cu3+1 0.500030 0.499990 0.643150 1.059893
Cu2   Cu    Cu3+1 0.499970 0.500010 0.356850 1.061293
H1    H     H_    0.537818 0.690741 0.109053 0.224896
H2    H     H_    0.469735 0.312623 0.882565 0.224505
H3    H     H_    0.095047 0.405642 0.001330 0.194489
H4    H     H_    0.879568 0.589410 0.018039 0.194015
H5    H     H_    0.876622 0.620727 0.347898 0.203201
H6    H     H_    0.122173 0.386381 0.665246 0.207731
N1    N     N_3   0.500090 0.499970 0.858290 -0.240605
N2    N     N_3   0.499910 0.500030 0.141710 -0.231546
O1    O     O_R   0.500060 0.316850 0.620870 -0.570037
O2    O     O_R   0.499940 0.683150 0.379130 -0.559288
O3    O     O_R   0.500000 0.316860 0.379090 -0.541995
O4    O     O_R   0.500000 0.683140 0.620910 -0.529568
O5    O     O_R   0.319670 0.500010 0.620890 -0.535758
O6    O     O_R   0.680330 0.499990 0.379110 -0.535844
O7    O     O_R   0.319620 0.500010 0.379110 -0.563681
O8    O     O_R   0.680380 0.499990 0.620890 -0.576178
I1    I     I_    0.171063 0.597793 0.829531 -0.382946
I2    I     I_    0.827853 0.393551 0.191228 -0.353665
I3    I     I_    0.396973 0.767832 0.876435 -0.112042
I4    I     I_    0.606254 0.231521 0.094329 -0.104451
I5    I     I_    0.678799 0.681347 0.903934 -0.313033
I6    I     I_    0.305824 0.317789 0.048375 -0.294877
I7    I     I_    0.292799 0.745844 0.189512 -0.225784
I8    I     I_    0.905486 0.118860 0.015852 -0.225851
I9    I     I_    0.997119 0.847485 0.296257 -0.292574
I10   I     I_    0.013666 0.160271 0.693252 -0.330975
C37   C     C_3   0.083728 0.336655 0.261825 -0.332831
C38   C     C_3   0.177368 0.264721 0.339876 -0.389782
C39   C     C_3   0.144646 0.132288 0.342027 -0.643173
H7    H     H_    0.062770 0.123590 0.387766 0.294911
H8    H     H_    0.138105 0.091450 0.238618 0.294942
H9    H     H_    0.209401 0.083251 0.403755 0.265806
H10   H     H_    0.260954 0.272724 0.301866 0.272802
H11   H     H_    0.187089 0.292358 0.446619 0.208773
H12   H     H_    0.016146 0.339400 0.332342 0.240541
H13   H     H_    0.054889 0.279384 0.173851 0.241382
C40   C     C_3   0.906404 0.656855 0.752278 -0.336029
C41   C     C_3   0.935037 0.767852 0.846650 -0.363691
C42   C     C_3   0.998653 0.862762 0.775557 -0.626439
H14   H     H_    0.074005 0.823711 0.730334 0.288377
H15   H     H_    0.942581 0.902619 0.694434 0.282857
H16   H     H_    0.027468 0.933841 0.849898 0.287784
H17   H     H_    0.860176 0.815886 0.881467 0.280324
H18   H     H_    0.983689 0.741491 0.937787 0.239567
H19   H     H_    0.970666 0.654040 0.677319 0.234652
H20   H     H_    0.827592 0.677804 0.691820 0.209715
I11   I     I_    0.659947 0.984880 0.800824 -0.174247
I12   I     I_    0.378873 0.041975 0.184256 -0.173423
I13   I     I_    0.348046 0.109198 0.759299 -0.183922
I14   I     I_    0.662701 0.885404 0.241931 -0.167123
I15   I     I_    0.249508 0.860080 0.530825 -0.261327
I16   I     I_    0.760300 0.136255 0.480141 -0.200727

loop_
_geom_bond_atom_site_label_1
_geom_bond_atom_site_label_2
_ccdc_geom_bond_type
C33   I1    S    
C7    C13   S    
C21   O7    A    
C4    C36   A    
C34   I2    S    
C4    C21   S    
C27   C29   A    
C9    C14   S    
C22   O8    A    
Cu2   O3    S    
C42   H14   S    
C15   C19   S    
C24   C26   A    
Cu1   O5    S    
C40   H20   S    
Cu2   O6    S    
C5    C36   A    
C17   C20   S    
C37   H12   S    
C6    C35   A    
C15   C17   S    
C18   C19   S    
C25   I9    S    
C26   I10   S    
C14   I16   S    
C2    O4    A    
C9    I11   S    
C18   I4    S    
C7    I13   S    
C6    C27   S    
C23   C33   A    
C8    C14   S    
C31   C33   A    
Cu1   O1    S    
C35   H5    S    
Cu2   O2    S    
C38   C39   S    
C1    C12   S    
C2    C11   S    
C18   N2    S    
C42   H15   S    
C7    C12   S    
C38   H11   S    
C39   H7    S    
C41   C42   S    
C4    C6    A    
C41   H18   S    
C1    O1    A    
C19   I5    S    
C24   C34   A    
C37   H13   S    
C39   H8    S    
C32   C34   A    
C41   H17   S    
C40   C41   S    
Cu1   Cu2   S    
C5    C28   S    
C38   H10   S    
C3    C35   A    
C16   C20   S    
C9    C11   S    
C15   H1    S    
C10   C12   S    
C16   H2    S    
C29   C37   S    
Cu1   O8    S    
C16   C18   S    
C12   C14   S    
C36   H6    S    
C20   I6    S    
Cu1   N1    S    
C21   O5    A    
C22   O6    A    
C42   H16   S    
C7    C9    S    
C10   I12   S    
C24   I8    S    
C31   H3    S    
C13   I15   S    
C17   N1    S    
C3    C5    A    
C10   C13   S    
C16   N1    S    
C19   N1    S    
C25   C27   A    
C26   C28   A    
C39   H9    S    
C2    O2    A    
C28   C30   A    
C29   C31   A    
C30   C32   A    
Cu1   O4    S    
C11   C13   S    
C40   H19   S    
Cu2   O7    S    
C8    C11   S    
C23   C25   A    
Cu2   N2    S    
C23   I7    S    
C30   C40   S    
C8    C10   S    
C37   C38   S    
C32   H4    S    
C3    C22   S    
C15   N2    S    
C8    I14   S    
C1    O3    A    
C20   N2    S    
C17   I3    S    
