data_mof_unit_8342.cif
_audit_creation_date              2012-12-10T19:10:04-0500
_audit_creation_method            fapswitch 2.2
_symmetry_space_group_name_H-M    P1
_symmetry_Int_Tables_number       1
_space_group_crystal_system       triclinic
_cell_length_a                    10.900297
_cell_length_b                    10.825155
_cell_length_c                    9.545704
_cell_angle_alpha                 92.059075
_cell_angle_beta                  92.118523
_cell_angle_gamma                 92.769348
_cell_volume                      1123.48096544

loop_
_atom_site_label
_atom_site_type_symbol
_atom_type_description
_atom_site_fract_x
_atom_site_fract_y
_atom_site_fract_z
_atom_type_partial_charge
C1    C     C_R   0.499280 0.262718 0.497512 0.820523
C2    C     C_R   0.164331 0.239783 0.022206 -0.159242
C3    C     C_R   0.927865 0.425580 0.400898 0.209014
C4    C     C_R   0.871929 0.492827 0.508100 -0.184765
C5    C     C_R   0.945318 0.559848 0.613421 -0.117778
C6    C     C_R   0.073037 0.570473 0.601539 0.236804
C7    C     C_R   0.128600 0.504264 0.493400 -0.164609
C8    C     C_R   0.055726 0.434180 0.390609 -0.107090
C9    C     C_R   0.894881 0.736505 0.773506 -0.112146
C10   C     C_R   0.882028 0.782967 0.910568 -0.135475
C11   C     C_R   0.866038 0.701724 0.019608 -0.101486
C12   C     C_R   0.262345 0.501008 0.497456 0.865612
C13   C     C_R   0.861443 0.574056 0.991464 -0.175705
C14   C     C_R   0.876757 0.527312 0.855207 -0.100462
C15   C     C_R   0.895364 0.608392 0.745488 0.181171
C16   C     C_R   0.596930 0.071143 0.555935 0.081439
C17   C     C_R   0.501631 0.130145 0.490220 -0.076840
C18   C     C_R   0.409849 0.058851 0.413333 -0.253269
C19   C     C_R   0.404849 0.929511 0.419673 0.252955
C20   C     C_R   0.494184 0.871511 0.502106 -0.097156
C21   C     C_R   0.593400 0.944022 0.561237 -0.043024
C22   C     C_3   0.647450 0.951695 0.706959 -0.529017
C23   C     C_R   0.497644 0.737731 0.501674 0.864533
C24   C     C_3   0.658740 0.091237 0.697488 0.338145
C25   C     C_R   0.566792 0.588609 0.080277 0.265990
C26   C     C_R   0.443057 0.406377 0.068364 -0.073476
C27   C     C_R   0.441793 0.406985 0.919435 -0.019493
C28   C     C_R   0.567624 0.587761 0.932940 0.267188
C29   C     C_3   0.553087 0.723049 0.931970 -0.507927
C30   C     C_3   0.549700 0.724212 0.089850 -0.467090
C31   C     C_R   0.737847 0.497910 0.502787 0.847175
C32   C     C_R   0.141250 0.365540 0.018091 -0.165854
C33   C     C_R   0.114387 0.431192 0.141034 -0.057058
C34   C     C_R   0.108874 0.370911 0.268655 0.168747
C35   C     C_R   0.134183 0.245199 0.272692 -0.124120
C36   C     C_R   0.161948 0.179982 0.149566 -0.122702
Cu1   Cu    Cu3+1 0.499990 0.499980 0.640670 0.989005
Cu2   Cu    Cu3+1 0.500010 0.500020 0.359330 0.985824
H1    H     H_    0.184875 0.188932 0.926925 0.148973
H2    H     H_    0.856650 0.737610 0.125746 0.142501
H3    H     H_    0.848568 0.511399 0.075846 0.181038
H4    H     H_    0.880239 0.428289 0.836412 0.124227
H5    H     H_    0.338381 0.103659 0.355939 0.155863
H6    H     H_    0.577954 0.923676 0.782658 0.234858
H7    H     H_    0.737353 0.909610 0.715338 0.155635
H8    H     H_    0.754481 0.131426 0.690728 0.076572
H9    H     H_    0.396269 0.331392 0.119662 0.156089
H10   H     H_    0.143514 0.411946 0.919556 0.167547
H11   H     H_    0.392205 0.333025 0.858930 0.161555
H12   H     H_    0.637705 0.769341 0.895704 0.198112
H13   H     H_    0.465138 0.748270 0.880354 0.253759
H14   H     H_    0.629262 0.776700 0.143342 0.190360
H15   H     H_    0.458311 0.747176 0.128312 0.261055
H16   H     H_    0.093825 0.527853 0.136210 0.162424
H17   H     H_    0.127521 0.196929 0.369763 0.136990
H18   H     H_    0.179482 0.082542 0.152337 0.176769
H19   H     H_    0.914152 0.799975 0.691048 0.143257
H20   H     H_    0.885747 0.881911 0.932466 0.137714
N1    N     N_R   0.500790 0.500930 0.147930 -0.182041
N2    N     N_R   0.500790 0.500890 0.852020 -0.185036
O1    O     O_R   0.500000 0.319640 0.618810 -0.550183
O2    O     O_R   0.500010 0.319680 0.381230 -0.583982
O3    O     O_R   0.319640 0.499990 0.618790 -0.556531
O4    O     O_R   0.319650 0.500030 0.381210 -0.570465
O5    O     O_R   0.499990 0.680320 0.618770 -0.570844
O6    O     O_R   0.500000 0.680360 0.381190 -0.578095
O7    O     O_R   0.680350 0.499970 0.618790 -0.592587
O8    O     O_R   0.680360 0.500010 0.381210 -0.548010
Br1   Br    Br    0.267547 0.838092 0.327486 -0.549703
O9    O     O_3   0.584975 0.151012 0.795064 -0.555070
C37   C     C_3   0.654516 0.175374 0.921493 -0.243662
H21   H     H_    0.724854 0.251636 0.908940 0.166715
H22   H     H_    0.698876 0.091446 0.959130 0.162431
H23   H     H_    0.592241 0.205183 0.003950 0.195774
Br2   Br    Br    0.831704 0.308128 0.276816 -0.594202
Br3   Br    Br    0.171161 0.681884 0.731880 -0.508148

loop_
_geom_bond_atom_site_label_1
_geom_bond_atom_site_label_2
_ccdc_geom_bond_type
C16   C21   A    
C35   C36   A    
C1    O2    A    
C13   H3    S    
C24   O9    S    
C7    C8    A    
C25   C28   A    
C31   O7    A    
C26   C27   A    
Cu1   Cu2   S    
C23   O6    A    
C28   C29   S    
C10   H20   S    
C18   C19   A    
C27   N2    A    
C29   H13   S    
C5    C6    A    
C12   O4    A    
C25   C30   S    
C2    C32   A    
C34   C35   A    
C2    H1    S    
C22   H6    S    
Cu2   O6    S    
C16   C17   A    
Cu1   O5    S    
O9    C37   S    
C3    Br2   S    
C26   N1    A    
C14   H4    S    
C16   C24   S    
C13   C14   A    
C32   H10   S    
C31   O8    A    
Cu1   O3    S    
C33   C34   A    
Cu2   O4    S    
C29   H12   S    
C28   N2    A    
C7    C12   S    
C30   H15   S    
C35   H17   S    
Cu1   N2    S    
C3    C8    A    
C37   H22   S    
C12   O3    A    
C29   C30   S    
C36   H18   S    
C20   C23   S    
C17   C18   A    
C8    C34   S    
C26   H9    S    
Cu2   O8    S    
C22   C24   S    
C19   Br1   S    
C3    C4    A    
C9    C10   A    
C2    C36   A    
C33   H16   S    
C30   H14   S    
C4    C5    A    
C1    O1    A    
C37   H23   S    
Cu1   O1    S    
C6    Br3   S    
C6    C7    A    
C1    C17   S    
C24   H8    S    
C32   C33   A    
C23   O5    A    
C19   C20   A    
C9    C15   A    
C37   H21   S    
C18   H5    S    
C11   C13   A    
Cu1   O7    S    
C9    H19   S    
C11   H2    S    
C5    C15   S    
C4    C31   S    
C10   C11   A    
Cu2   N1    S    
C22   H7    S    
C20   C21   A    
C14   C15   A    
C25   N1    A    
C21   C22   S    
C27   H11   S    
Cu2   O2    S    
