data_mof_unit_47728.cif
_audit_creation_date              2012-12-10T17:49:34-0500
_audit_creation_method            fapswitch 2.2
_symmetry_space_group_name_H-M    P1
_symmetry_Int_Tables_number       1
_space_group_crystal_system       triclinic
_cell_length_a                    14.734173
_cell_length_b                    14.852862
_cell_length_c                    15.891718
_cell_angle_alpha                 75.584268
_cell_angle_beta                  102.700426
_cell_angle_gamma                 115.029347
_cell_volume                      3025.9019719

loop_
_atom_site_label
_atom_site_type_symbol
_atom_type_description
_atom_site_fract_x
_atom_site_fract_y
_atom_site_fract_z
_atom_type_partial_charge
C1    C     C_R   0.880461 0.312338 0.512576 0.875371
C2    C     C_3   0.972824 0.384040 0.070958 -0.350744
C3    C     C_3   0.997777 0.494555 0.084090 -0.114521
C4    C     C_3   0.102234 0.569619 0.051699 0.684405
C5    C     C_3   0.098552 0.568093 0.953440 -0.478823
C6    C     C_1   0.998600 0.496530 0.176214 0.147911
C7    C     C_1   0.996613 0.495730 0.824504 0.053682
C8    C     C_1   0.998390 0.497972 0.748992 -0.048141
C9    C     C_R   0.812547 0.204586 0.519393 -0.133141
C10   C     C_R   0.188409 0.796890 0.489635 -0.216248
C11   C     C_R   0.778550 0.024685 0.548601 -0.117714
C12   C     C_R   0.999762 0.499738 0.659520 0.824042
C13   C     C_R   0.846773 0.126075 0.530075 0.372981
C14   C     C_R   0.709035 0.180766 0.513338 -0.222759
C15   C     C_R   0.638367 0.081777 0.516211 0.100850
C16   C     C_R   0.675042 0.003598 0.547071 0.033070
C17   C     C_R   0.532022 0.057999 0.497939 0.048293
C18   C     C_R   0.466237 0.957537 0.526383 0.081632
C19   C     C_R   0.507619 0.889215 0.578824 -0.185790
C20   C     C_R   0.608754 0.908441 0.583023 -0.110078
C21   C     C_R   0.487682 0.128508 0.452250 -0.069144
C22   C     C_R   0.384899 0.103108 0.454765 -0.173545
C23   C     C_R   0.120084 0.688202 0.488688 0.853559
C24   C     C_R   0.319965 0.002740 0.482069 0.001729
C25   C     C_R   0.360119 0.927948 0.504580 0.018561
C26   C     C_R   0.214907 0.974292 0.479055 -0.100451
C27   C     C_R   0.150138 0.870710 0.488471 0.354065
C28   C     C_R   0.294598 0.827567 0.495453 -0.105641
C29   C     C_R   0.707031 0.652802 0.335372 0.295558
C30   C     C_R   0.792740 0.629723 0.368281 0.499769
C31   C     C_R   0.713404 0.514511 0.489403 0.033454
C32   C     C_R   0.620820 0.528860 0.454372 -0.141307
C33   C     C_R   0.622301 0.607553 0.381746 -0.111529
C34   C     C_R   0.000063 0.499969 0.340492 0.826827
C35   C     C_R   0.528068 0.470070 0.491558 0.152882
C36   C     C_R   0.446583 0.503084 0.470071 0.012905
C37   C     C_R   0.455279 0.587739 0.404095 -0.256647
C38   C     C_R   0.539913 0.639032 0.360173 0.494191
C39   C     C_R   0.511552 0.375236 0.545121 -0.143087
C40   C     C_R   0.430302 0.326611 0.592395 -0.090804
C41   C     C_R   0.358747 0.368247 0.584843 0.078181
C42   C     C_R   0.360777 0.451897 0.517681 -0.021342
C43   C     C_R   0.283333 0.325557 0.641006 -0.169680
C44   C     C_R   0.208060 0.364674 0.626855 0.113421
C45   C     C_3   0.982829 0.386202 0.973754 -0.224289
C46   C     C_R   0.277031 0.480633 0.501876 0.057926
C47   C     C_3   0.907550 0.525569 0.926285 0.174749
C48   C     C_3   0.909255 0.523469 0.026368 0.116212
C49   C     C_1   0.999369 0.498423 0.251326 0.001705
C50   C     C_3   0.993917 0.493099 0.916930 -0.084663
Cu1   Cu    Cu3+1 0.081750 0.475690 0.522550 1.046990
Cu2   Cu    Cu3+1 0.918250 0.524310 0.477450 1.072040
H1    H     H_    0.892847 0.339257 0.082170 0.205238
H2    H     H_    0.054451 0.378191 0.973328 0.190540
H3    H     H_    0.635359 0.850179 0.618991 0.179319
H4    H     H_    0.353505 0.159413 0.424755 0.194414
H5    H     H_    0.683493 0.240129 0.508947 0.192438
H6    H     H_    0.461499 0.820111 0.616850 0.200564
H7    H     H_    0.267542 0.536044 0.446381 0.156290
H8    H     H_    0.424075 0.255377 0.634683 0.183463
H9    H     H_    0.396977 0.617145 0.385236 0.195024
H10   H     H_    0.560239 0.336207 0.550025 0.161056
H11   H     H_    0.837864 0.462739 0.047814 0.187422
H12   H     H_    0.158879 0.545640 0.945366 0.225059
H13   H     H_    0.117903 0.644739 0.913344 0.239875
N1    N     N_R   0.795410 0.560790 0.443550 -0.274800
N2    N     N_R   0.204590 0.439170 0.556520 -0.215592
O1    O     O_R   0.977910 0.338120 0.529720 -0.530599
O2    O     O_R   0.839850 0.379180 0.491640 -0.570327
O3    O     O_R   0.069060 0.479460 0.639610 -0.580247
O4    O     O_R   0.931000 0.520530 0.601530 -0.557151
O5    O     O_R   0.160150 0.620820 0.508360 -0.571621
O6    O     O_R   0.022090 0.661880 0.470280 -0.495546
O7    O     O_R   0.069000 0.479470 0.398470 -0.583852
O8    O     O_R   0.930940 0.520540 0.360390 -0.545048
C51   C     C_2   0.029375 0.327080 0.139306 0.982697
O9    O     O_2   0.090157 0.302557 0.119187 -0.516238
O10   O     O_R   0.008392 0.299111 0.225911 -0.736567
H14   H     H_    0.049635 0.261189 0.265563 0.372665
Cl1   Cl    Cl    0.135487 0.696510 0.065902 -0.373338
C52   C     C_2   0.337820 0.763348 0.473884 0.878726
O11   O     O_2   0.360012 0.779330 0.400328 -0.523752
O12   O     O_R   0.359245 0.689815 0.539126 -0.758962
H15   H     H_    0.408064 0.667496 0.522713 0.322712
Cl2   Cl    Cl    0.022812 0.835815 0.503174 -0.474806
C53   C     C_2   0.814487 0.941194 0.565841 0.959669
O13   O     O_2   0.891506 0.945543 0.616137 -0.471706
O14   O     O_R   0.759772 0.857451 0.524373 -0.722863
H16   H     H_    0.791472 0.805653 0.541220 0.369448
Cl3   Cl    Cl    0.971590 0.152327 0.514386 -0.480055
C54   C     C_2   0.901720 0.295951 0.935353 0.974962
O15   O     O_2   0.911129 0.279190 0.866868 -0.580539
O16   O     O_R   0.818373 0.229950 0.978592 -0.700093
H17   H     H_    0.771104 0.173128 0.945966 0.370419
C55   C     C_2   0.539789 0.221206 0.390413 0.847986
O17   O     O_2   0.520015 0.295752 0.379502 -0.590375
O18   O     O_R   0.608197 0.221642 0.341497 -0.710737
H18   H     H_    0.638459 0.288784 0.301637 0.355331
C56   C     C_2   0.173297 0.052314 0.469464 0.958615
O19   O     O_2   0.098024 0.050083 0.417359 -0.470847
O20   O     O_R   0.221107 0.128875 0.519782 -0.758136
H19   H     H_    0.187108 0.178505 0.506471 0.364443
Cl4   Cl    Cl    0.541042 0.752021 0.289584 -0.370136
C57   C     C_2   0.137079 0.328256 0.691990 0.943938
O21   O     O_2   0.056358 0.256959 0.682951 -0.505917
O22   O     O_R   0.166294 0.371570 0.767296 -0.736113
H20   H     H_    0.112696 0.339468 0.808280 0.354137
Cl5   Cl    Cl    0.705207 0.727340 0.229217 -0.331490
Cl6   Cl    Cl    0.899920 0.698458 0.312520 -0.387049
C58   C     C_2   0.729372 0.471952 0.583465 0.914927
O23   O     O_2   0.729800 0.517107 0.638329 -0.508566
O24   O     O_R   0.740199 0.379629 0.609984 -0.774162
H21   H     H_    0.749351 0.358925 0.676085 0.355729
C59   C     C_2   0.918220 0.628779 0.868946 0.961091
O25   O     O_2   0.858060 0.634379 0.803106 -0.476011
O26   O     O_R   0.996697 0.717573 0.890569 -0.694510
H22   H     H_    0.995144 0.780017 0.847236 0.376007
C60   C     C_2   0.284996 0.243243 0.716561 0.871880
O27   O     O_2   0.209646 0.165338 0.726487 -0.495764
O28   O     O_R   0.372739 0.255542 0.776403 -0.708190
H23   H     H_    0.364636 0.194551 0.824767 0.367049
Cl7   Cl    Cl    0.785392 0.435155 0.888317 -0.504407
Cl8   Cl    Cl    0.899000 0.630948 0.050913 -0.393285
Cl9   Cl    Cl    0.204924 0.537553 0.115046 -0.490608

loop_
_geom_bond_atom_site_label_1
_geom_bond_atom_site_label_2
_ccdc_geom_bond_type
C10   C27   A    
C47   C59   S    
O20   H19   S    
C40   H8    S    
C46   H7    S    
C31   N1    A    
C41   C42   A    
C36   C42   A    
C19   C20   A    
Cu1   O7    S    
C9    C14   A    
C3    C6    S    
C48   Cl8   S    
C57   O22   S    
O18   H18   S    
C44   C57   S    
Cu2   N1    S    
C7    C8    T    
C25   C28   A    
C26   C27   A    
C38   Cl4   S    
C36   C37   A    
C37   C38   A    
C24   C26   A    
C4    Cl1   S    
C13   Cl3   S    
C53   O14   S    
O22   H20   S    
C11   C53   S    
C15   C16   A    
C29   C33   A    
C3    C48   S    
C1    O1    A    
O26   H22   S    
C4    Cl9   S    
C18   C19   A    
C42   C46   A    
C27   Cl2   S    
C9    C13   A    
C60   O27   D    
C57   O21   D    
Cu2   O2    S    
C58   O23   D    
C55   O17   D    
C47   C48   S    
C29   Cl5   S    
Cu1   O3    S    
C8    C12   S    
C34   O8    A    
Cu2   O8    S    
C2    C45   S    
C21   C22   A    
C41   C43   A    
C18   C25   A    
C23   O6    A    
C20   H3    S    
O24   H21   S    
C52   O12   S    
C52   O11   D    
C47   C50   S    
C58   O24   S    
C19   H6    S    
C30   Cl6   S    
Cu1   Cu2   S    
C32   C35   A    
C1    C9    S    
C51   O9    D    
C5    H13   S    
Cu2   O6    S    
C54   O15   D    
O10   H14   S    
C47   Cl7   S    
C22   H4    S    
C21   C55   S    
C1    O2    A    
C5    H12   S    
C35   C36   A    
C35   C39   A    
C43   C44   A    
C29   C30   A    
C54   O16   S    
C11   C16   A    
C37   H9    S    
O12   H15   S    
C16   C20   A    
C17   C18   A    
O16   H17   S    
Cu1   N2    S    
C24   C25   A    
C30   N1    A    
C34   O7    A    
C40   C41   A    
C56   O20   S    
C12   O4    A    
C45   H2    S    
C22   C24   A    
C5    C50   S    
Cu1   O5    S    
C3    C4    S    
C39   C40   A    
C2    C51   S    
O28   H23   S    
C10   C28   A    
C15   C17   A    
C14   H5    S    
C12   O3    A    
C34   C49   S    
C28   C52   S    
C53   O13   D    
C23   O5    A    
C31   C32   A    
C7    C50   S    
C51   O10   S    
C4    C5    S    
C48   H11   S    
C2    H1    S    
C59   O26   S    
C55   O18   S    
C59   O25   D    
C10   C23   S    
C26   C56   S    
C33   C38   A    
C56   O19   D    
C32   C33   A    
C2    C3    S    
C46   N2    A    
Cu2   O4    S    
C11   C13   A    
C45   C50   S    
C31   C58   S    
Cu1   O1    S    
C6    C49   T    
C45   C54   S    
C60   O28   S    
C43   C60   S    
O14   H16   S    
C39   H10   S    
C14   C15   A    
C44   N2    A    
C17   C21   A    
