data_mof_unit_30586.cif
_audit_creation_date              2012-12-10T16:49:31-0500
_audit_creation_method            fapswitch 2.2
_symmetry_space_group_name_H-M    P1
_symmetry_Int_Tables_number       1
_space_group_crystal_system       triclinic
_cell_length_a                    7.735109
_cell_length_b                    8.579842
_cell_length_c                    12.896545
_cell_angle_alpha                 90.2748
_cell_angle_beta                  87.344159
_cell_angle_gamma                 93.518656
_cell_volume                      853.359573441

loop_
_atom_site_label
_atom_site_type_symbol
_atom_type_description
_atom_site_fract_x
_atom_site_fract_y
_atom_site_fract_z
_atom_type_partial_charge
C1    C     C_R   0.454657 0.205189 0.497274 0.965006
C2    C     C_R   0.712024 0.445327 0.136744 0.098344
C3    C     C_R   0.581954 0.465546 0.867804 -0.308849
C4    C     C_R   0.418042 0.534440 0.132196 -0.308844
C5    C     C_R   0.575545 0.475573 0.974057 0.158088
C6    C     C_R   0.424449 0.524410 0.025943 0.158089
C7    C     C_2   0.430699 0.041806 0.495741 -0.383521
C8    C     C_2   0.569301 0.958194 0.504258 -0.383523
C9    C     C_R   0.545342 0.794810 0.502725 0.965010
C10   C     C_R   0.464546 0.503471 0.700060 0.886046
C11   C     C_R   0.535453 0.496527 0.299940 0.886043
C12   C     C_R   0.558685 0.492901 0.188262 -0.069748
C13   C     C_R   0.441312 0.507090 0.811738 -0.069743
C14   C     C_R   0.281055 0.562153 0.971247 -0.260263
C15   C     C_R   0.718939 0.437830 0.028753 -0.260256
C16   C     C_R   0.287971 0.554660 0.863256 0.098344
H1    H     H_    0.301031 0.573550 0.171143 0.175398
H2    H     H_    0.825237 0.290652 0.224437 0.192499
H3    H     H_    0.033610 0.608774 0.856593 0.174133
H4    H     H_    0.174749 0.709352 0.775583 0.192493
H5    H     H_    0.698965 0.426438 0.828856 0.175395
H6    H     H_    0.165160 0.599380 0.012393 0.137601
H7    H     H_    0.834833 0.400602 0.987607 0.137596
H8    H     H_    0.998472 0.614827 0.421857 0.196853
H9    H     H_    0.001528 0.385173 0.578143 0.196854
H10   H     H_    0.299733 0.990833 0.487639 0.180026
H11   H     H_    0.700267 0.009167 0.512361 0.180025
H12   H     H_    0.966372 0.391183 0.143405 0.174136
N1    N     N_2   0.054030 0.541640 0.471970 -0.172115
N2    N     N_2   0.945970 0.458360 0.528030 -0.172116
N3    N     N_3   0.857266 0.401589 0.193388 -0.433404
N4    N     N_3   0.142730 0.598399 0.806612 -0.433395
O1    O     O_R   0.609680 0.261530 0.506880 -0.615349
O2    O     O_R   0.390320 0.738470 0.493120 -0.615347
O3    O     O_R   0.323330 0.288220 0.488910 -0.630813
O4    O     O_R   0.676670 0.711780 0.511090 -0.630812
O5    O     O_R   0.619510 0.488830 0.661140 -0.626749
O6    O     O_R   0.380490 0.511170 0.338860 -0.626748
O7    O     O_R   0.333160 0.515520 0.643180 -0.608952
O8    O     O_R   0.666840 0.484480 0.356820 -0.608958
Zn1   Zn    Zn3+2 0.691200 0.482180 0.511990 0.945761
Zn2   Zn    Zn3+2 0.308800 0.517820 0.488010 0.945764

loop_
_geom_bond_atom_site_label_1
_geom_bond_atom_site_label_2
_ccdc_geom_bond_type
C8    C9    S    
C11   O6    A    
C11   C12   S    
N2    Zn1   S    
N1    N2    D    
N1    Zn2   S    
C6    C14   A    
C3    C13   A    
C5    C15   A    
C2    C12   A    
C14   H6    S    
C15   H7    S    
O1    Zn1   S    
C7    C8    D    
C1    C7    S    
C2    C15   A    
O4    Zn1   S    
C11   O8    A    
C7    H10   S    
C10   O5    A    
C5    C6    A    
H3    N4    S    
O8    Zn1   S    
O6    Zn2   S    
O7    Zn2   S    
O5    Zn1   S    
C9    O2    A    
C14   C16   A    
C3    H5    S    
C4    C12   A    
C4    H1    S    
C1    O1    A    
C9    O4    A    
C1    O3    A    
C4    C6    A    
H4    N4    S    
C13   C16   A    
H9    N2    S    
O3    Zn2   S    
C8    H11   S    
C16   N4    S    
C10   O7    A    
H2    N3    S    
H8    N1    S    
H12   N3    S    
C2    N3    S    
C3    C5    A    
C10   C13   S    
O2    Zn2   S    
