data_mof_unit_34582.cif
_audit_creation_date              2012-12-10T18:05:49-0500
_audit_creation_method            fapswitch 2.2
_symmetry_space_group_name_H-M    P1
_symmetry_Int_Tables_number       1
_space_group_crystal_system       triclinic
_cell_length_a                    12.637989
_cell_length_b                    13.15784
_cell_length_c                    14.959219
_cell_angle_alpha                 91.376936
_cell_angle_beta                  103.224335
_cell_angle_gamma                 81.929877
_cell_volume                      2397.51760799

loop_
_atom_site_label
_atom_site_type_symbol
_atom_type_description
_atom_site_fract_x
_atom_site_fract_y
_atom_site_fract_z
_atom_type_partial_charge
C1    C     C_R   0.438416 0.690983 0.484582 0.839740
C2    C     C_R   0.422889 0.557022 0.798561 -0.298117
C3    C     C_R   0.506488 0.494957 0.769204 -0.100481
C4    C     C_R   0.502273 0.498021 0.672862 0.888728
C5    C     C_R   0.590137 0.431519 0.830345 0.097016
C6    C     C_R   0.715099 0.050861 0.466145 -0.214929
C7    C     C_R   0.598445 0.196661 0.510183 -0.077499
C8    C     C_R   0.293719 0.838823 0.482568 -0.192816
C9    C     C_R   0.261701 0.944060 0.483923 -0.150348
C10   C     C_R   0.335787 0.011075 0.477908 -0.197295
C11   C     C_R   0.442147 0.973123 0.465450 0.100348
C12   C     C_R   0.580647 0.440766 0.110235 0.127673
C13   C     C_R   0.466303 0.867723 0.448000 0.081597
C14   C     C_R   0.526894 0.034839 0.472663 0.075255
C15   C     C_R   0.627544 0.993654 0.450837 0.127466
C16   C     C_R   0.561836 0.307964 0.511542 0.846537
C17   C     C_R   0.640653 0.894572 0.416497 -0.235589
C18   C     C_R   0.560111 0.832533 0.413809 -0.200279
C19   C     C_R   0.516121 0.134849 0.505039 -0.308537
C20   C     C_R   0.703415 0.151099 0.499504 0.197397
C21   C     C_R   0.397570 0.800027 0.467950 -0.122347
C22   C     C_R   0.081088 0.354440 0.366850 -0.303430
C23   C     C_R   0.331484 0.625566 0.009920 -0.222404
C24   C     C_R   0.800447 0.627956 0.611423 0.010309
C25   C     C_R   0.905028 0.656552 0.635033 -0.254002
C26   C     C_R   0.985985 0.609502 0.592383 -0.199110
C27   C     C_R   0.962141 0.533241 0.525663 0.032534
C28   C     C_R   0.497836 0.501791 0.327169 0.867943
C29   C     C_R   0.853851 0.507153 0.504178 0.234524
C30   C     C_R   0.040722 0.481262 0.479872 -0.017955
C31   C     C_R   0.007256 0.407376 0.412585 0.156117
C32   C     C_R   0.900387 0.384886 0.391930 -0.289963
C33   C     C_R   0.825726 0.432352 0.438901 -0.208083
C34   C     C_R   0.335440 0.622066 0.918193 -0.213092
C35   C     C_R   0.151411 0.498401 0.497943 -0.097031
C36   C     C_R   0.188915 0.373215 0.387072 0.338656
C37   C     C_R   0.577416 0.442664 0.201613 -0.294985
C38   C     C_R   0.493838 0.504848 0.230919 -0.093577
C39   C     C_R   0.410719 0.568837 0.169877 0.094354
C40   C     C_R   0.412397 0.565902 0.075766 0.092704
C41   C     C_R   0.498349 0.501693 0.046598 0.030722
C42   C     C_3   0.262643 0.311581 0.333586 -0.867006
C43   C     C_3   0.326145 0.643064 0.206039 -0.400072
C44   C     C_3   0.217273 0.600521 0.194191 -0.810338
C45   C     C_R   0.420061 0.559338 0.890022 0.127262
C46   C     C_3   0.675256 0.357888 0.794237 -0.401713
C47   C     C_3   0.783645 0.401297 0.806053 -0.816189
C48   C     C_3   0.805525 0.201867 0.524627 -0.913775
C49   C     C_R   0.502516 0.498586 0.953671 0.032040
C50   C     C_R   0.588554 0.434503 0.924505 0.093637
C51   C     C_R   0.669596 0.374995 0.990400 -0.223288
C52   C     C_R   0.665455 0.378260 0.082110 -0.211264
H1    H     H_    0.640178 0.394840 0.250734 0.146340
H2    H     H_    0.055035 0.297820 0.315466 0.150086
H3    H     H_    0.183540 0.553431 0.547617 0.134281
H4    H     H_    0.737278 0.664310 0.644340 0.143789
H5    H     H_    0.065734 0.634309 0.612649 0.132430
H6    H     H_    0.923270 0.715048 0.686183 0.148789
H7    H     H_    0.747096 0.406914 0.424523 0.218074
H8    H     H_    0.263819 0.675206 0.027472 0.158870
H9    H     H_    0.271883 0.668704 0.869014 0.142542
H10   H     H_    0.359815 0.604496 0.749378 0.148969
H11   H     H_    0.737399 0.325538 0.972877 0.158592
H12   H     H_    0.714908 0.863663 0.394935 0.150188
H13   H     H_    0.728999 0.331625 0.131315 0.141270
H14   H     H_    0.346882 0.327910 0.348692 0.294653
H15   H     H_    0.265710 0.228543 0.347476 0.213284
H16   H     H_    0.228831 0.326122 0.258976 0.212524
H17   H     H_    0.181394 0.586622 0.120808 0.242924
H18   H     H_    0.229129 0.527201 0.232610 0.280608
H19   H     H_    0.158178 0.656463 0.221231 0.241083
H20   H     H_    0.356079 0.660524 0.279637 0.202143
H21   H     H_    0.312868 0.719170 0.171822 0.189176
H22   H     H_    0.771022 0.475167 0.768282 0.275266
H23   H     H_    0.793681 0.016580 0.453812 0.141151
H24   H     H_    0.819840 0.414467 0.879517 0.245063
H25   H     H_    0.842812 0.346183 0.778283 0.240415
H26   H     H_    0.689185 0.281753 0.828492 0.189217
H27   H     H_    0.645539 0.340284 0.720629 0.203897
H28   H     H_    0.826890 0.224762 0.461077 0.240704
H29   H     H_    0.798984 0.267442 0.571563 0.268374
H30   H     H_    0.874823 0.146206 0.562271 0.231557
H31   H     H_    0.442560 0.167367 0.525866 0.173268
H32   H     H_    0.238438 0.787927 0.495519 0.153412
H33   H     H_    0.306927 0.091761 0.481934 0.132920
H34   H     H_    0.181040 0.973788 0.494172 0.140231
H35   H     H_    0.572908 0.756288 0.386039 0.173520
H36   H     H_    0.875013 0.327851 0.340889 0.143598
N1    N     N_R   0.222190 0.444670 0.452360 -0.101292
N2    N     N_R   0.776970 0.554790 0.547140 -0.134609
O1    O     O_R   0.366740 0.627160 0.477250 -0.616071
O2    O     O_R   0.544830 0.662520 0.507680 -0.613712
O3    O     O_R   0.410940 0.482340 0.616930 -0.616462
O4    O     O_R   0.589030 0.517700 0.647360 -0.615265
O5    O     O_R   0.455170 0.337480 0.492320 -0.620204
O6    O     O_R   0.633260 0.372840 0.522750 -0.631734
O7    O     O_R   0.410970 0.482300 0.352640 -0.618768
O8    O     O_R   0.589060 0.517660 0.383070 -0.640895
Zn1   Zn    Zn3+2 0.381090 0.476390 0.479680 0.930521
Zn2   Zn    Zn3+2 0.618910 0.523610 0.520320 0.918241

loop_
_geom_bond_atom_site_label_1
_geom_bond_atom_site_label_2
_ccdc_geom_bond_type
C36   N1    A    
C43   H21   S    
C10   H33   S    
C1    C21   S    
C43   H20   S    
C27   C29   A    
C36   C42   S    
C6    H23   S    
C22   H2    S    
C26   C27   A    
C37   C38   A    
C13   C18   A    
N1    Zn1   S    
C47   H24   S    
C17   H12   S    
C30   C31   A    
C11   C14   A    
O5    Zn1   S    
C23   C40   A    
C32   H36   S    
C29   C33   A    
C48   H29   S    
C44   H19   S    
C41   C49   A    
C12   C37   A    
O7    Zn1   S    
C6    C15   A    
C8    C9    A    
C44   H18   S    
C28   C38   S    
C9    C10   A    
O3    Zn1   S    
C37   H1    S    
C33   H7    S    
C27   C30   A    
C42   H16   S    
C19   H31   S    
N2    Zn2   S    
C29   N2    A    
C12   C52   A    
C50   C51   A    
C2    C45   A    
C23   H8    S    
C16   O6    A    
C22   C31   A    
C35   H3    S    
C51   C52   A    
C51   H11   S    
C24   C25   A    
C39   C40   A    
C46   H26   S    
C39   C43   S    
C25   C26   A    
C34   H9    S    
C24   N2    A    
C38   C39   A    
C43   C44   S    
C12   C41   A    
C9    H34   S    
C31   C32   A    
O4    Zn2   S    
C23   C34   A    
C17   C18   A    
C13   C21   A    
C44   H17   S    
C34   C45   A    
C20   C48   S    
C4    O4    A    
C30   C35   A    
C40   C41   A    
C49   C50   A    
C1    O2    A    
C7    C19   A    
C42   H15   S    
C5    C50   A    
C25   H6    S    
C47   H25   S    
C3    C4    S    
C35   N1    A    
C6    C20   A    
O2    Zn2   S    
C28   O8    A    
C15   C17   A    
C46   C47   S    
C7    C16   S    
C16   O5    A    
C8    H32   S    
C14   C19   A    
C47   H22   S    
C3    C5    A    
C8    C21   A    
C24   H4    S    
C22   C36   A    
C5    C46   S    
O8    Zn2   S    
C18   H35   S    
C28   O7    A    
C32   C33   A    
C48   H28   S    
C2    C3    A    
C11   C13   A    
C46   H27   S    
O6    Zn2   S    
C48   H30   S    
C45   C49   A    
C26   H5    S    
C10   C11   A    
C4    O3    A    
C1    O1    A    
C7    C20   A    
C42   H14   S    
C14   C15   A    
O1    Zn1   S    
C52   H13   S    
C2    H10   S    
