data_mof_unit_51580.cif
_audit_creation_date              2012-12-10T20:57:13-0500
_audit_creation_method            fapswitch 2.2
_symmetry_space_group_name_H-M    P1
_symmetry_Int_Tables_number       1
_space_group_crystal_system       triclinic
_cell_length_a                    15.845141
_cell_length_b                    15.084092
_cell_length_c                    14.951515
_cell_angle_alpha                 88.921441
_cell_angle_beta                  89.883314
_cell_angle_gamma                 90.211564
_cell_volume                      3572.88966544

loop_
_atom_site_label
_atom_site_type_symbol
_atom_type_description
_atom_site_fract_x
_atom_site_fract_y
_atom_site_fract_z
_atom_type_partial_charge
C1    C     C_R   0.339069 0.499835 0.499472 0.903463
C2    C     C_R   0.087195 0.500483 0.499342 0.029575
C3    C     C_1   0.823636 0.501011 0.503708 -0.037836
C4    C     C_1   0.176386 0.499576 0.498073 -0.036735
C5    C     C_1   0.251040 0.499443 0.498370 -0.173382
C6    C     C_1   0.748982 0.500556 0.502323 -0.173129
C7    C     C_R   0.469411 0.954744 0.423992 -0.049886
C8    C     C_R   0.521477 0.045200 0.578075 -0.048443
C9    C     C_R   0.525262 0.950836 0.575896 -0.046520
C10   C     C_R   0.473142 0.049374 0.423262 -0.044395
C11   C     C_R   0.498013 0.904955 0.499319 -0.052492
C12   C     C_R   0.660945 0.500151 0.500414 0.901923
C13   C     C_R   0.498266 0.095064 0.500778 -0.050351
C14   C     C_1   0.498975 0.806937 0.499057 0.079909
C15   C     C_1   0.499453 0.193076 0.500772 0.084977
C16   C     C_R   0.500306 0.500717 0.326463 0.884028
C17   C     C_R   0.500099 0.499337 0.673577 0.884723
C18   C     C_R   0.550322 0.438281 0.815401 -0.242693
C19   C     C_R   0.455324 0.565048 0.184603 -0.261429
C20   C     C_R   0.499906 0.498609 0.769002 -0.055842
C21   C     C_R   0.502755 0.502321 0.231140 -0.064944
C22   C     C_R   0.451611 0.561254 0.812932 -0.283014
C23   C     C_R   0.404241 0.625097 0.045372 -0.281239
C24   C     C_R   0.552833 0.441133 0.187306 -0.261613
C25   C     C_R   0.451259 0.563384 0.905833 0.061781
C26   C     C_R   0.557487 0.442780 0.094309 0.062494
C27   C     C_R   0.503396 0.502572 0.953459 0.044912
C28   C     C_R   0.505569 0.503590 0.046558 0.042943
C29   C     C_R   0.553659 0.440825 0.907817 0.113517
C30   C     C_R   0.455089 0.565065 0.092190 0.108816
C31   C     C_R   0.401736 0.625384 0.952365 -0.010810
C32   C     C_R   0.611105 0.384537 0.047852 -0.006118
C33   C     C_R   0.346896 0.691426 0.906785 0.118690
C34   C     C_R   0.607880 0.383858 0.954647 -0.290233
C35   C     C_R   0.364492 0.782383 0.913809 -0.180488
C36   C     C_R   0.312938 0.845004 0.871000 -0.139410
C37   C     C_R   0.242642 0.817340 0.822439 -0.127056
C38   C     C_R   0.223753 0.727027 0.816735 -0.149231
C39   C     C_R   0.275660 0.664123 0.858659 -0.161168
C40   C     C_R   0.673183 0.326243 0.094007 0.131750
C41   C     C_R   0.736430 0.362817 0.148032 -0.170702
C42   C     C_R   0.795031 0.307789 0.191137 -0.129384
C43   C     C_R   0.791467 0.216074 0.180019 -0.110383
C44   C     C_R   0.729429 0.179285 0.125583 -0.138944
C45   C     C_R   0.956425 0.582837 0.502788 -0.060227
C46   C     C_R   0.670810 0.234132 0.082267 -0.156422
C47   C     C_R   0.093393 0.667358 0.498179 0.140271
C48   C     C_R   0.146635 0.689527 0.569472 -0.154859
C49   C     C_R   0.193395 0.768324 0.566213 -0.134388
C50   C     C_R   0.186901 0.825791 0.492194 -0.102573
C51   C     C_R   0.133923 0.804372 0.421092 -0.130127
C52   C     C_R   0.087383 0.725377 0.423864 -0.133936
C53   C     C_R   0.907585 0.334567 0.508564 0.148478
C54   C     C_R   0.869171 0.306928 0.589100 -0.148561
C55   C     C_R   0.825693 0.226194 0.594255 -0.146747
C56   C     C_R   0.043481 0.419209 0.500635 -0.062979
C57   C     C_R   0.819752 0.172961 0.518989 -0.109619
C58   C     C_R   0.857724 0.200236 0.438546 -0.120953
C59   C     C_R   0.901696 0.280744 0.433235 -0.138074
C60   C     C_R   0.909371 0.667926 0.506643 0.139886
C61   C     C_R   0.858512 0.695713 0.434609 -0.155066
C62   C     C_R   0.813181 0.774882 0.439119 -0.128728
C63   C     C_R   0.818567 0.826934 0.515262 -0.099149
C64   C     C_R   0.869298 0.799892 0.587044 -0.132495
C65   C     C_R   0.914564 0.720637 0.582910 -0.133991
C66   C     C_R   0.089872 0.333883 0.498954 0.148691
C67   C     C_R   0.044942 0.582486 0.500750 -0.060430
C68   C     C_R   0.123852 0.303653 0.418361 -0.151364
C69   C     C_R   0.165452 0.222148 0.416196 -0.149017
C70   C     C_R   0.174135 0.170921 0.494504 -0.112033
C71   C     C_R   0.140743 0.200941 0.575050 -0.126796
C72   C     C_R   0.098485 0.282118 0.577363 -0.134736
C73   C     C_R   0.452339 0.100628 0.340071 0.123463
C74   C     C_R   0.499668 0.088312 0.261719 -0.119763
C75   C     C_R   0.480523 0.136402 0.183609 -0.130134
C76   C     C_R   0.415129 0.198270 0.183404 -0.107323
C77   C     C_R   0.367802 0.211087 0.261022 -0.123376
C78   C     C_R   0.955310 0.419550 0.503958 -0.063093
C79   C     C_R   0.385768 0.161983 0.338896 -0.159891
C80   C     C_R   0.561520 0.900351 0.653011 0.124723
C81   C     C_R   0.646688 0.912457 0.675935 -0.130896
C82   C     C_R   0.681956 0.863934 0.747010 -0.132562
C83   C     C_R   0.632572 0.802995 0.795587 -0.113665
C84   C     C_R   0.547761 0.790855 0.773441 -0.115487
C85   C     C_R   0.511999 0.839582 0.702745 -0.147725
C86   C     C_R   0.536326 0.090884 0.663729 0.130261
C87   C     C_R   0.482316 0.073950 0.736788 -0.132413
C88   C     C_R   0.495770 0.115972 0.817962 -0.136466
C89   C     C_R   0.912861 0.501238 0.503983 0.028831
C90   C     C_R   0.562969 0.175255 0.826687 -0.106851
C91   C     C_R   0.616994 0.192612 0.754364 -0.138512
C92   C     C_R   0.603845 0.150506 0.673008 -0.153398
C93   C     C_R   0.430795 0.908925 0.347100 0.129579
C94   C     C_R   0.345507 0.923846 0.326362 -0.131994
C95   C     C_R   0.309788 0.886607 0.250447 -0.123948
C96   C     C_R   0.358864 0.834367 0.194644 -0.121805
C97   C     C_R   0.443474 0.817968 0.215462 -0.146112
C98   C     C_R   0.479494 0.855031 0.291586 -0.148406
H1    H     H_    0.588688 0.391453 0.779234 0.148149
H2    H     H_    0.168775 0.705803 0.779970 0.122896
H3    H     H_    0.260422 0.594323 0.853800 0.129315
H4    H     H_    0.740215 0.433846 0.156749 0.128368
H5    H     H_    0.843352 0.336332 0.232871 0.123195
H6    H     H_    0.837041 0.173561 0.213123 0.111288
H7    H     H_    0.726847 0.108269 0.116786 0.121480
H8    H     H_    0.623297 0.204837 0.040147 0.109316
H9    H     H_    0.152144 0.645454 0.627139 0.118957
H10   H     H_    0.234792 0.784824 0.620947 0.133421
H11   H     H_    0.222943 0.886865 0.490003 0.113679
H12   H     H_    0.416636 0.611806 0.220575 0.158581
H13   H     H_    0.129113 0.848868 0.363710 0.119476
H14   H     H_    0.047064 0.709150 0.368061 0.121222
H15   H     H_    0.873608 0.347554 0.647882 0.120794
H16   H     H_    0.796976 0.204745 0.656731 0.121101
H17   H     H_    0.785991 0.110480 0.523093 0.111997
H18   H     H_    0.853394 0.158756 0.380489 0.118338
H19   H     H_    0.931355 0.301050 0.370808 0.111200
H20   H     H_    0.853955 0.655962 0.375224 0.121960
H21   H     H_    0.773863 0.795882 0.383588 0.122229
H22   H     H_    0.783508 0.888230 0.518568 0.113726
H23   H     H_    0.414421 0.607750 0.773682 0.162738
H24   H     H_    0.873408 0.840260 0.645965 0.118597
H25   H     H_    0.953289 0.700075 0.639138 0.119614
H26   H     H_    0.117224 0.342733 0.357284 0.119321
H27   H     H_    0.190623 0.198515 0.353741 0.122365
H28   H     H_    0.206537 0.107912 0.492703 0.112716
H29   H     H_    0.147327 0.161150 0.635608 0.122479
H30   H     H_    0.072330 0.304584 0.639929 0.119045
H31   H     H_    0.551348 0.041531 0.261204 0.119633
H32   H     H_    0.516369 0.125591 0.123233 0.119723
H33   H     H_    0.400986 0.236048 0.123047 0.126589
H34   H     H_    0.588074 0.392980 0.226588 0.172434
H35   H     H_    0.317079 0.258943 0.260770 0.126416
H36   H     H_    0.348260 0.171999 0.398411 0.129844
H37   H     H_    0.685773 0.959052 0.638380 0.110039
H38   H     H_    0.747653 0.873337 0.764204 0.118966
H39   H     H_    0.659996 0.765157 0.850381 0.124648
H40   H     H_    0.509910 0.743521 0.811026 0.144591
H41   H     H_    0.446054 0.829785 0.686547 0.128790
H42   H     H_    0.429799 0.028274 0.730728 0.117406
H43   H     H_    0.454066 0.102640 0.874087 0.120621
H44   H     H_    0.572937 0.207559 0.889567 0.117652
H45   H     H_    0.365014 0.670862 0.081450 0.147577
H46   H     H_    0.669022 0.238618 0.761408 0.114507
H47   H     H_    0.646065 0.164029 0.617397 0.125375
H48   H     H_    0.307224 0.965702 0.368155 0.108471
H49   H     H_    0.244323 0.899184 0.234253 0.118519
H50   H     H_    0.331209 0.807483 0.134935 0.122287
H51   H     H_    0.481397 0.777506 0.172020 0.135288
H52   H     H_    0.545536 0.843557 0.306099 0.119488
H53   H     H_    0.649303 0.340067 0.918405 0.143947
H54   H     H_    0.418670 0.804599 0.951494 0.129634
H55   H     H_    0.327401 0.914958 0.875620 0.124751
H56   H     H_    0.202616 0.865867 0.789516 0.119864
N1    N     N_1   0.500000 0.270550 0.500000 -0.086521
N2    N     N_1   0.500000 0.729450 0.500000 -0.087546
O1    O     O_R   0.378020 0.573650 0.500030 -0.609156
O2    O     O_R   0.621980 0.426350 0.499970 -0.611475
O3    O     O_R   0.621980 0.573650 0.499970 -0.605840
O4    O     O_R   0.378020 0.426350 0.500030 -0.608618
O5    O     O_R   0.499980 0.573670 0.367860 -0.619609
O6    O     O_R   0.500020 0.426330 0.632140 -0.614807
O7    O     O_R   0.500020 0.573670 0.632140 -0.616751
O8    O     O_R   0.499980 0.426330 0.367860 -0.612845
Zn1   Zn    Zn3+2 0.500000 0.598370 0.500000 0.981444
Zn2   Zn    Zn3+2 0.500000 0.401630 0.500000 0.984370

loop_
_geom_bond_atom_site_label_1
_geom_bond_atom_site_label_2
_ccdc_geom_bond_type
C25   C31   A    
C7    C10   A    
C66   C68   A    
C87   C88   A    
C45   C60   S    
C26   C32   A    
C16   C21   S    
C27   C29   A    
C41   C42   A    
C95   C96   A    
C83   H39   S    
C87   H42   S    
C43   C44   A    
C3    C6    T    
C71   H29   S    
C42   H5    S    
C68   H26   S    
C97   C98   A    
C53   C59   A    
C57   H17   S    
C53   C54   A    
C16   O8    A    
C7    C11   A    
C37   C38   A    
C72   H30   S    
C1    C5    S    
C36   C37   A    
O7    Zn1   S    
C24   C26   A    
C6    C12   S    
C38   C39   A    
C10   C73   S    
C64   H24   S    
C48   H9    S    
C52   H14   S    
N1    Zn2   S    
C54   H15   S    
C17   C20   S    
C56   C78   A    
C41   H4    S    
C73   C74   A    
C43   H6    S    
C17   O7    A    
C33   C35   A    
O6    Zn2   S    
C94   H48   S    
C66   C72   A    
C83   C84   A    
C68   C69   A    
C22   C25   A    
C45   C67   A    
C31   C33   S    
C81   H37   S    
C70   C71   A    
O4    Zn2   S    
C45   C89   A    
C85   H41   S    
C15   N1    T    
C61   C62   A    
C75   H32   S    
C14   N2    T    
C70   H28   S    
C65   H25   S    
C61   H20   S    
C84   H40   S    
C59   H19   S    
C58   H18   S    
C23   H45   S    
C69   C70   A    
C77   H35   S    
C7    C93   S    
C47   C67   S    
C44   C46   A    
C36   H55   S    
C39   H3    S    
C49   H10   S    
C77   C79   A    
C78   C89   A    
C96   H50   S    
C74   C75   A    
C51   C52   A    
C23   C30   A    
C95   H49   S    
C84   C85   A    
C38   H2    S    
C2    C67   A    
O1    Zn1   S    
C11   C14   S    
C86   C87   A    
C8    C9    A    
C58   C59   A    
C44   H7    S    
C29   C34   A    
C50   H11   S    
C81   C82   A    
O3    Zn1   S    
C60   C61   A    
C9    C80   S    
C32   C34   A    
C2    C4    S    
C75   C76   A    
C80   C85   A    
C24   H34   S    
C47   C48   A    
C13   C15   S    
C96   C97   A    
C62   C63   A    
C50   C51   A    
C73   C79   A    
C18   C29   A    
C33   C39   A    
C76   C77   A    
C9    C11   A    
C62   H21   S    
C90   H44   S    
C48   C49   A    
C88   C90   A    
C60   C65   A    
C82   C83   A    
C55   C57   A    
C21   C24   A    
C35   H54   S    
C40   C46   A    
C90   C91   A    
C88   H43   S    
C91   C92   A    
O2    Zn2   S    
C22   H23   S    
C91   H46   S    
C98   H52   S    
C19   H12   S    
C79   H36   S    
C54   C55   A    
C40   C41   A    
C51   H13   S    
C19   C21   A    
C92   H47   S    
C37   H56   S    
C1    O4    A    
C20   C22   A    
C80   C81   A    
C10   C13   A    
C18   H1    S    
C34   H53   S    
C47   C52   A    
C55   H16   S    
C16   O5    A    
C25   C27   A    
C93   C94   A    
C26   C28   A    
C3    C89   S    
C64   C65   A    
O8    Zn2   S    
C53   C78   S    
C71   C72   A    
C86   C92   A    
C63   H22   S    
C8    C86   S    
C57   C58   A    
N2    Zn1   S    
C56   C66   S    
C46   H8    S    
C1    O1    A    
C76   H33   S    
C28   C30   A    
C18   C20   A    
C32   C40   S    
C12   O3    A    
C82   H38   S    
C94   C95   A    
C17   O6    A    
C69   H27   S    
C63   C64   A    
C8    C13   A    
C4    C5    T    
C49   C50   A    
C42   C43   A    
C74   H31   S    
C27   C28   A    
C97   H51   S    
C2    C56   A    
C35   C36   A    
C12   O2    A    
C19   C30   A    
C93   C98   A    
O5    Zn1   S    
C23   C31   A    
