data_mof_unit_7292.cif
_audit_creation_date              2012-10-26T20:02:32-0400
_audit_creation_method            fapswitch 2.2
_symmetry_space_group_name_H-M    P1
_symmetry_Int_Tables_number       1
_space_group_crystal_system       triclinic
_cell_length_a                    18.893745
_cell_length_b                    18.642833
_cell_length_c                    12.445528
_cell_angle_alpha                 90.056762
_cell_angle_beta                  130.231518
_cell_angle_gamma                 90.04999
_cell_volume                      3346.70640566

loop_
_atom_site_label
_atom_site_type_symbol
_atom_type_description
_atom_site_fract_x
_atom_site_fract_y
_atom_site_fract_z
_atom_type_partial_charge
C1    C     C_R   0.611767 0.897863 0.652040 0.550414
C2    C     C_R   0.659577 0.725824 0.015343 0.051608
C3    C     C_R   0.156470 0.777935 0.008677 0.052088
C4    C     C_R   0.159579 0.225823 0.015344 0.051611
C5    C     C_R   0.578259 0.244669 0.889320 -0.129563
C6    C     C_R   0.581427 0.759199 0.896790 -0.134415
C7    C     C_R   0.078253 0.744723 0.889228 -0.129545
C8    C     C_R   0.081428 0.259197 0.896789 -0.134410
C9    C     C_R   0.583188 0.209700 0.796031 -0.112305
C10   C     C_R   0.585457 0.792675 0.801560 -0.118216
C11   C     C_R   0.083205 0.709730 0.795983 -0.112307
C12   C     C_R   0.610907 0.102784 0.650744 0.557563
C13   C     C_R   0.085458 0.292674 0.801560 -0.118219
C14   C     C_R   0.317104 0.813967 0.151960 -0.125314
C15   C     C_R   0.318646 0.186908 0.154039 -0.125475
C16   C     C_R   0.817081 0.313993 0.151909 -0.125320
C17   C     C_R   0.818644 0.686907 0.154036 -0.125482
C18   C     C_R   0.227242 0.848633 0.219666 -0.131749
C19   C     C_R   0.230057 0.154670 0.225194 -0.128092
C20   C     C_R   0.727273 0.348586 0.219747 -0.131757
C21   C     C_R   0.730056 0.654671 0.225193 -0.128094
C22   C     C_R   0.676644 0.161233 0.737961 0.011255
C23   C     C_R   0.111767 0.397864 0.652041 0.550407
C24   C     C_R   0.677725 0.839888 0.740130 0.004848
C25   C     C_R   0.176690 0.661202 0.738017 0.011270
C26   C     C_R   0.177727 0.339889 0.740132 0.004849
C27   C     C_R   0.681673 0.960751 0.293885 -0.033423
C28   C     C_R   0.181660 0.460720 0.293875 -0.033423
C29   C     C_R   0.342593 0.010305 0.625345 0.037647
C30   C     C_R   0.842594 0.510311 0.625345 0.037644
C31   C     C_R   0.307702 0.015345 0.695257 -0.038490
C32   C     C_R   0.807703 0.515355 0.695256 -0.038490
C33   C     C_R   0.384357 0.099057 0.342947 0.538489
C34   C     C_R   0.110918 0.602777 0.650757 0.557540
C35   C     C_R   0.383966 0.901199 0.342389 0.539990
C36   C     C_R   0.884356 0.599057 0.342947 0.538492
C37   C     C_R   0.883966 0.401198 0.342390 0.539995
C38   C     C_R   0.367161 0.009407 0.841596 -0.136675
C39   C     C_R   0.867159 0.509416 0.841595 -0.136682
C40   C     C_R   0.462844 0.997679 0.921192 -0.029922
C41   C     C_R   0.962841 0.497680 0.921190 -0.029925
C42   C     C_R   0.497035 0.993254 0.845910 0.156520
C43   C     C_R   0.997032 0.493251 0.845908 0.156522
C44   C     C_R   0.525732 0.990959 0.073326 -0.024989
C45   C     C_R   0.240397 0.779247 0.031328 0.033770
C46   C     C_R   0.025728 0.490955 0.073323 -0.024992
C47   C     C_R   0.617809 0.967778 0.145482 0.005413
C48   C     C_R   0.117798 0.467758 0.145473 0.005410
C49   C     C_R   0.647210 0.956153 0.070336 -0.161851
C50   C     C_R   0.147197 0.456130 0.070322 -0.161853
C51   C     C_R   0.595325 0.979005 0.932212 0.006206
C52   C     C_R   0.095319 0.478993 0.932207 0.006211
C53   C     C_R   0.501819 0.005733 0.158529 0.035969
C54   C     C_R   0.001820 0.505738 0.158529 0.035966
C55   C     C_R   0.654106 0.978880 0.369607 0.044300
C56   C     C_R   0.242613 0.223100 0.035541 0.033066
C57   C     C_R   0.154099 0.478862 0.369601 0.044313
C58   C     C_R   0.651125 0.311401 0.104363 -0.125595
C59   C     C_R   0.654677 0.693043 0.111863 -0.123353
C60   C     C_R   0.151092 0.811463 0.104255 -0.125592
C61   C     C_R   0.154678 0.193043 0.111863 -0.123349
C62   C     C_R   0.309667 0.851349 0.241382 -0.001415
C63   C     C_R   0.311272 0.149930 0.243846 0.001836
C64   C     C_R   0.809670 0.351344 0.241387 -0.001421
C65   C     C_R   0.811271 0.649930 0.243845 0.001827
C66   C     C_R   0.755644 0.167555 0.750393 -0.115224
C67   C     C_R   0.740371 0.279261 0.031302 0.033768
C68   C     C_R   0.756205 0.833176 0.751415 -0.116290
C69   C     C_R   0.255730 0.667467 0.750541 -0.115186
C70   C     C_R   0.256208 0.333180 0.751420 -0.116286
C71   C     C_R   0.327238 0.713362 0.849441 -0.132407
C72   C     C_R   0.327847 0.287711 0.850530 -0.130732
C73   C     C_R   0.827122 0.213487 0.849228 -0.132414
C74   C     C_R   0.827842 0.787706 0.850521 -0.130730
C75   C     C_R   0.323226 0.751072 0.941747 -0.112397
C76   C     C_R   0.324497 0.250724 0.944050 -0.113576
C77   C     C_R   0.823128 0.251173 0.941575 -0.112406
C78   C     C_R   0.742610 0.723098 0.035538 0.033066
C79   C     C_R   0.824492 0.750719 0.944041 -0.113571
C80   C     C_R   0.744862 0.245551 0.933302 0.041025
C81   C     C_R   0.746676 0.756526 0.936857 0.039138
C82   C     C_R   0.244915 0.745510 0.933377 0.041028
C83   C     C_R   0.246679 0.256528 0.936861 0.039139
C84   C     C_R   0.667557 0.205026 0.821650 0.030006
C85   C     C_R   0.669296 0.796873 0.825437 0.025719
C86   C     C_R   0.167596 0.705014 0.821677 0.029996
C87   C     C_R   0.169298 0.296874 0.825440 0.025720
C88   C     C_1   0.775884 0.935795 0.372028 0.158673
C89   C     C_R   0.656474 0.277902 0.008735 0.052094
C90   C     C_1   0.275861 0.435737 0.372011 0.158678
C91   C     C_1   0.210028 0.026813 0.616133 0.173946
C92   C     C_1   0.710030 0.526830 0.616132 0.173945
C93   C     C_1   0.659213 0.998540 0.911002 0.282342
C94   C     C_1   0.159210 0.498538 0.911010 0.282337
Cu1   Cu    Cu3+1 0.526340 0.000000 0.421010 0.932510
Cu2   Cu    Cu3+1 0.026340 0.500000 0.421010 0.932509
Cu3   Cu    Cu3+1 0.473640 0.000000 0.578990 0.933408
Cu4   Cu    Cu3+1 0.973640 0.500000 0.578990 0.933415
H1    H     H_    0.220426 0.877698 0.287964 0.128540
H2    H     H_    0.796235 0.515153 0.511884 0.125297
H3    H     H_    0.336575 0.012410 0.890623 0.109794
H4    H     H_    0.836574 0.512420 0.890622 0.109791
H5    H     H_    0.512859 0.245530 0.867815 0.101817
H6    H     H_    0.516540 0.759122 0.876897 0.101693
H7    H     H_    0.012831 0.745622 0.867658 0.101824
H8    H     H_    0.016541 0.259117 0.876893 0.101676
H9    H     H_    0.587157 0.310721 0.087355 0.109229
H10   H     H_    0.591430 0.694994 0.096805 0.110111
H11   H     H_    0.087102 0.810820 0.087181 0.109233
H12   H     H_    0.223398 0.126202 0.294110 0.126040
H13   H     H_    0.091431 0.194993 0.096804 0.110139
H14   H     H_    0.383721 0.813968 0.178253 0.121765
H15   H     H_    0.384500 0.185200 0.178070 0.119373
H16   H     H_    0.883681 0.314020 0.178145 0.121784
H17   H     H_    0.884499 0.685199 0.178067 0.119375
H18   H     H_    0.763610 0.135287 0.686371 0.133787
H19   H     H_    0.763657 0.864797 0.686241 0.129871
H20   H     H_    0.263706 0.635178 0.686552 0.133774
H21   H     H_    0.263660 0.364801 0.686247 0.129870
H22   H     H_    0.381759 0.785192 0.016192 0.104593
H23   H     H_    0.720477 0.377625 0.288090 0.128552
H24   H     H_    0.383322 0.217128 0.018677 0.100643
H25   H     H_    0.881634 0.285327 0.015966 0.104598
H26   H     H_    0.883316 0.717121 0.018666 0.100652
H27   H     H_    0.387729 0.717894 0.857861 0.107879
H28   H     H_    0.387970 0.282938 0.858120 0.108591
H29   H     H_    0.887576 0.218070 0.857563 0.107890
H30   H     H_    0.887963 0.782930 0.858108 0.108581
H31   H     H_    0.519241 0.187815 0.702014 0.149193
H32   H     H_    0.521105 0.813742 0.707476 0.150487
H33   H     H_    0.019259 0.687857 0.701942 0.149164
H34   H     H_    0.723397 0.626203 0.294111 0.126040
H35   H     H_    0.021106 0.313740 0.707475 0.150480
H36   H     H_    0.701581 0.973231 0.482990 0.127545
H37   H     H_    0.201574 0.473205 0.482982 0.127538
H38   H     H_    0.718194 0.938666 0.126568 0.141979
H39   H     H_    0.218177 0.438635 0.126549 0.141980
H40   H     H_    0.432595 0.021226 0.113158 0.121469
H41   H     H_    0.932599 0.521244 0.113160 0.121463
H42   H     H_    0.296233 0.015145 0.511883 0.125294
N1    N     N_R   0.566260 0.000000 0.302220 -0.246630
N2    N     N_1   0.216298 0.512142 0.904699 -0.298808
N3    N     N_R   0.066260 0.500000 0.302220 -0.246625
N4    N     N_R   0.434410 0.000000 0.697680 -0.250236
N5    N     N_R   0.934410 0.500000 0.697680 -0.250233
N6    N     N_1   0.851171 0.915790 0.434577 -0.285954
N7    N     N_1   0.351139 0.415710 0.434559 -0.285966
N8    N     N_1   0.131561 0.036053 0.552598 -0.278381
N9    N     N_1   0.631563 0.536075 0.552597 -0.278396
N10   N     N_1   0.716297 0.012138 0.904681 -0.298796
O1    O     O_R   0.608610 0.924520 0.551740 -0.507717
O2    O     O_R   0.435880 0.924530 0.314850 -0.500338
O3    O     O_R   0.935880 0.575470 0.314850 -0.508680
O4    O     O_R   0.935880 0.424530 0.314850 -0.500344
O5    O     O_R   0.391380 0.075460 0.448260 -0.518168
O6    O     O_R   0.391380 0.924540 0.448260 -0.511432
O7    O     O_R   0.891380 0.575460 0.448260 -0.518162
O8    O     O_R   0.891380 0.424540 0.448260 -0.511437
O9    O     O_R   0.608610 0.075480 0.551740 -0.499050
O10   O     O_R   0.108610 0.424520 0.551740 -0.507726
O11   O     O_R   0.108610 0.575480 0.551740 -0.499046
O12   O     O_R   0.564110 0.924510 0.685150 -0.504570
O13   O     O_R   0.564110 0.075490 0.685150 -0.496021
O14   O     O_R   0.064110 0.424510 0.685150 -0.504573
O15   O     O_R   0.064110 0.575490 0.685150 -0.496001
O16   O     O_R   0.435880 0.075470 0.314850 -0.508685

loop_
_geom_bond_atom_site_label_1
_geom_bond_atom_site_label_2
_ccdc_geom_bond_type
C83   C87   A    
C5    H5    S    
C10   C85   A    
C8    C13   A    
C55   N1    A    
C12   C22   S    
C33   O16   A    
C80   C84   A    
C34   O11   A    
C50   H39   S    
C39   C41   A    
C28   C57   A    
C7    C11   A    
C5    C9    A    
C75   H22   S    
C66   H18   S    
C39   H4    S    
C43   N5    A    
Cu2   O4    S    
C19   H12   S    
C21   C59   A    
C38   H3    S    
C3    C7    A    
C27   C55   A    
C43   C52   A    
C23   C26   S    
C45   C82   A    
C11   C86   A    
C68   C74   A    
C14   C62   A    
C30   H2    S    
C69   H20   S    
C67   C89   A    
Cu2   O11   S    
C58   H9    S    
Cu3   O6    S    
C69   C71   A    
C22   C66   A    
C60   H11   S    
C44   C53   A    
C74   H30   S    
Cu4   O8    S    
C19   C63   A    
C26   C87   A    
C49   C51   A    
Cu2   Cu4   S    
C50   C52   A    
C41   C46   A    
C7    H7    S    
C52   C94   S    
C6    H6    S    
C34   O15   A    
C24   C85   A    
C16   H16   S    
C44   C47   A    
C4    C8    A    
C42   C51   A    
C3    C60   A    
C40   C42   A    
C54   N3    A    
C38   C40   A    
C4    C56   A    
C41   C43   A    
C13   C87   A    
C93   N10   T    
C2    C6    A    
C56   C83   A    
C54   H41   S    
C76   C83   A    
C91   N8    T    
C28   C90   S    
C36   O3    A    
C14   C45   A    
C46   C48   A    
C71   C75   A    
C57   N3    A    
C53   H40   S    
C94   N2    T    
C35   O6    A    
C47   C49   A    
C79   C81   A    
C2    C59   A    
C18   C62   A    
Cu3   O13   S    
C73   H29   S    
C29   N4    A    
C4    C61   A    
C3    C45   A    
C72   H28   S    
C22   C84   A    
C37   O8    A    
C20   C64   A    
C14   H14   S    
C10   H32   S    
Cu3   N4    S    
C21   H34   S    
C90   N7    T    
C77   H25   S    
C68   H19   S    
C25   C86   A    
Cu2   O3    S    
Cu4   O7    S    
C70   H21   S    
C33   C63   S    
C23   O10   A    
C46   C54   A    
C15   H15   S    
C72   C76   A    
C16   C67   A    
C20   H23   S    
C36   O7    A    
C51   C93   S    
C18   C60   A    
Cu2   O10   S    
C49   H38   S    
C1    O12   A    
Cu1   N1    S    
C31   C91   S    
C74   C79   A    
C42   N4    A    
C26   C70   A    
Cu1   O9    S    
C25   C69   A    
C18   H1    S    
C20   C58   A    
C61   H13   S    
Cu1   O16   S    
C37   C64   S    
C2    C78   A    
C17   H17   S    
C30   N5    A    
C23   O14   A    
C77   C80   A    
C27   C47   A    
C29   H42   S    
Cu1   Cu3   S    
C28   C48   A    
C15   C63   A    
C21   C65   A    
C36   C65   S    
C13   H35   S    
C37   O4    A    
C57   H37   S    
C67   C80   A    
C8    H8    S    
C6    C10   A    
Cu4   O14   S    
C33   O5    A    
C75   C82   A    
Cu4   N5    S    
C9    H31   S    
C55   H36   S    
C79   H26   S    
C25   C34   S    
C17   C65   A    
C59   H10   S    
C31   C38   A    
C76   H24   S    
C15   C56   A    
C11   H33   S    
C29   C31   A    
C82   C86   A    
Cu2   N3    S    
C30   C32   A    
C66   C73   A    
C78   C81   A    
C32   C92   S    
C19   C61   A    
C48   C50   A    
C17   C78   A    
C1    O1    A    
C35   C62   S    
C53   N1    A    
Cu3   O5    S    
C12   O9    A    
C27   C88   S    
C58   C89   A    
C5    C89   A    
Cu4   O15   S    
C24   C68   A    
C9    C84   A    
C40   C44   A    
Cu1   O1    S    
C1    C24   S    
Cu3   O12   S    
C35   O2    A    
C92   N9    T    
C32   C39   A    
C73   C77   A    
C71   H27   S    
C70   C72   A    
Cu1   O2    S    
C16   C64   A    
C88   N6    T    
C81   C85   A    
C12   O13   A    
