data_mof_unit_6117.cif
_audit_creation_date              2013-03-05T16:11:10-0500
_audit_creation_method            fapswitch 2.2
_symmetry_space_group_name_H-M    P1
_symmetry_Int_Tables_number       1
_space_group_crystal_system       triclinic
_cell_length_a                    9.922282
_cell_length_b                    10.611803
_cell_length_c                    13.66394
_cell_angle_alpha                 90.717302
_cell_angle_beta                  82.997874
_cell_angle_gamma                 89.937816
_cell_volume                      1427.87399386

loop_
_atom_site_label
_atom_site_type_symbol
_atom_site_description
_atom_site_fract_x
_atom_site_fract_y
_atom_site_fract_z
_atom_type_partial_charge
O1    O     O_R   0.385380 0.683250 0.500010 -0.594588
O2    O     O_R   0.614620 0.316750 0.499990 -0.594589
O3    O     O_R   0.614710 0.683220 0.500000 -0.569145
O4    O     O_R   0.385290 0.316780 0.500000 -0.569148
C1    C     C_R   0.500311 0.739513 0.498723 0.910766
C2    C     C_R   0.499689 0.260487 0.501277 0.910763
O5    O     O_R   0.368830 0.499990 0.640350 -0.575193
O6    O     O_R   0.631170 0.500010 0.359650 -0.575203
O7    O     O_R   0.598160 0.499960 0.640350 -0.576271
O8    O     O_R   0.401840 0.500040 0.359650 -0.576261
C3    C     C_R   0.475690 0.500943 0.685346 0.897240
C4    C     C_R   0.524310 0.499058 0.314654 0.897238
Zn1   Zn    Zn3+2 0.346870 0.500020 0.500000 1.101056
Zn2   Zn    Zn3+2 0.653130 0.499980 0.500000 1.101050
C5    C     C_R   0.936876 0.409305 0.449212 0.235036
C6    C     C_R   0.063124 0.590697 0.550786 0.235035
C7    C     C_R   0.080497 0.409211 0.449370 0.239575
C8    C     C_R   0.919503 0.590790 0.550630 0.239568
C9    C     C_1   0.542455 0.493257 0.211416 -0.003445
C10   C     C_1   0.457542 0.506749 0.788584 -0.003455
C11   C     C_2   0.556174 0.482767 0.020107 0.161432
C12   C     C_2   0.443800 0.517252 0.979895 0.161425
C13   C     C_1   0.447081 0.512286 0.875972 0.096194
C14   C     C_1   0.552906 0.487727 0.124028 0.096227
C15   C     C_R   0.581423 0.935846 0.423582 0.299686
C16   C     C_R   0.418576 0.064154 0.576417 0.299685
C17   C     C_R   0.579980 0.065308 0.425969 -0.144903
C18   C     C_R   0.420019 0.934692 0.574030 -0.144904
H1    H     H_    0.639413 0.117027 0.367947 0.219043
H2    H     H_    0.360585 0.882973 0.632052 0.219045
C19   C     C_R   0.499325 0.128111 0.501922 -0.142876
C20   C     C_R   0.500675 0.871889 0.498078 -0.142877
N1    N     N_R   0.142790 0.500030 0.500020 -0.217824
N2    N     N_R   0.857210 0.499970 0.499980 -0.217825
N3    N     N_R   0.875777 0.314133 0.394568 0.248359
O9    O     O_R   0.846644 0.338545 0.306540 -0.307289
O10   O     O_R   0.876816 0.197710 0.423098 -0.301157
N4    N     N_R   0.124224 0.685874 0.605424 0.248360
O11   O     O_R   0.153381 0.661465 0.693447 -0.307298
O12   O     O_R   0.123174 0.802296 0.576894 -0.301150
N5    N     N_R   0.160418 0.314528 0.394271 0.257248
O13   O     O_R   0.163789 0.201123 0.428969 -0.284579
O14   O     O_R   0.202887 0.333224 0.301802 -0.282781
N6    N     N_R   0.839581 0.685472 0.605728 0.257247
O15   O     O_R   0.836205 0.798876 0.571029 -0.284577
O16   O     O_R   0.797115 0.666778 0.698198 -0.282775
N7    N     N_R   0.319278 0.557815 0.037695 0.225556
O17   O     O_R   0.237918 0.634109 0.999340 -0.262219
O18   O     O_R   0.275963 0.503948 0.120621 -0.302453
N8    N     N_R   0.680689 0.442203 0.962299 0.225528
O19   O     O_R   0.761998 0.365824 0.000619 -0.262247
O20   O     O_R   0.724053 0.496149 0.879417 -0.302401
Br1   Br    Br    0.689229 0.851363 0.315850 -0.326463
Br2   Br    Br    0.310769 0.148637 0.684149 -0.326466

loop_
_geom_bond_atom_site_label_1
_geom_bond_atom_site_label_2
_geom_bond_distance
_ccdc_geom_bond_type
Zn2   N2    2.024905 S    
O5    C3    1.288853 A    
O7    Zn2   1.928777 S    
Zn1   N1    2.024907 S    
C8    N6    1.427919 S    
C6    N1    1.371010 A    
C17   H1    1.084039 S    
N5    O14   1.299993 A    
N5    O13   1.300846 A    
C5    N2    1.371009 A    
C16   C18   1.373818 A    
N7    O17   1.301609 A    
C10   C13   1.186597 T    
C18   C20   1.393091 A    
O6    C4    1.288854 A    
C1    C20   1.404893 S    
C15   C20   1.399395 A    
C18   H2    1.084039 S    
C9    C14   1.186598 T    
C16   C19   1.399396 A    
N7    O18   1.301304 A    
C11   C12   1.353729 D    
N4    O12   1.300550 A    
O7    C3    1.293233 A    
O2    C2    1.286117 A    
O3    Zn2   1.981115 S    
O8    C4    1.293231 A    
O1    C1    1.286117 A    
C16   Br2   1.922468 S    
C4    C9    1.400705 S    
C5    N3    1.427523 S    
C11   N8    1.444989 S    
N3    O10   1.300549 A    
C15   Br1   1.922468 S    
C12   N7    1.445002 S    
C8    N2    1.370666 A    
N4    O11   1.299938 A    
O2    Zn2   1.982000 S    
C7    N5    1.427921 S    
C3    C10   1.400707 S    
O4    C2    1.284221 A    
O1    Zn1   1.981998 S    
C17   C19   1.393090 A    
C2    C19   1.404893 S    
O5    Zn1   1.956291 S    
N6    O15   1.300848 A    
C6    C8    1.425308 A    
C11   C14   1.416706 S    
N8    O20   1.301302 A    
C5    C7    1.425307 A    
C12   C13   1.416712 S    
O6    Zn2   1.956293 S    
N6    O16   1.299992 A    
C7    N1    1.370666 A    
N8    O19   1.301604 A    
C15   C17   1.373818 A    
N3    O9    1.299938 A    
O4    Zn1   1.981116 S    
C6    N4    1.427525 S    
O3    C1    1.284221 A    
O8    Zn1   1.928778 S    
