data_mof_unit_52202.cif
_audit_creation_date              2012-10-26T18:52:46-0400
_audit_creation_method            fapswitch 2.2
_symmetry_space_group_name_H-M    P1
_symmetry_Int_Tables_number       1
_space_group_crystal_system       triclinic
_cell_length_a                    10.756971
_cell_length_b                    14.708813
_cell_length_c                    14.819193
_cell_angle_alpha                 64.608225
_cell_angle_beta                  104.289416
_cell_angle_gamma                 103.133246
_cell_volume                      2032.85837232

loop_
_atom_site_label
_atom_site_type_symbol
_atom_type_description
_atom_site_fract_x
_atom_site_fract_y
_atom_site_fract_z
_atom_type_partial_charge
C1    C     C_R   0.478962 0.119892 0.312205 0.571490
C2    C     C_R   0.514388 0.357546 0.074564 -0.014482
C3    C     C_R   0.463964 0.317778 0.999015 0.059541
C4    C     C_R   0.259872 0.000179 0.499464 0.603366
C5    C     C_R   0.560086 0.463076 0.046112 0.007987
C6    C     C_R   0.536391 0.530459 0.942472 0.074263
C7    C     C_R   0.493862 0.488395 0.867580 0.214392
C8    C     C_R   0.457942 0.383247 0.897084 -0.076913
C9    C     C_R   0.632557 0.502851 0.117898 -0.107609
C10   C     C_R   0.670879 0.606342 0.090808 -0.068429
C11   C     C_R   0.634045 0.674944 0.992040 0.084513
C12   C     C_3   0.877646 0.997008 0.502915 0.036448
C13   C     C_R   0.561732 0.637391 0.917946 0.016417
C14   C     C_R   0.668202 0.780581 0.966408 0.256088
C15   C     C_R   0.629672 0.848474 0.866653 -0.116769
C16   C     C_R   0.523613 0.880079 0.687726 0.557544
C17   C     C_R   0.512679 0.708108 0.822990 -0.085913
C18   C     C_R   0.726742 0.283766 0.667840 0.203234
C19   C     C_R   0.688216 0.202869 0.635816 0.005466
C20   C     C_R   0.517458 0.285228 0.512864 0.365664
C21   C     C_R   0.564327 0.376267 0.531215 -0.066799
C22   C     C_R   0.662993 0.370532 0.615851 0.051166
C23   C     C_3   0.961433 0.989891 0.607714 0.091144
C24   C     C_R   0.515012 0.471157 0.470633 -0.053616
C25   C     C_R   0.537177 0.547733 0.510401 -0.019809
C26   C     C_R   0.630992 0.536376 0.598434 -0.132514
C27   C     C_R   0.695793 0.451370 0.647659 -0.077032
C28   C     C_R   0.739933 0.998703 0.501631 0.607738
C29   C     C_R   0.450444 0.494660 0.369180 0.287519
C30   C     C_R   0.373972 0.572250 0.322525 0.286343
C31   C     C_R   0.382709 0.642588 0.366141 -0.063670
C32   C     C_R   0.468187 0.634178 0.458330 -0.047473
C33   C     C_R   0.315628 0.726289 0.314021 -0.072837
C34   C     C_3   0.931055 0.099159 0.420500 0.017437
C35   C     C_R   0.330830 0.800943 0.350691 0.378356
C36   C     C_R   0.481486 0.713808 0.492833 0.043446
C37   C     C_3   0.034604 0.908875 0.474206 0.088150
C38   C     C_3   0.891968 0.905857 0.479537 0.134297
C39   C     C_3   0.105663 0.989595 0.606000 0.112037
C40   C     C_3   0.075139 0.099798 0.419049 -0.250589
C41   C     C_3   0.121535 0.998716 0.500023 -0.005783
C42   C     C_R   0.472268 0.187025 0.204202 -0.018067
C43   C     C_R   0.552553 0.812126 0.794915 -0.031905
C44   C     C_R   0.421977 0.212639 0.026281 0.249759
C45   C     C_R   0.427671 0.147925 0.129177 -0.106979
C46   C     C_R   0.513707 0.290961 0.176509 -0.101386
Cu1   Cu    Cu3+1 0.465900 0.918260 0.475680 1.013907
Cu2   Cu    Cu3+1 0.534100 0.081740 0.524320 1.015422
H1    H     H_    0.425643 0.352649 0.839127 0.169210
H2    H     H_    0.350545 0.100287 0.983582 0.340606
H3    H     H_    0.395971 0.067221 0.150399 0.163027
H4    H     H_    0.542033 0.318874 0.235948 0.161639
H5    H     H_    0.009029 0.854902 0.370940 0.345562
H6    H     H_    0.457973 0.509033 0.724793 0.321408
H7    H     H_    0.755979 0.890911 0.008546 0.335260
H8    H     H_    0.769787 0.448075 0.713142 0.190042
H9    H     H_    0.547921 0.714029 0.560236 0.175758
H10   H     H_    0.257193 0.917185 0.330709 0.397685
H11   H     H_    0.211644 0.593071 0.230529 0.310441
H12   H     H_    0.727642 0.632411 0.148734 0.178575
H13   H     H_    0.859903 0.213985 0.775644 0.326335
H14   H     H_    0.737970 0.136599 0.672977 0.109709
H15   H     H_    0.340845 0.311868 0.458459 0.311737
H16   H     H_    0.832646 0.914289 0.404119 0.201724
H17   H     H_    0.659532 0.593681 0.629444 0.166341
H18   H     H_    0.551433 0.423901 0.335597 0.310887
H19   H     H_    0.253758 0.737929 0.241431 0.156391
H20   H     H_    0.904948 0.787415 0.610731 0.353525
H21   H     H_    0.109868 0.842939 0.681184 0.344023
H22   H     H_    0.841737 0.921939 0.704241 0.326087
H23   H     H_    0.666733 0.455102 0.195272 0.110792
H24   H     H_    0.134988 0.165263 0.435226 0.122815
H25   H     H_    0.089284 0.111580 0.342710 0.205039
H26   H     H_    0.871976 0.074899 0.295168 0.352593
H27   H     H_    0.070424 0.836046 0.529033 0.139923
H28   H     H_    0.927435 0.162601 0.441474 0.165604
H29   H     H_    0.162049 0.058611 0.617209 0.156106
H30   H     H_    0.957304 0.059421 0.619183 0.084888
H31   H     H_    0.440256 0.684191 0.769844 0.201196
H32   H     H_    0.660799 0.929315 0.845008 0.117900
N1    N     N_R   0.585360 0.204570 0.560800 -0.227625
N2    N     N_R   0.414550 0.795430 0.439160 -0.254114
O1    O     O_R   0.455060 0.022100 0.338110 -0.506358
O2    O     O_3   0.043089 0.921480 0.376112 -0.726003
O3    O     O_3   0.499677 0.548720 0.766747 -0.744611
O4    O     O_3   0.741047 0.815565 0.039008 -0.693000
O5    O     O_3   0.265013 0.882201 0.289806 -0.695110
O6    O     O_3   0.298467 0.581359 0.229900 -0.627538
O7    O     O_3   0.826476 0.279944 0.748147 -0.699890
O8    O     O_3   0.400143 0.272467 0.453074 -0.628248
O9    O     O_3   0.465090 0.447067 0.310658 -0.621668
O10   O     O_3   0.840596 0.810963 0.547986 -0.701732
O11   O     O_3   0.159301 0.906348 0.686728 -0.647904
O12   O     O_R   0.512640 0.160150 0.379180 -0.458640
O13   O     O_3   0.915469 0.904294 0.688618 -0.661532
O14   O     O_3   0.853900 0.119301 0.323878 -0.692337
O15   O     O_R   0.288900 0.930980 0.479450 -0.507840
O16   O     O_R   0.346480 0.069030 0.520520 -0.454475
O17   O     O_R   0.487360 0.839850 0.620820 -0.508107
O18   O     O_R   0.544940 0.977900 0.661890 -0.510967
O19   O     O_R   0.653520 0.930970 0.479480 -0.457715
O20   O     O_R   0.711100 0.069020 0.520550 -0.544168
O21   O     O_3   0.375670 0.174861 0.951560 -0.697805

loop_
_geom_bond_atom_site_label_1
_geom_bond_atom_site_label_2
_ccdc_geom_bond_type
Cu1   O19   S    
C4    O16   A    
H10   O5    S    
C7    C8    A    
C39   C41   S    
C7    O3    S    
C2    C46   A    
C12   C23   S    
C26   C27   A    
C29   C30   A    
Cu2   O12   S    
C12   C28   S    
H5    O2    S    
C34   C40   S    
C32   C36   A    
C21   C22   A    
C34   O14   S    
H21   O11   S    
C30   C31   A    
C11   C14   A    
C4    C41   S    
C45   H3    S    
C19   H14   S    
C46   H4    S    
C17   H31   S    
Cu1   O17   S    
Cu2   N1    S    
C18   C19   A    
C42   C46   A    
Cu1   N2    S    
H11   O6    S    
C39   O11   S    
H20   O10   S    
C24   C29   A    
C35   O5    S    
C28   O19   A    
C35   N2    A    
Cu1   Cu2   S    
C36   N2    A    
C1    O12   A    
C31   C33   A    
C37   O2    S    
Cu1   O1    S    
C9    C10   A    
C25   C32   A    
C37   H27   S    
H2    O21   S    
C20   N1    A    
C12   C38   S    
C26   H17   S    
C44   O21   S    
H13   O7    S    
C38   H16   S    
Cu2   O18   S    
C3    C44   A    
H26   O14   S    
C24   C25   A    
C14   O4    S    
C36   H9    S    
C27   H8    S    
C16   O18   A    
C25   C26   A    
C20   O8    S    
C42   C45   A    
C10   H12   S    
C17   C43   A    
C5    C9    A    
C37   C38   S    
C15   H32   S    
Cu2   O20   S    
C16   C43   S    
C6    C7    A    
C40   C41   S    
C3    C8    A    
C22   C27   A    
C2    C5    A    
C12   C34   S    
C39   H29   S    
C29   O9    S    
C44   C45   A    
C33   H19   S    
C40   H24   S    
C18   C22   A    
C18   O7    S    
C31   C32   A    
C9    H23   S    
H6    O3    S    
C16   O17   A    
H18   O9    S    
C1    O1    A    
Cu2   O16   S    
Cu1   O15   S    
C13   C17   A    
H7    O4    S    
H22   O13   S    
C15   C43   A    
C19   N1    A    
C6    C13   A    
C11   C13   A    
C5    C6    A    
C23   C39   S    
H15   O8    S    
C33   C35   A    
C23   O13   S    
C2    C3    A    
C23   H30   S    
C37   C41   S    
C10   C11   A    
C28   O20   A    
C1    C42   S    
C20   C21   A    
C21   C24   A    
C14   C15   A    
C40   H25   S    
C4    O15   A    
C30   O6    S    
C8    H1    S    
C38   O10   S    
C34   H28   S    
