data_mof_unit_11145.cif
_audit_creation_date              2012-12-11T17:09:37-0500
_audit_creation_method            fapswitch 2.2
_symmetry_space_group_name_H-M    P1
_symmetry_Int_Tables_number       1
_space_group_crystal_system       triclinic
_cell_length_a                    14.810635
_cell_length_b                    6.919917
_cell_length_c                    13.514461
_cell_angle_alpha                 89.979398
_cell_angle_beta                  99.821692
_cell_angle_gamma                 90.031854
_cell_volume                      1364.77424217

loop_
_atom_site_label
_atom_site_type_symbol
_atom_type_description
_atom_site_fract_x
_atom_site_fract_y
_atom_site_fract_z
_atom_type_partial_charge
O1    O     O_R   0.586930 0.505770 0.416350 -0.537542
O2    O     O_R   0.413070 0.005770 0.583650 -0.537912
O3    O     O_R   0.397900 0.173100 0.389630 -0.537128
O4    O     O_R   0.602100 0.673100 0.610370 -0.536434
C1    C     C_R   0.364233 0.345422 0.362828 0.725064
C2    C     C_R   0.635783 0.845442 0.637153 0.727285
O5    O     O_R   0.585280 0.175870 0.404330 -0.545450
O6    O     O_R   0.414720 0.675870 0.595670 -0.544626
O7    O     O_R   0.601790 0.008380 0.598460 -0.534071
O8    O     O_R   0.398210 0.508380 0.401540 -0.535246
C3    C     C_R   0.614584 0.344777 0.382848 0.710959
C4    C     C_R   0.385293 0.844590 0.617047 0.710527
O9    O     O_3   0.505200 0.340120 0.563670 -0.368578
O10   O     O_3   0.494800 0.840120 0.436330 -0.369293
V1    V     V_3+5 0.499040 0.064180 0.488190 1.415686
V2    V     V_3+5 0.500960 0.564180 0.511810 1.416325
C5    C     C_R   0.324463 0.984654 0.764385 0.095580
C6    C     C_R   0.756784 0.483012 0.331909 0.100477
C7    C     C_R   0.317672 0.851089 0.685878 -0.159970
C8    C     C_R   0.683887 0.351869 0.316059 -0.161856
C9    C     C_R   0.245359 0.716330 0.676770 -0.152365
C10   C     C_R   0.681719 0.218311 0.237089 -0.157911
H1    H     H_    0.238882 0.607889 0.618142 0.135491
H2    H     H_    0.627586 0.111219 0.223875 0.141272
C11   C     C_R   0.176481 0.729421 0.737205 0.183105
C12   C     C_R   0.744505 0.230404 0.169472 0.188296
C13   C     C_R   0.181487 0.875070 0.812568 -0.153192
C14   C     C_R   0.814782 0.374077 0.183011 -0.155612
C15   C     C_R   0.258998 0.994835 0.826671 0.068657
C16   C     C_R   0.820858 0.492577 0.268002 0.068321
C17   C     C_3   0.266722 0.209635 0.833786 -0.403082
C18   C     C_3   0.828451 0.707015 0.278306 -0.392771
C19   C     C_3   0.338309 0.198062 0.765536 -0.378232
C20   C     C_3   0.758156 0.696175 0.348136 -0.388575
H3    H     H_    0.295118 0.258869 0.911123 0.165522
H4    H     H_    0.802647 0.782666 0.206825 0.186321
H5    H     H_    0.202894 0.282760 0.798190 0.190214
H6    H     H_    0.897418 0.753245 0.316861 0.170162
H7    H     H_    0.408077 0.239764 0.803734 0.167593
H8    H     H_    0.691892 0.766354 0.316794 0.182783
H9    H     H_    0.315673 0.265649 0.690751 0.180366
H10   H     H_    0.786746 0.735546 0.426997 0.161583
C21   C     C_1   0.783474 0.877092 0.782857 -0.184491
C22   C     C_1   0.216533 0.377111 0.217142 -0.190304
C23   C     C_1   0.716223 0.860155 0.716796 -0.186285
C24   C     C_1   0.283791 0.360124 0.283188 -0.184779
O11   O     O_R   0.101720 0.231700 0.098560 -0.533836
O12   O     O_R   0.898280 0.731700 0.901440 -0.536608
O13   O     O_R   0.914700 0.558980 0.095690 -0.540345
O14   O     O_R   0.085300 0.058980 0.904310 -0.539948
C25   C     C_R   0.883494 0.389540 0.115098 0.704131
C26   C     C_R   0.113055 0.889292 0.880826 0.702607
O15   O     O_R   0.102080 0.561590 0.110390 -0.535427
O16   O     O_R   0.897920 0.061590 0.889610 -0.538305
O17   O     O_R   0.086950 0.728940 0.916330 -0.543391
O18   O     O_R   0.913050 0.228940 0.083670 -0.542589
C27   C     C_R   0.136107 0.391909 0.137490 0.739227
C28   C     C_R   0.863886 0.891890 0.862518 0.728184
O19   O     O_3   0.994770 0.394510 0.936380 -0.372667
O20   O     O_3   0.005230 0.894510 0.063620 -0.367775
V3    V     V_3+5 0.000970 0.670520 0.011800 1.407743
V4    V     V_3+5 0.999030 0.170520 0.988200 1.406603
N1    N     N_3   0.098167 0.605593 0.713363 -0.677953
H11   H     H_    0.093400 0.517648 0.774927 0.244565
H12   H     H_    0.039416 0.691731 0.698739 0.219790
N2    N     N_3   0.729244 0.107331 0.082876 -0.679110
H13   H     H_    0.723278 0.193413 0.018489 0.223064
H14   H     H_    0.785078 0.014916 0.084504 0.236159

loop_
_geom_bond_atom_site_label_1
_geom_bond_atom_site_label_2
_ccdc_geom_bond_type
O4    V2    S    
O5    C3    A    
C17   C19   S    
O9    V2    S    
O12   C28   A    
C6    C16   A    
C2    C23   S    
C18   H6    S    
C11   C13   A    
C5    C15   A    
C1    C24   S    
C12   C14   A    
C20   H10   S    
C26   O17   A    
C22   C27   S    
O6    C4    A    
C19   H9    S    
N1    H12   S    
C2    O7    A    
O5    V1    S    
N2    H13   S    
O7    V1    S    
O2    C4    A    
C1    O8    A    
C15   C17   S    
O1    V2    S    
O8    V2    S    
O1    C3    A    
O20   V4    S    
C16   C18   S    
O2    V1    S    
C6    C20   S    
O12   V3    S    
C19   H7    S    
C5    C19   S    
O11   V4    S    
C20   H8    S    
C18   H4    S    
C4    C7    S    
C14   C16   A    
C7    C9    A    
C8    C10   A    
O18   V4    S    
O9    V1    S    
C9    H1    S    
C10   C12   A    
O14   V4    S    
C14   C25   S    
O10   V2    S    
C3    C8    S    
O19   V3    S    
O13   V3    S    
N2    H14   S    
N1    H11   S    
C12   N2    S    
O17   V3    S    
O3    V1    S    
C13   C26   S    
C6    C8    A    
O4    C2    A    
C25   O18   A    
C11   N1    S    
C10   H2    S    
O16   C28   A    
O14   C26   A    
C17   H3    S    
O15   C27   A    
O10   V1    S    
O19   V4    S    
C9    C11   A    
O6    V2    S    
O16   V4    S    
C21   C28   S    
C5    C7    A    
C13   C15   A    
O13   C25   A    
O15   V3    S    
C21   C23   T    
O11   C27   A    
C17   H5    S    
C22   C24   T    
O20   V3    S    
O3    C1    A    
C18   C20   S    
