data_mof_unit_41646.cif
_audit_creation_date              2012-12-10T17:35:39-0500
_audit_creation_method            fapswitch 2.2
_symmetry_space_group_name_H-M    P1
_symmetry_Int_Tables_number       1
_space_group_crystal_system       triclinic
_cell_length_a                    10.734477
_cell_length_b                    12.346137
_cell_length_c                    13.225568
_cell_angle_alpha                 116.41565
_cell_angle_beta                  77.686897
_cell_angle_gamma                 102.055438
_cell_volume                      1520.58991492

loop_
_atom_site_label
_atom_site_type_symbol
_atom_type_description
_atom_site_fract_x
_atom_site_fract_y
_atom_site_fract_z
_atom_type_partial_charge
C1    C     C_R   0.507642 0.854507 0.286942 0.855499
C2    C     C_3   0.121483 0.002415 0.504792 0.108720
C3    C     C_3   0.081139 0.130858 0.582685 -0.393908
C4    C     C_3   0.036420 0.910729 0.550307 -0.357494
C5    C     C_R   0.432587 0.261449 0.032737 0.167740
C6    C     C_R   0.483946 0.226572 0.834314 -0.091050
C7    C     C_R   0.563867 0.818267 0.084347 -0.128198
C8    C     C_R   0.599265 0.741243 0.971631 -0.123840
C9    C     C_R   0.581810 0.615832 0.937319 -0.159870
C10   C     C_R   0.517892 0.563514 0.013728 0.075251
C11   C     C_R   0.473819 0.642223 0.127329 0.036100
C12   C     C_R   0.739894 0.000830 0.501300 0.799531
C13   C     C_R   0.495330 0.435158 0.980588 0.049143
C14   C     C_R   0.446412 0.388181 0.063905 0.071546
C15   C     C_R   0.397624 0.466725 0.172717 -0.208973
C16   C     C_R   0.396511 0.588328 0.198435 0.149256
C17   C     C_R   0.511665 0.352092 0.866097 -0.242375
C18   C     C_R   0.450830 0.181486 0.917897 -0.207255
C19   C     C_R   0.508763 0.770852 0.164830 -0.095517
C20   C     C_R   0.699469 0.351929 0.328661 -0.274293
C21   C     C_R   0.326020 0.757780 0.644682 0.093563
C22   C     C_R   0.288185 0.660686 0.676268 -0.238208
C23   C     C_R   0.487340 0.144852 0.713079 0.797155
C24   C     C_R   0.352908 0.558083 0.622246 -0.186013
C25   C     C_R   0.456890 0.551249 0.535305 0.007173
C26   C     C_R   0.492102 0.653541 0.505921 0.288969
C27   C     C_R   0.527431 0.447545 0.476241 -0.027942
C28   C     C_R   0.629164 0.449592 0.389143 0.131830
C29   C     C_R   0.661546 0.549197 0.361968 -0.251549
C30   C     C_R   0.595363 0.648886 0.419548 -0.183608
C31   C     C_R   0.502828 0.341460 0.498755 -0.003381
C32   C     C_R   0.671430 0.250964 0.353332 0.358231
C33   C     C_R   0.259701 0.002093 0.503551 0.776543
C34   C     C_3   0.954249 0.968801 0.380541 0.002804
C35   C     C_3   0.096774 0.966148 0.381994 -0.370779
C36   C     C_3   0.936542 0.129170 0.583410 -0.417498
C37   C     C_3   0.894260 0.907681 0.546280 -0.359882
C38   C     C_3   0.877879 0.000830 0.502234 0.089513
Cu1   Cu    Cu3+1 0.529690 0.098270 0.475420 0.973247
Cu2   Cu    Cu3+1 0.470310 0.901730 0.524580 0.947897
H1    H     H_    0.950351 0.041440 0.354154 0.179945
H2    H     H_    0.051207 0.937428 0.639593 0.163994
H3    H     H_    0.885186 0.153708 0.671682 0.171431
H4    H     H_    0.100507 0.159773 0.671081 0.163695
H5    H     H_    0.434354 0.084150 0.894100 0.175939
H6    H     H_    0.342815 0.431147 0.232591 0.200557
H7    H     H_    0.537078 0.383434 0.799473 0.156078
H8    H     H_    0.585867 0.915559 0.109368 0.190939
H9    H     H_    0.621744 0.562743 0.850935 0.126533
H10   H     H_    0.646335 0.779335 0.911433 0.146739
H11   H     H_    0.739995 0.550535 0.295330 0.188423
H12   H     H_    0.776698 0.353821 0.261321 0.171426
H13   H     H_    0.426957 0.333034 0.563881 0.126641
H14   H     H_    0.274990 0.836709 0.687287 0.126883
H15   H     H_    0.319756 0.485471 0.649719 0.135011
H16   H     H_    0.208252 0.665012 0.742978 0.156235
H17   H     H_    0.629234 0.720515 0.393005 0.227076
H18   H     H_    0.124381 0.874068 0.325419 0.211670
H19   H     H_    0.158168 0.030100 0.347519 0.186025
H20   H     H_    0.924969 0.199655 0.556502 0.188715
H21   H     H_    0.138315 0.199182 0.551752 0.184224
H22   H     H_    0.839854 0.929557 0.633255 0.171244
H23   H     H_    0.854984 0.813690 0.490188 0.202793
H24   H     H_    0.062724 0.817327 0.498995 0.216360
N1    N     N_R   0.574690 0.246280 0.438200 -0.193394
N2    N     N_R   0.426100 0.754320 0.561190 -0.201202
O1    O     O_R   0.537340 0.972510 0.318130 -0.547668
O2    O     O_R   0.487200 0.806530 0.359650 -0.580197
O3    O     O_R   0.707380 0.082980 0.479220 -0.564347
O4    O     O_R   0.657240 0.917000 0.520740 -0.608994
O5    O     O_R   0.512800 0.193470 0.640350 -0.597364
O6    O     O_R   0.462660 0.027490 0.681870 -0.594843
O7    O     O_R   0.342760 0.083000 0.479260 -0.584899
O8    O     O_R   0.292620 0.917020 0.520780 -0.576351
I1    I     I_    0.379205 0.182508 0.152460 -0.411093
I2    I     I_    0.875944 0.800645 0.250796 -0.412448
I3    I     I_    0.229510 0.657165 0.308548 -0.395977
I4    I     I_    0.786764 0.111255 0.248877 -0.357877

loop_
_geom_bond_atom_site_label_1
_geom_bond_atom_site_label_2
_ccdc_geom_bond_type
C2    C35   S    
C12   O3    A    
C21   N2    A    
C37   H22   S    
C7    C8    A    
C24   H15   S    
C11   C19   A    
C29   C30   A    
Cu2   O4    S    
C35   H18   S    
C28   C29   A    
C16   I3    S    
C20   C32   A    
C21   H14   S    
C15   C16   A    
C30   H17   S    
C1    O2    A    
C35   H19   S    
C34   C35   S    
C8    C9    A    
C9    C10   A    
Cu2   N2    S    
C21   C22   A    
Cu1   N1    S    
C34   H1    S    
C37   H23   S    
C3    H21   S    
C6    C18   A    
C3    H4    S    
C1    C19   S    
C27   C31   A    
C26   N2    A    
C23   O5    A    
C9    H9    S    
C24   C25   A    
Cu1   Cu2   S    
C22   H16   S    
C5    C18   A    
C20   C28   A    
C25   C26   A    
C5    I1    S    
C2    C4    S    
C37   C38   S    
C11   C16   A    
Cu1   O3    S    
C31   H13   S    
C5    C14   A    
C2    C33   S    
C33   O7    A    
C26   C30   A    
C7    C19   A    
C22   C24   A    
C18   H5    S    
C8    H10   S    
C29   H11   S    
C31   N1    A    
C6    C17   A    
C12   O4    A    
Cu2   O6    S    
C34   C38   S    
Cu1   O1    S    
C23   O6    A    
C17   H7    S    
C36   H20   S    
C10   C13   A    
C25   C27   A    
C4    H24   S    
C13   C17   A    
C7    H8    S    
C36   C38   S    
C2    C3    S    
C20   H12   S    
C4    H2    S    
C3    C36   S    
C6    C23   S    
C1    O1    A    
Cu2   O8    S    
Cu1   O7    S    
C12   C38   S    
C10   C11   A    
C32   I4    S    
C33   O8    A    
C4    C37   S    
Cu2   O2    S    
C27   C28   A    
Cu1   O5    S    
C14   C15   A    
C36   H3    S    
C15   H6    S    
C13   C14   A    
C34   I2    S    
C32   N1    A    
