data_mof_unit_55707.cif
_audit_creation_date              2012-12-11T15:27:05-0500
_audit_creation_method            fapswitch 2.2
_symmetry_space_group_name_H-M    P1
_symmetry_Int_Tables_number       1
_space_group_crystal_system       triclinic
_cell_length_a                    8.306972
_cell_length_b                    14.896631
_cell_length_c                    19.032368
_cell_angle_alpha                 96.937028
_cell_angle_beta                  94.14833
_cell_angle_gamma                 97.634656
_cell_volume                      2307.84253788

loop_
_atom_site_label
_atom_site_type_symbol
_atom_type_description
_atom_site_fract_x
_atom_site_fract_y
_atom_site_fract_z
_atom_type_partial_charge
Ba1   Ba    Ba6+2 0.161750 0.544670 0.467760 1.655327
Ba2   Ba    Ba6+2 0.648430 0.455320 0.532180 1.692317
C1    C     C_3   0.392863 0.775371 0.209099 -0.235259
C2    C     C_R   0.890005 0.790916 0.515335 0.046606
C3    C     C_R   0.072843 0.233083 0.514256 -0.277518
C4    C     C_3   0.948471 0.793925 0.317569 0.348998
C5    C     C_R   0.168571 0.170859 0.536732 0.066423
C6    C     C_R   0.108853 0.077672 0.528493 -0.069604
C7    C     C_R   0.949915 0.044174 0.496176 0.043642
C8    C     C_R   0.858032 0.108237 0.467324 -0.048069
C9    C     C_R   0.879936 0.949500 0.491263 0.046286
C10   C     C_R   0.719330 0.920922 0.457256 -0.026670
C11   C     C_R   0.636360 0.984867 0.426732 -0.075508
C12   C     C_3   0.411651 0.745075 0.282580 0.272527
C13   C     C_R   0.705476 0.075646 0.430345 -0.025855
C14   C     C_R   0.961705 0.882679 0.520945 -0.085587
C15   C     C_R   0.734235 0.764719 0.481129 -0.302578
C16   C     C_3   0.986409 0.889462 0.296863 -0.338388
C17   C     C_R   0.921107 0.203568 0.477165 -0.000695
C18   C     C_R   0.614720 0.539437 0.301060 -0.286837
C19   C     C_R   0.460567 0.491506 0.277034 0.036165
C20   C     C_R   0.406601 0.482283 0.204592 -0.097698
C21   C     C_R   0.507855 0.519282 0.155721 0.019258
C22   C     C_R   0.665300 0.564464 0.180707 -0.130149
C23   C     C_3   0.586663 0.733345 0.641973 0.190838
C24   C     C_R   0.719309 0.572976 0.252968 0.008975
C25   C     C_R   0.469966 0.590571 0.044704 -0.211351
C26   C     C_R   0.407639 0.589438 0.974108 -0.042147
C27   C     C_R   0.331693 0.506114 0.934073 0.046415
C28   C     C_3   0.766153 0.349249 0.316036 0.250323
C29   C     C_R   0.313208 0.427119 0.968227 -0.094544
C30   C     C_R   0.370772 0.429287 0.040208 0.391520
C31   C     C_R   0.449407 0.512138 0.078956 0.062491
C32   C     C_R   0.126658 0.450890 0.827882 -0.087841
C33   C     C_R   0.083926 0.437946 0.754221 0.094200
C34   C     C_3   0.648458 0.834179 0.668216 -0.237837
C35   C     C_R   0.345629 0.517587 0.735187 -0.000300
C36   C     C_R   0.390261 0.531587 0.808682 -0.027073
C37   C     C_R   0.281392 0.497357 0.856045 0.077091
C38   C     C_R   0.195963 0.467794 0.708414 -0.236450
C39   C     C_3   0.762955 0.329943 0.235198 -0.254795
C40   C     C_3   0.089499 0.679996 0.689548 0.589739
C41   C     C_3   0.174538 0.734807 0.758447 -0.114577
C42   C     C_3   0.242342 0.268404 0.369993 0.340267
C43   C     C_3   0.204605 0.165806 0.344895 0.175903
C44   C     C_2   0.617771 0.262172 0.204493 0.578043
C45   C     C_3   0.902958 0.203558 0.706505 0.555301
C46   C     C_2   0.264401 0.825659 0.747303 0.547766
C47   C     C_2   0.730598 0.846241 0.742410 0.584619
C48   C     C_2   0.529365 0.848669 0.200254 0.502727
C49   C     C_2   0.793710 0.167228 0.639496 0.515384
C50   C     C_2   0.023898 0.059485 0.728750 0.601165
C51   C     C_2   0.581741 0.290201 0.840209 0.500278
C52   C     C_2   0.414355 0.678382 0.946908 0.494676
C53   C     C_3   0.915895 0.127731 0.755809 0.246945
C54   C     C_3   0.456081 0.251426 0.713823 0.438153
C55   C     C_3   0.482364 0.217977 0.786548 0.202961
C56   C     C_R   0.645985 0.828560 0.454093 -0.007414
H1    H     H_    0.321202 0.683237 0.283230 0.105604
H2    H     H_    0.118355 0.152717 0.295949 0.068108
H3    H     H_    0.144454 0.130702 0.386034 0.011711
H4    H     H_    0.536527 0.727187 0.292069 -0.055723
H5    H     H_    0.391554 0.715302 0.168354 0.072889
H6    H     H_    0.692916 0.698488 0.629843 0.079190
H7    H     H_    0.504082 0.728536 0.592599 0.039178
H8    H     H_    0.734517 0.861766 0.631536 0.114694
H9    H     H_    0.545066 0.874218 0.667791 0.071237
H10   H     H_    0.950405 0.940372 0.338147 0.053968
H11   H     H_    0.791983 0.090117 0.759185 0.020137
H12   H     H_    0.757557 0.393894 0.211504 0.010930
H13   H     H_    0.373313 0.303973 0.717041 0.010145
H14   H     H_    0.571133 0.284625 0.698071 0.007990
H15   H     H_    0.019835 0.792260 0.368997 0.074323
H16   H     H_    0.549453 0.158041 0.779496 0.025675
H17   H     H_    0.677862 0.694510 0.478714 0.076855
H18   H     H_    0.515932 0.965901 0.399481 0.127435
H19   H     H_    0.079776 0.899883 0.550253 0.111774
H20   H     H_    0.121227 0.305052 0.522360 0.070410
H21   H     H_    0.189597 0.033505 0.547917 0.098773
H22   H     H_    0.635289 0.120129 0.404504 0.155780
H23   H     H_    0.877611 0.304081 0.221023 0.133019
H24   H     H_    0.508586 0.569137 0.828693 0.079088
H25   H     H_    0.529092 0.654558 0.074336 0.118513
H26   H     H_    0.815877 0.780469 0.324007 -0.063959
H27   H     H_    0.286111 0.446157 0.186516 0.126917
H28   H     H_    0.257443 0.362742 0.938040 0.112836
H29   H     H_    0.039488 0.425438 0.863001 0.087886
H30   H     H_    0.747212 0.590806 0.143871 0.098143
H31   H     H_    0.161843 0.457375 0.651719 0.059257
H32   H     H_    0.657644 0.545323 0.356703 0.071964
H33   H     H_    0.119064 0.906156 0.291893 0.154390
H34   H     H_    0.183997 0.653419 0.657848 -0.049834
H35   H     H_    0.917934 0.893678 0.245356 0.159081
H36   H     H_    0.648303 0.368401 0.331316 -0.014669
H37   H     H_    0.864860 0.406881 0.334497 0.074984
H38   H     H_    0.495861 0.279666 0.208508 0.024651
H39   H     H_    0.948547 0.565742 0.662501 0.311208
H40   H     H_    0.266382 0.846573 0.694648 0.006726
H41   H     H_    0.376871 0.141867 0.284835 0.330218
H42   H     H_    0.659382 0.832605 0.786524 0.056930
H43   H     H_    0.546234 0.913291 0.234897 0.040505
H44   H     H_    0.781337 0.211068 0.598960 0.036131
H45   H     H_    0.262806 0.694356 0.781061 0.077260
H46   H     H_    0.123563 0.260805 0.733104 0.329769
H47   H     H_    0.127553 0.047103 0.762352 0.088307
H48   H     H_    0.953213 0.122829 0.857241 0.302032
H49   H     H_    0.351326 0.154313 0.850394 0.314585
H50   H     H_    0.690937 0.275068 0.868557 0.038068
H51   H     H_    0.515738 0.732065 0.964786 0.043235
H52   H     H_    0.300038 0.299024 0.038260 0.316276
H53   H     H_    0.083145 0.746595 0.797195 0.163541
H54   H     H_    0.127533 0.294190 0.382553 -0.061942
H55   H     H_    0.330180 0.280341 0.418190 0.051197
H56   H     H_    0.274784 0.801755 0.201368 0.117578
O1    O     O_2   0.164990 0.721870 0.541490 -0.476666
O2    O     O_2   0.753240 0.437758 0.749094 -0.442006
O3    O     O_3   0.833576 0.274722 0.744326 -0.668900
O4    O     O_3   0.893010 0.608480 0.539150 -0.500695
O5    O     O_3   0.426680 0.454510 0.415380 -0.486929
O6    O     O_2   0.638220 0.542340 0.670930 -0.422539
O7    O     O_3   0.502229 0.694178 0.694543 -0.679084
O8    O     O_2   0.500095 0.169929 0.535660 -0.472708
O9    O     O_3   0.394991 0.176383 0.662626 -0.583157
O10   O     O_3   0.389100 0.667490 0.413860 -0.484719
O11   O     O_2   0.311457 0.828628 0.465828 -0.481637
O12   O     O_3   0.307986 0.311482 0.315131 -0.652715
O13   O     O_3   0.001809 0.737106 0.653946 -0.631031
O14   O     O_3   0.381331 0.815309 0.334011 -0.621507
O15   O     O_2   0.172070 0.457600 0.329050 -0.466816
O16   O     O_3   0.964370 0.622050 0.377340 -0.492506
O17   O     O_2   0.050801 0.561201 0.250303 -0.490740
O18   O     O_2   0.635659 0.187544 0.174335 -0.546761
O19   O     O_3   0.980506 0.608043 0.707064 -0.737077
O20   O     O_2   0.336159 0.877118 0.797941 -0.564191
O21   O     O_3   0.348526 0.129085 0.332763 -0.728150
O22   O     O_2   0.876967 0.871182 0.753833 -0.583640
O23   O     O_3   0.992631 0.730019 0.264444 -0.587297
O24   O     O_2   0.621984 0.836245 0.154230 -0.572911
O25   O     O_2   0.716608 0.090327 0.630043 -0.581675
O26   O     O_3   0.058785 0.234961 0.687827 -0.808380
O27   O     O_2   0.993746 0.015494 0.669864 -0.592472
O28   O     O_3   0.978676 0.168774 0.824443 -0.720113
O29   O     O_3   0.331235 0.191848 0.811790 -0.716532
O30   O     O_2   0.539444 0.365210 0.853489 -0.591407
O31   O     O_2   0.301364 0.694808 0.908379 -0.580322
O32   O     O_3   0.356989 0.350835 0.072610 -0.743937
O33   O     O_2   0.645300 0.278070 0.458480 -0.457505
O34   O     O_3   0.917280 0.391520 0.460790 -0.496351
O35   O     O_3   0.421200 0.332510 0.586090 -0.506737
O36   O     O_3   0.794761 0.270362 0.345125 -0.631840
O37   O     O_3   0.383620 0.545480 0.584560 -0.477372
O38   O     O_3   0.845920 0.377940 0.622610 -0.501568
P1    P     P_3+3 0.990670 0.707470 0.561860 0.977391
P2    P     P_3+3 0.340140 0.430100 0.338890 0.985994
P3    P     P_3+3 0.931126 0.620134 0.285465 0.951760
P4    P     P_3+3 0.819620 0.292520 0.438080 0.984131
P5    P     P_3+3 0.880774 0.382931 0.715844 0.979836
P6    P     P_3+3 0.432330 0.786073 0.418255 0.948189
P7    P     P_3+3 0.466844 0.575400 0.673019 0.963271
P8    P     P_3+3 0.373192 0.213416 0.578872 0.996463

loop_
_geom_bond_atom_site_label_1
_geom_bond_atom_site_label_2
_ccdc_geom_bond_type
C43   H2    S    
H39   O19   S    
O13   P1    S    
Ba2   O4    S    
C34   H9    S    
O14   P6    S    
C5    C6    A    
C25   C31   A    
C49   H44   S    
C12   H1    S    
C42   O12   S    
C35   C36   A    
C40   O19   S    
C16   H33   S    
C46   O20   D    
C26   C27   A    
C22   C24   A    
C32   C33   A    
C35   C38   A    
Ba1   O15   S    
C8    C13   A    
C44   O18   D    
C36   C37   A    
C34   H8    S    
C28   O36   S    
C30   O32   S    
O9    P8    S    
C16   H10   S    
C12   H4    S    
C12   O14   S    
C54   C55   S    
O23   P3    S    
O4    P1    S    
Ba1   Ba2   S    
Ba1   O5    S    
C20   H27   S    
C29   C30   A    
O34   P4    S    
C6    C7    A    
C54   H14   S    
O10   P6    S    
C45   O26   S    
O6    P7    D    
Ba2   P4    S    
C39   C44   S    
C28   C39   S    
O16   P3    S    
C38   H31   S    
C41   C46   S    
C50   C53   S    
C15   C56   A    
Ba1   O4    S    
C10   C56   A    
Ba2   O35   S    
C2    P1    S    
C53   O28   S    
O36   P4    S    
C19   C20   A    
C36   H24   S    
C17   P4    S    
C24   P3    S    
C41   H53   S    
C1    C48   S    
H48   O28   S    
Ba2   O38   S    
C4    C16   S    
C43   O21   S    
C4    H26   S    
C55   O29   S    
O3    P5    S    
C32   C37   A    
C54   O9    S    
C23   H7    S    
Ba1   O16   S    
C56   P6    S    
C3    C5    A    
C26   C52   S    
O11   P6    D    
C45   C49   S    
C5    P8    S    
C23   C34   S    
C21   C31   S    
Ba2   O33   S    
C18   H32   S    
H46   O26   S    
C52   H51   S    
C23   H6    S    
O37   P7    S    
C55   H16   S    
C2    C14   A    
C33   P5    S    
C28   H37   S    
C6    H21   S    
C7    C9    A    
C9    C14   A    
C13   H22   S    
C11   H18   S    
C8    C17   A    
C19   P2    S    
C54   H13   S    
C39   H23   S    
C27   C37   S    
H41   O21   S    
C10   C11   A    
Ba1   P1    S    
O33   P4    D    
C22   H30   S    
C53   H11   S    
C1    C12   S    
C40   O13   S    
C52   O31   D    
C2    C15   A    
C42   H54   S    
C47   O22   D    
C42   H55   S    
O5    P2    S    
C23   O7    S    
C11   C13   A    
C40   C41   S    
H49   O29   S    
O12   P2    S    
C42   C43   S    
C4    H15   S    
C45   C53   S    
C7    C8    A    
Ba2   O37   S    
O38   P5    S    
Ba2   O6    S    
C1    H56   S    
C51   C55   S    
C50   H47   S    
Ba2   O5    S    
C48   O24   D    
C3    C17   A    
C1    H5    S    
C46   H40   S    
C50   O27   D    
C51   O30   D    
C30   C31   A    
C35   P7    S    
C4    O23   S    
O17   P3    D    
C33   C38   A    
Ba1   O10   S    
O2    P5    D    
C28   H36   S    
C47   H42   S    
C51   H50   S    
O15   P2    D    
C18   C24   A    
C43   H3    S    
Ba1   O37   S    
C40   H34   S    
C32   H29   S    
Ba1   P2    S    
O35   P8    S    
C41   H45   S    
C21   C22   A    
C25   H25   S    
C45   O3    S    
C44   H38   S    
C18   C19   A    
C48   H43   S    
C27   C29   A    
O7    P7    S    
C25   C26   A    
C29   H28   S    
C16   H35   S    
O8    P8    D    
C20   C21   A    
C14   H19   S    
Ba1   O34   S    
Ba1   O1    S    
C3    H20   S    
H52   O32   S    
Ba2   O34   S    
O1    P1    D    
C34   C47   S    
C9    C10   A    
C15   H17   S    
C39   H12   S    
C49   O25   D    
