data_mof_unit_27922.cif
_audit_creation_date              2012-12-10T20:44:02-0500
_audit_creation_method            fapswitch 2.2
_symmetry_space_group_name_H-M    P1
_symmetry_Int_Tables_number       1
_space_group_crystal_system       triclinic
_cell_length_a                    17.573352
_cell_length_b                    10.657339
_cell_length_c                    9.862896
_cell_angle_alpha                 89.009014
_cell_angle_beta                  89.840776
_cell_angle_gamma                 90.587357
_cell_volume                      1846.79274847

loop_
_atom_site_label
_atom_site_type_symbol
_atom_type_description
_atom_site_fract_x
_atom_site_fract_y
_atom_site_fract_z
_atom_type_partial_charge
C1    C     C_R   0.499394 0.260167 0.501398 0.941884
C2    C     C_R   0.111465 0.480100 0.508960 -0.154386
C3    C     C_R   0.452360 0.058854 0.579050 -0.093902
C4    C     C_R   0.353090 0.502347 0.500145 1.037876
C5    C     C_R   0.506721 0.128486 0.506543 -0.256790
C6    C     C_R   0.570003 0.068804 0.446716 0.418861
C7    C     C_R   0.570644 0.938045 0.442929 0.378365
C8    C     C_R   0.507892 0.870925 0.498832 -0.277419
C9    C     C_R   0.452004 0.931521 0.570483 -0.087911
C10   C     C_3   0.367434 0.919158 0.559804 0.733155
C11   C     C_3   0.366463 0.062333 0.579206 0.734199
C12   C     C_R   0.884742 0.437677 0.510726 -0.179363
C13   C     C_R   0.442437 0.442880 0.072537 0.078687
C14   C     C_R   0.552162 0.568294 0.070836 -0.231461
C15   C     C_R   0.551938 0.569900 0.925796 0.544647
C16   C     C_R   0.502734 0.739322 0.498908 0.955822
C17   C     C_R   0.441233 0.445918 0.930322 -0.041804
C18   C     C_3   0.413425 0.312549 0.927404 0.685882
C19   C     C_3   0.416866 0.308561 0.082416 0.264060
C20   C     C_R   0.646636 0.496754 0.499689 0.905258
C21   C     C_R   0.843137 0.438632 0.631491 0.504905
C22   C     C_R   0.764779 0.454861 0.625103 -0.365054
C23   C     C_1   0.964884 0.445209 0.517260 0.108699
C24   C     C_R   0.728901 0.477722 0.500237 -0.278868
C25   C     C_R   0.771084 0.473676 0.378126 0.446450
C26   C     C_R   0.849306 0.450171 0.383577 0.389578
C27   C     C_3   0.875127 0.525539 0.834143 -0.199810
C28   C     C_3   0.270818 0.839869 0.419678 -0.219754
C29   C     C_3   0.264053 0.175857 0.489808 -0.189405
C30   C     C_3   0.601002 0.764133 0.875162 -0.260550
C31   C     C_3   0.445952 0.107481 0.152466 -0.181372
C32   C     C_3   0.728057 0.396352 0.176208 -0.184083
C33   C     C_3   0.914949 0.332527 0.232674 -0.310887
C34   C     C_1   0.031968 0.458904 0.516495 0.115426
C35   C     C_R   0.150762 0.501320 0.629270 0.329081
C36   C     C_R   0.229946 0.521346 0.624216 0.232285
C37   C     C_R   0.269347 0.502736 0.500942 -0.316578
C38   C     C_R   0.228654 0.483124 0.379194 0.338836
C39   C     C_R   0.148918 0.476601 0.382640 0.262881
H1    H     H_    0.595719 0.618972 0.125253 0.193350
H2    H     H_    0.257963 0.817000 0.312830 0.200611
H3    H     H_    0.285976 0.873439 0.685931 0.323349
H4    H     H_    0.225558 0.103098 0.534801 0.153608
H5    H     H_    0.239290 0.207775 0.392006 0.179573
H6    H     H_    0.266433 0.256706 0.558796 0.184334
H7    H     H_    0.364212 0.053174 0.779312 0.363276
H8    H     H_    0.541364 0.796938 0.862458 0.174507
H9    H     H_    0.636330 0.815376 0.798543 0.194861
H10   H     H_    0.622970 0.789125 0.976812 0.168341
H11   H     H_    0.339913 0.328315 0.783274 0.397504
H12   H     H_    0.360890 0.298768 0.135326 0.139213
H13   H     H_    0.515720 0.248763 0.888928 0.337366
H14   H     H_    0.420776 0.069924 0.057874 0.177861
H15   H     H_    0.403089 0.104195 0.235285 0.211186
H16   H     H_    0.493309 0.044977 0.182358 0.195183
H17   H     H_    0.720967 0.307865 0.237121 0.157915
H18   H     H_    0.776524 0.388365 0.104740 0.186764
H19   H     H_    0.676040 0.406820 0.113999 0.181882
H20   H     H_    0.867238 0.263011 0.238497 0.155599
H21   H     H_    0.962129 0.300924 0.299127 0.179745
H22   H     H_    0.936584 0.333780 0.126891 0.217955
H23   H     H_    0.732260 0.450921 0.718521 0.220139
H24   H     H_    0.144861 0.474952 0.824739 0.362233
H25   H     H_    0.235268 0.610781 0.794326 0.356732
H26   H     H_    0.233156 0.452257 0.183015 0.390872
H27   H     H_    0.056172 0.486783 0.273269 0.365985
H28   H     H_    0.631164 0.221329 0.420401 0.310411
H29   H     H_    0.894772 0.611087 0.777105 0.162918
H30   H     H_    0.913309 0.513316 0.922678 0.216747
H31   H     H_    0.816622 0.538574 0.874197 0.164115
H32   H     H_    0.630093 0.789545 0.399690 0.325812
H33   H     H_    0.231515 0.914562 0.450314 0.134673
H34   H     H_    0.260080 0.753950 0.481620 0.181512
N1    N     N_R   0.499490 0.499140 0.142800 -0.102304
N2    N     N_R   0.499490 0.499180 0.857150 -0.152909
O1    O     O_R   0.500010 0.316790 0.614690 -0.600175
O2    O     O_3   0.632375 0.881256 0.383049 -0.704778
O3    O     O_3   0.347630 0.878179 0.427784 -0.616609
O4    O     O_3   0.338451 0.844506 0.667814 -0.772981
O5    O     O_3   0.338112 0.131084 0.465797 -0.642229
O6    O     O_3   0.337332 0.099699 0.705956 -0.770128
O7    O     O_3   0.607644 0.634265 0.852968 -0.592638
O8    O     O_3   0.338469 0.302995 0.880421 -0.728679
O9    O     O_3   0.462525 0.228472 0.862770 -0.731871
O10   O     O_3   0.475107 0.230319 0.133129 -0.595566
O11   O     O_3   0.737241 0.504720 0.255380 -0.575719
O12   O     O_R   0.500000 0.316760 0.385350 -0.568070
O13   O     O_3   0.891607 0.455051 0.264781 -0.592603
O14   O     O_3   0.110406 0.500063 0.749947 -0.734787
O15   O     O_3   0.269541 0.560885 0.736897 -0.702307
O16   O     O_3   0.268175 0.471366 0.258412 -0.739042
O17   O     O_3   0.110002 0.463032 0.261749 -0.765646
O18   O     O_3   0.630979 0.133580 0.389434 -0.712448
O19   O     O_R   0.389120 0.500020 0.614710 -0.567834
O20   O     O_R   0.389110 0.499990 0.385370 -0.561144
O21   O     O_R   0.500000 0.683240 0.614650 -0.577098
O22   O     O_R   0.499990 0.683210 0.385310 -0.618936
O23   O     O_R   0.610890 0.500010 0.614630 -0.591383
O24   O     O_R   0.610880 0.499980 0.385290 -0.596352
O25   O     O_3   0.879416 0.417213 0.754305 -0.591885
Zn1   Zn    Zn3+2 0.500010 0.500020 0.653130 1.034702
Zn2   Zn    Zn3+2 0.499990 0.499980 0.346870 1.027850

loop_
_geom_bond_atom_site_label_1
_geom_bond_atom_site_label_2
_ccdc_geom_bond_type
C2    C35   A    
C1    O12   A    
C15   N2    A    
C31   O10   S    
C35   C36   A    
C32   H19   S    
C10   O3    S    
C7    C8    A    
C11   O6    S    
C29   O5    S    
C12   C23   S    
C1    C5    S    
C14   N1    A    
C30   H9    S    
C36   C37   A    
C33   O13   S    
C5    C6    A    
C16   O22   A    
C4    O20   A    
C28   H2    S    
C18   C19   S    
C8    C16   S    
H13   O9    S    
C27   H29   S    
C2    C39   A    
C20   C24   S    
O19   Zn1   S    
C8    C9    A    
C18   O9    S    
H25   O15   S    
C28   O3    S    
C9    C10   S    
O22   Zn2   S    
C27   H30   S    
O20   Zn2   S    
N1    Zn2   S    
C2    C34   S    
H3    O4    S    
C33   H20   S    
C21   C22   A    
C29   H4    S    
C28   H33   S    
C32   H18   S    
C28   H34   S    
H11   O8    S    
C18   O8    S    
C15   O7    S    
C27   O25   S    
C16   O21   A    
C13   C19   S    
C30   H8    S    
C24   C25   A    
C11   O5    S    
C21   O25   S    
H27   O17   S    
C3    C5    A    
C25   C26   A    
C38   O16   S    
C29   H6    S    
C30   O7    S    
C37   C38   A    
C3    C9    A    
C22   H23   S    
O12   Zn2   S    
C6    O18   S    
C32   O11   S    
H24   O14   S    
C17   C18   S    
C31   H14   S    
C27   H31   S    
C4    O19   A    
C35   O14   S    
C33   H22   S    
C30   H10   S    
C33   H21   S    
C29   H5    S    
C7    O2    S    
C22   C24   A    
C39   O17   S    
H32   O2    S    
H28   O18   S    
H7    O6    S    
C36   O15   S    
O1    Zn1   S    
H26   O16   S    
C23   C34   T    
N2    Zn1   S    
C1    O1    A    
C19   O10   S    
C10   O4    S    
C6    C7    A    
O23   Zn1   S    
C13   C17   A    
C38   C39   A    
C20   O24   A    
C12   C21   A    
C25   O11   S    
C31   H15   S    
C3    C11   S    
C10   C11   S    
C14   H1    S    
C19   H12   S    
O24   Zn2   S    
C20   O23   A    
C4    C37   S    
C26   O13   S    
C12   C26   A    
C17   N2    A    
C14   C15   A    
C31   H16   S    
O21   Zn1   S    
C32   H17   S    
C13   N1    A    
