data_mof_unit_62907.cif
_audit_creation_date              2012-12-10T18:32:01-0500
_audit_creation_method            fapswitch 2.2
_symmetry_space_group_name_H-M    P1
_symmetry_Int_Tables_number       1
_space_group_crystal_system       triclinic
_cell_length_a                    23.586814
_cell_length_b                    22.17454
_cell_length_c                    27.664655
_cell_angle_alpha                 89.630339
_cell_angle_beta                  90.184098
_cell_angle_gamma                 89.995663
_cell_volume                      14468.9787037

loop_
_atom_site_label
_atom_site_type_symbol
_atom_type_description
_atom_site_fract_x
_atom_site_fract_y
_atom_site_fract_z
_atom_type_partial_charge
C1    C     C_R   0.390683 0.500006 0.498805 0.901331
C2    C     C_R   0.609325 0.499980 0.501187 0.907039
C3    C     C_R   0.487214 0.501840 0.252346 -0.006990
C4    C     C_R   0.477359 0.503489 0.747433 -0.048604
C5    C     C_R   0.469094 0.505548 0.100639 -0.124922
C6    C     C_R   0.450186 0.512909 0.897945 -0.130866
C7    C     C_R   0.433691 0.467785 0.128574 -0.115323
C8    C     C_R   0.462231 0.566120 0.872043 -0.122240
C9    C     C_R   0.389969 0.435063 0.105478 0.346391
C10   C     C_R   0.475251 0.619366 0.897576 0.346000
C11   C     C_R   0.510566 0.541238 0.123416 -0.059461
C12   C     C_R   0.430962 0.462076 0.872872 -0.067349
C13   C     C_R   0.496022 0.501054 0.353745 -0.429333
C14   C     C_R   0.497194 0.499279 0.646355 -0.427447
C15   C     C_R   0.431250 0.461861 0.975061 0.089882
C16   C     C_R   0.492733 0.552357 0.022788 0.091001
C17   C     C_R   0.477884 0.560803 0.973378 0.012318
C18   C     C_R   0.426965 0.466678 0.026250 0.010526
C19   C     C_R   0.452980 0.511892 0.948826 -0.083742
C20   C     C_R   0.462769 0.508297 0.049915 -0.085808
C21   C     C_R   0.416886 0.408771 0.949337 0.483883
C22   C     C_R   0.537959 0.583675 0.045311 0.484762
C23   C     C_R   0.499318 0.500230 0.407066 0.956125
C24   C     C_R   0.499891 0.499779 0.592970 0.947506
C25   C     C_R   0.414914 0.410277 0.898555 -0.203980
C26   C     C_R   0.545690 0.578490 0.095507 -0.216358
C27   C     C_R   0.387421 0.433271 0.054166 0.368192
C28   C     C_R   0.485238 0.616278 0.948278 0.367357
C29   C     C_R   0.880627 0.502148 0.456192 0.731372
C30   C     C_R   0.119402 0.500955 0.543685 0.730759
C31   C     C_R   0.880395 0.504291 0.542512 0.679453
C32   C     C_R   0.119636 0.505422 0.457388 0.679933
C33   C     C_R   0.939988 0.504360 0.543858 -0.212328
C34   C     C_R   0.060043 0.505533 0.456042 -0.212768
C35   C     C_R   0.970030 0.504364 0.499796 -0.155791
C36   C     C_R   0.030000 0.504356 0.500099 -0.155818
C37   C     C_R   0.940224 0.504107 0.455434 -0.222096
C38   C     C_R   0.059806 0.502900 0.544456 -0.221385
C39   C     C_R   0.970226 0.504068 0.587861 0.604684
C40   C     C_R   0.029804 0.506430 0.412041 0.604867
C41   C     C_R   0.029314 0.502984 0.588155 0.603813
C42   C     C_R   0.970716 0.505363 0.411740 0.604419
C43   C     C_R   0.467441 0.320674 0.467452 0.115757
C44   C     C_R   0.463018 0.679788 0.471006 0.031253
C45   C     C_R   0.532526 0.320209 0.532606 0.123556
C46   C     C_R   0.536967 0.679330 0.529001 0.032467
C47   C     C_R   0.466523 0.257340 0.466361 0.367329
C48   C     C_R   0.462059 0.743564 0.470303 0.307802
C49   C     C_R   0.533464 0.256856 0.533759 0.367477
C50   C     C_R   0.537913 0.743093 0.529698 0.309533
C51   C     C_R   0.237842 0.448536 0.483372 0.416724
C52   C     C_R   0.762207 0.448105 0.516161 0.417256
C53   C     C_R   0.297008 0.449922 0.479415 0.345026
C54   C     C_R   0.703046 0.449390 0.520172 0.345236
C55   C     C_R   0.327993 0.500084 0.497293 -0.466573
C56   C     C_R   0.672031 0.500022 0.502659 -0.467164
C57   C     C_R   0.298219 0.550108 0.515368 0.500206
C58   C     C_R   0.701793 0.550522 0.484900 0.502282
C59   C     C_R   0.239250 0.550150 0.516335 0.620359
C60   C     C_R   0.760762 0.550587 0.483898 0.620960
C61   C     C_R   0.208686 0.499751 0.500798 -0.127822
C62   C     C_R   0.791344 0.499779 0.499073 -0.127822
C63   C     C_R   0.459186 0.871484 0.525331 0.721749
C64   C     C_R   0.540688 0.128258 0.474598 0.641418
C65   C     C_R   0.540781 0.871894 0.474689 0.720895
C66   C     C_R   0.459362 0.127846 0.525572 0.641494
C67   C     C_R   0.541728 0.935835 0.474113 -0.218775
C68   C     C_R   0.458358 0.063913 0.526082 -0.202626
C69   C     C_R   0.458261 0.935416 0.525946 -0.218979
C70   C     C_R   0.541679 0.064333 0.474060 -0.202774
C71   C     C_R   0.500001 0.967725 0.500040 -0.159470
C72   C     C_R   0.500013 0.032026 0.500061 -0.157123
C73   C     C_R   0.583118 0.968727 0.448344 0.600921
C74   C     C_R   0.416951 0.031024 0.551825 0.604798
C75   C     C_R   0.416885 0.967891 0.551738 0.601183
C76   C     C_R   0.583075 0.031861 0.448298 0.605245
C77   C     C_R   0.441214 0.466844 0.179331 0.726424
C78   C     C_R   0.458198 0.564438 0.821062 0.739473
C79   C     C_R   0.500006 0.224254 0.500070 0.056871
C80   C     C_R   0.499984 0.775518 0.499999 0.248401
C81   C     C_R   0.516808 0.538031 0.173765 0.699717
C82   C     C_R   0.429894 0.463650 0.822161 0.675197
C83   C     C_R   0.510254 0.451782 0.276520 0.570336
C84   C     C_R   0.473343 0.448455 0.721507 0.568491
C85   C     C_R   0.514476 0.451166 0.326832 0.474670
C86   C     C_R   0.480445 0.447265 0.671527 0.474053
C87   C     C_R   0.473124 0.551560 0.329350 0.439727
C88   C     C_R   0.514307 0.549714 0.672998 0.442414
C89   C     C_R   0.468438 0.551991 0.278564 0.331335
C90   C     C_R   0.508769 0.550123 0.723826 0.330416
Cu1   Cu    Cu3+1 0.500000 0.559570 0.500000 1.089478
Cu2   Cu    Cu3+1 0.500000 0.440430 0.500000 1.044545
H1    H     H_    0.441904 0.345932 0.441857 0.181286
H2    H     H_    0.434170 0.654609 0.448322 0.189419
H3    H     H_    0.558007 0.345114 0.558203 0.184497
H4    H     H_    0.565797 0.653794 0.551718 0.184151
H5    H     H_    0.403236 0.369865 0.879086 0.201369
H6    H     H_    0.579765 0.603337 0.112587 0.198506
N1    N     N_R   0.482093 0.501665 0.200561 -0.419875
N2    N     N_R   0.456181 0.509938 0.797452 -0.438599
N3    N     N_R   0.852245 0.502133 0.499225 -0.457373
N4    N     N_R   0.147784 0.502098 0.500656 -0.457197
N5    N     N_R   0.500000 0.350920 0.500000 -0.268380
N6    N     N_R   0.500000 0.649080 0.500000 -0.219261
N7    N     N_R   0.499979 0.841084 0.500001 -0.440874
N8    N     N_R   0.500025 0.158629 0.500088 -0.503428
O1    O     O_R   0.417880 0.550320 0.500010 -0.529607
O2    O     O_R   0.582120 0.449680 0.499990 -0.581031
O3    O     O_R   0.582120 0.550320 0.499990 -0.530570
O4    O     O_R   0.417880 0.449680 0.500010 -0.583843
O5    O     O_R   0.500010 0.550300 0.430260 -0.530496
O6    O     O_R   0.499990 0.449700 0.569740 -0.553910
O7    O     O_R   0.499990 0.550300 0.569740 -0.533704
O8    O     O_R   0.500010 0.449700 0.430260 -0.558658
O9    O     O_2   0.419789 0.839853 0.549983 -0.382991
O10   O     O_2   0.579989 0.159929 0.449873 -0.381215
O11   O     O_2   0.580169 0.840662 0.450020 -0.384043
O12   O     O_2   0.420066 0.159118 0.550309 -0.381778
O13   O     O_2   0.408110 0.431663 0.207459 -0.400065
O14   O     O_2   0.451875 0.616316 0.795977 -0.373619
O15   O     O_2   0.398345 0.422421 0.798793 -0.410146
O16   O     O_2   0.557139 0.571151 0.195922 -0.467390
O17   O     O_2   0.851044 0.499766 0.414426 -0.379951
O18   O     O_2   0.148984 0.497445 0.585431 -0.382787
O19   O     O_2   0.850519 0.506089 0.583990 -0.395320
O20   O     O_2   0.149513 0.508332 0.415927 -0.394147
O21   O     O_3   0.432685 0.230187 0.431977 -0.638366
H7    H     H_    0.436562 0.185855 0.434394 0.356784
O22   O     O_3   0.425056 0.775393 0.441026 -0.651908
H8    H     H_    0.401552 0.746385 0.422598 0.359349
O23   O     O_3   0.567292 0.229205 0.568182 -0.638022
H9    H     H_    0.563429 0.184907 0.565802 0.356510
O24   O     O_3   0.574902 0.774459 0.558979 -0.650536
H10   H     H_    0.598419 0.745160 0.577404 0.359521
O25   O     O_3   0.343217 0.404494 0.030994 -0.665104
H11   H     H_    0.333511 0.367572 0.049554 0.366878
O26   O     O_3   0.496785 0.667731 0.974377 -0.666664
H12   H     H_    0.520595 0.694812 0.954333 0.364494
F1    F     F_    0.943005 0.504085 0.631050 -0.519826
F2    F     F_    0.057026 0.507606 0.368856 -0.519353
F3    F     F_    0.056281 0.502179 0.631607 -0.517108
F4    F     F_    0.943748 0.505732 0.368286 -0.515865
O27   O     O_3   0.210072 0.396960 0.468496 -0.582415
H13   H     H_    0.170094 0.398272 0.479158 0.338811
O28   O     O_3   0.789996 0.396135 0.530664 -0.582881
H14   H     H_    0.829962 0.397727 0.519977 0.338940
O29   O     O_3   0.322846 0.401621 0.457331 -0.594632
H15   H     H_    0.354782 0.417312 0.437791 0.324626
O30   O     O_3   0.677241 0.400506 0.541945 -0.594698
H16   H     H_    0.645467 0.415719 0.561760 0.325345
F5    F     F_    0.326085 0.599024 0.532762 -0.555555
F6    F     F_    0.673923 0.599911 0.467866 -0.554458
F7    F     F_    0.211450 0.599621 0.532561 -0.534284
F8    F     F_    0.788545 0.600490 0.468001 -0.533782
F9    F     F_    0.453813 0.599504 0.354863 -0.636990
F10   F     F_    0.539026 0.597214 0.649982 -0.629239
O31   O     O_3   0.445096 0.600051 0.253439 -0.642694
H17   H     H_    0.434084 0.632017 0.276410 0.397668
O32   O     O_3   0.538990 0.591226 0.751080 -0.621769
H18   H     H_    0.560621 0.618760 0.729684 0.401164
O33   O     O_3   0.349278 0.406893 0.133454 -0.625612
H19   H     H_    0.312275 0.409514 0.116562 0.353965
O34   O     O_3   0.478960 0.673285 0.872514 -0.625625
H20   H     H_    0.465300 0.706135 0.893573 0.352970
F11   F     F_    0.624143 0.940180 0.422857 -0.515288
F12   F     F_    0.375983 0.059574 0.577375 -0.516342
F13   F     F_    0.375850 0.938933 0.577208 -0.515206
F14   F     F_    0.624055 0.060823 0.422767 -0.515581
F15   F     F_    0.471638 0.394422 0.648095 -0.552122
F16   F     F_    0.537380 0.402092 0.349083 -0.549339
F17   F     F_    0.470448 0.394093 0.744003 -0.530985
F18   F     F_    0.528743 0.403574 0.251023 -0.540062
O35   O     O_3   0.411296 0.354529 0.973772 -0.666976
H21   H     H_    0.402250 0.322093 0.950471 0.350556
O36   O     O_3   0.577562 0.613726 0.017383 -0.669207
H22   H     H_    0.606635 0.632161 0.038632 0.349595

loop_
_geom_bond_atom_site_label_1
_geom_bond_atom_site_label_2
_ccdc_geom_bond_type
C15   C18   A    
C66   C68   A    
C2    O3    A    
C10   O34   S    
C64   O10   S    
C86   F15   S    
C35   C36   A    
C51   C61   A    
C47   C79   A    
Cu1   N6    S    
C84   F17   S    
Cu2   O4    S    
O33   H19   S    
C44   N6    A    
O25   H11   S    
C39   C41   A    
C5    C20   A    
O35   H21   S    
C11   C81   A    
C15   C19   A    
C6    C19   A    
C49   O23   S    
C13   C23   S    
C33   C39   A    
C34   C40   A    
C31   N3    A    
C35   C37   A    
C84   C86   A    
C5    C11   A    
C6    C12   A    
C57   C59   A    
C29   C37   A    
C68   C74   A    
O27   H13   S    
C3    N1    S    
C57   F5    S    
C53   O29   S    
C30   C38   A    
C18   C20   A    
C60   C62   A    
C3    C83   A    
C14   C24   S    
C37   C42   A    
C69   C71   A    
C45   N5    A    
Cu2   N5    S    
C33   C35   A    
Cu2   O2    S    
O31   H17   S    
O29   H15   S    
C58   F6    S    
C16   C17   A    
C65   C67   A    
C24   O6    A    
C42   F4    S    
C31   C33   A    
C77   N1    A    
C67   C73   A    
C64   C70   A    
C63   N7    A    
C82   O15   S    
C34   C36   A    
C68   C72   A    
C7    C77   A    
C62   N3    S    
C63   O9    S    
C40   C42   A    
C30   O18   S    
C24   O7    A    
C8    C78   A    
C60   F8    S    
C13   C87   A    
C66   N8    A    
C65   O11   S    
C65   N7    A    
C2    O2    A    
C52   C54   A    
C69   C75   A    
O28   H14   S    
C54   O30   S    
C4    C90   A    
C53   C55   A    
C59   F7    S    
C39   F1    S    
C59   C61   A    
C74   C75   A    
C28   O26   S    
C29   N3    A    
C63   C69   A    
C44   C48   A    
C14   C86   A    
C38   C41   A    
C73   F11   S    
C66   O12   S    
Cu1   Cu2   S    
C5    C7    A    
C52   O28   S    
Cu2   O6    S    
C6    C8    A    
C81   N1    A    
C11   C26   A    
C46   N6    A    
C80   N7    S    
C2    C56   S    
Cu1   O7    S    
C79   N8    S    
C51   C53   A    
C32   C34   A    
C78   O14   S    
C41   F3    S    
Cu1   O1    S    
C1    O4    A    
O32   H18   S    
C4    C84   A    
C45   C49   A    
C16   C20   A    
C83   F18   S    
C30   N4    A    
C12   C82   A    
C89   O31   S    
C9    O33   S    
C32   O20   S    
C26   H6    S    
C25   H5    S    
C83   C85   A    
C1    O1    A    
C21   O35   S    
C55   C57   A    
C78   N2    A    
O24   H10   S    
C73   C76   A    
C87   F9    S    
C48   O22   S    
C90   O32   S    
C12   C25   A    
C17   C19   A    
O21   H7    S    
C45   H3    S    
C88   F10   S    
C74   F12   S    
C9    C27   A    
O22   H8    S    
C10   C28   A    
C7    C9    A    
C21   C25   A    
C16   C22   A    
C17   C28   A    
C82   N2    A    
C18   C27   A    
C88   C90   A    
C77   O13   S    
C50   O24   S    
C50   C80   A    
C70   C72   A    
C54   C56   A    
C64   N8    A    
C32   N4    A    
C51   O27   S    
C23   O5    A    
O26   H12   S    
C46   C50   A    
C85   F16   S    
C4    N2    S    
C81   O16   S    
C3    C89   A    
C27   O25   S    
C48   C80   A    
C87   C89   A    
C61   N4    S    
C1    C55   S    
C14   C88   A    
C71   C72   A    
O36   H22   S    
C52   C62   A    
O30   H16   S    
C23   O8    A    
C70   C76   A    
Cu1   O3    S    
C58   C60   A    
Cu2   O8    S    
C47   O21   S    
C29   O17   S    
C36   C38   A    
C43   H1    S    
C56   C58   A    
C76   F14   S    
C67   C71   A    
C43   N5    A    
O34   H20   S    
C44   H2    S    
Cu1   O5    S    
C49   C79   A    
C22   O36   S    
C15   C21   A    
C46   H4    S    
C8    C10   A    
C22   C26   A    
C13   C85   A    
C31   O19   S    
C75   F13   S    
C43   C47   A    
C40   F2    S    
O23   H9    S    
