data_mof_unit_12840.cif
_audit_creation_date              2012-12-11T14:36:05-0500
_audit_creation_method            fapswitch 2.2
_symmetry_space_group_name_H-M    P1
_symmetry_Int_Tables_number       1
_space_group_crystal_system       triclinic
_cell_length_a                    13.505598
_cell_length_b                    13.502119
_cell_length_c                    27.461054
_cell_angle_alpha                 90.696345
_cell_angle_beta                  90.030224
_cell_angle_gamma                 60.130652
_cell_volume                      4342.03132403

loop_
_atom_site_label
_atom_site_type_symbol
_atom_type_description
_atom_site_fract_x
_atom_site_fract_y
_atom_site_fract_z
_atom_type_partial_charge
C1    C     C_R   0.619505 0.100569 0.570719 0.549749
C2    C     C_1   0.635679 0.722887 0.614574 0.016479
C3    C     C_3   0.654957 0.565969 0.766619 -0.098091
C4    C     C_3   0.694945 0.627804 0.802065 0.046144
C5    C     C_3   0.577209 0.680938 0.741713 -0.084012
C6    C     C_3   0.676189 0.658352 0.707295 0.034551
C7    C     C_3   0.617521 0.742237 0.777808 -0.047965
C8    C     C_3   0.716533 0.719662 0.742808 -0.054719
C9    C     C_1   0.699645 0.613575 0.854965 -0.006265
C10   C     C_1   0.658090 0.687420 0.655536 -0.018204
C11   C     C_3   0.067414 0.174441 0.736319 -0.077869
C12   C     C_R   0.600093 0.778488 0.568452 0.553123
C13   C     C_3   0.152202 0.084433 0.772309 -0.039010
C14   C     C_1   0.094886 0.204374 0.901048 0.024029
C15   C     C_1   0.223142 0.144474 0.616149 0.026966
C16   C     C_3   0.056948 0.271966 0.770365 -0.097010
C17   C     C_3   0.142022 0.181667 0.805656 0.028339
C18   C     C_3   0.158010 0.271650 0.743508 -0.147027
C19   C     C_3   0.167661 0.174641 0.710327 0.040919
C20   C     C_3   0.242720 0.182157 0.779640 -0.095552
C21   C     C_3   0.251895 0.086065 0.745708 0.181620
C22   C     C_1   0.121274 0.189572 0.858467 -0.008357
C23   C     C_R   0.276301 0.122921 0.569181 0.552449
C24   C     C_1   0.191242 0.161280 0.657900 0.003256
C25   C     C_3   0.604005 0.272707 0.743646 -0.129448
C26   C     C_3   0.539151 0.240142 0.781202 -0.172131
C27   C     C_1   0.684791 0.204234 0.905345 0.045878
C28   C     C_1   0.632097 0.129641 0.620004 0.020277
C29   C     C_3   0.712906 0.211096 0.774876 0.173397
C30   C     C_3   0.648568 0.179000 0.811794 0.042609
C31   C     C_3   0.750777 0.098377 0.746950 0.233341
C32   C     C_3   0.642029 0.159052 0.716070 -0.000311
C33   C     C_3   0.686324 0.066456 0.784113 0.188692
C34   C     C_R   0.622065 0.099077 0.431052 0.546625
C35   C     C_3   0.576837 0.126161 0.752848 -0.132480
C36   C     C_1   0.662757 0.191268 0.864065 0.044102
C37   C     C_1   0.637910 0.145933 0.662989 0.001739
C38   C     C_R   0.731901 0.709079 0.357758 -0.134454
C39   C     C_R   0.743196 0.694711 0.307107 -0.015865
C40   C     C_R   0.760904 0.672043 0.205069 0.016809
C41   C     C_R   0.852243 0.665313 0.232760 0.152982
C42   C     C_R   0.842335 0.677595 0.283426 -0.106902
C43   C     C_R   0.772062 0.646546 0.155213 -0.136736
C44   C     C_R   0.680901 0.650287 0.129066 -0.005012
C45   C     C_R   0.600978 0.777375 0.429785 0.541065
C46   C     C_R   0.544941 0.724743 0.353217 -0.120014
C47   C     C_R   0.551904 0.718278 0.302924 0.012370
C48   C     C_R   0.651215 0.703039 0.279516 0.058455
C49   C     C_R   0.458342 0.732530 0.275826 -0.140400
C50   C     C_R   0.462055 0.732850 0.225404 -0.099435
C51   C     C_R   0.562248 0.712385 0.201180 0.024029
C52   C     C_R   0.658077 0.696263 0.228548 0.006397
C53   C     C_R   0.571522 0.700040 0.150496 0.149503
C54   C     C_R   0.631026 0.727882 0.380686 -0.000263
C55   C     C_R   0.202164 0.064216 0.359392 -0.109558
C56   C     C_R   0.278378 0.120786 0.430873 0.544270
C57   C     C_R   0.177960 0.074332 0.309355 0.029774
C58   C     C_R   0.146340 0.090114 0.207355 -0.002780
C59   C     C_R   0.142712 0.002938 0.233641 -0.073823
C60   C     C_R   0.156674 0.995580 0.284082 0.132039
C61   C     C_R   0.126459 0.102006 0.156782 0.154449
C62   C     C_R   0.113711 0.201377 0.133576 0.010157
C63   C     C_R   0.212045 0.238876 0.357995 -0.124063
C64   C     C_R   0.195156 0.246743 0.308272 0.011568
C65   C     C_R   0.179095 0.163883 0.283471 0.038132
C66   C     C_R   0.199612 0.333651 0.282849 -0.113304
C67   C     C_3   0.754218 0.543127 0.731376 -0.107763
C68   C     C_R   0.187000 0.339584 0.232710 -0.094037
C69   C     C_R   0.167030 0.260469 0.207695 0.009458
C70   C     C_R   0.164275 0.171209 0.232789 0.023933
C71   C     C_R   0.142765 0.274146 0.158444 -0.147300
C72   C     C_R   0.223263 0.144095 0.383231 -0.013980
C73   C     C_R   0.564843 0.236149 0.362489 -0.132869
C74   C     C_R   0.569790 0.253799 0.312650 0.013344
C75   C     C_R   0.579817 0.284916 0.212076 0.011813
C76   C     C_R   0.499719 0.374765 0.241622 -0.123692
C77   C     C_R   0.493789 0.358833 0.291540 -0.129531
C78   C     C_3   0.794681 0.604356 0.767860 -0.091967
C79   C     C_R   0.592683 0.301605 0.162802 -0.130174
C80   C     C_R   0.677442 0.211651 0.134712 -0.005126
C81   C     C_R   0.726687 0.043618 0.353457 -0.112131
C82   C     C_R   0.729475 0.058035 0.303771 0.009544
C83   C     C_R   0.650698 0.163277 0.283099 0.062965
C84   C     C_R   0.807706 0.967242 0.274327 -0.097598
C85   C     C_R   0.808370 0.980627 0.224315 -0.103535
C86   C     C_R   0.732758 0.085765 0.203551 0.004718
C87   C     C_R   0.653523 0.177779 0.232830 0.062792
C88   C     C_R   0.740644 0.102276 0.154389 -0.111041
C89   C     C_1   0.703224 0.596288 0.898042 0.025652
C90   C     C_R   0.641749 0.130137 0.382708 -0.000833
C91   C     C_R   0.048770 0.236716 0.949524 0.552904
C92   C     C_R   0.712653 0.560835 0.947607 0.557014
C93   C     C_R   0.721107 0.224769 0.951557 0.547385
C94   C     C_R   0.050233 0.243181 0.087849 0.563270
C95   C     C_R   0.706349 0.578498 0.085169 0.567220
C96   C     C_R   0.718116 0.233869 0.089124 0.540602
Cr1   Cr    Cr6+3 0.417550 0.169090 0.500530 1.032707
Cr2   Cr    Cr6+3 0.669180 0.913420 0.499920 1.045651
Cr3   Cr    Cr6+3 0.413260 0.917540 0.499520 1.054492
Cr4   Cr    Cr6+3 0.909170 0.177380 0.020380 1.114641
Cr5   Cr    Cr6+3 0.912710 0.429210 0.018220 1.058893
Cr6   Cr    Cr6+3 0.657170 0.432570 0.019030 1.081943
H1    H     H_    0.884108 0.573352 0.779316 0.130852
H2    H     H_    0.315566 0.183608 0.797697 0.127759
H3    H     H_    0.159407 0.348842 0.731043 0.125234
H4    H     H_    0.520889 0.090528 0.743269 0.176423
H5    H     H_    0.854253 0.613861 0.137526 0.190277
H6    H     H_    0.810117 0.461339 0.711855 0.137762
H7    H     H_    0.798566 0.711487 0.378861 0.124031
H8    H     H_    0.912578 0.673022 0.304310 0.143055
H9    H     H_    0.387733 0.743731 0.205960 0.186889
H10   H     H_    0.381706 0.744605 0.293707 0.167411
H11   H     H_    0.466632 0.738764 0.370428 0.150478
H12   H     H_    0.210794 0.991832 0.379409 0.176310
H13   H     H_    0.125385 0.941458 0.215820 0.200840
H14   H     H_    0.741914 0.782627 0.731627 0.180439
H15   H     H_    0.137815 0.347497 0.140392 0.161335
H16   H     H_    0.191203 0.407047 0.213559 0.168464
H17   H     H_    0.542929 0.385974 0.147460 0.147302
H18   H     H_    0.498984 0.302877 0.385050 0.123021
H19   H     H_    0.442474 0.457454 0.226222 0.135290
H20   H     H_    0.430919 0.428975 0.313710 0.121811
H21   H     H_    0.562828 0.823212 0.798064 0.183870
H22   H     H_    0.870159 0.909994 0.202044 0.178155
H23   H     H_    0.785969 0.961135 0.368581 0.145789
H24   H     H_    0.488110 0.709546 0.730522 0.170890
H25   H     H_    0.626683 0.504769 0.776976 0.159478
H26   H     H_    0.151344 0.006754 0.784463 0.170067
H27   H     H_    0.995884 0.172262 0.717427 0.189796
O1    O     O_R   0.301710 0.195650 0.554160 -0.509854
O2    O     O_R   0.658900 0.818120 0.449760 -0.503460
O3    O     O_R   0.503220 0.801620 0.445520 -0.519488
O4    O     O_R   0.319370 0.022040 0.450020 -0.499743
O5    O     O_3   0.499990 0.000010 0.499990 -0.254036
O6    O     O_R   0.818720 0.150820 0.967160 -0.484003
O7    O     O_R   0.006410 0.181720 0.970200 -0.476846
O8    O     O_R   0.027890 0.334070 0.964920 -0.506189
O9    O     O_R   0.809600 0.521790 0.967960 -0.492442
O10   O     O_R   0.635520 0.542770 0.964420 -0.490028
O11   O     O_R   0.665950 0.325030 0.970100 -0.501078
O12   O     O_R   0.522390 0.158990 0.550460 -0.496840
O13   O     O_R   0.816620 0.158530 0.074540 -0.492502
O14   O     O_R   0.004460 0.188870 0.069750 -0.448056
O15   O     O_R   0.025800 0.341780 0.072300 -0.520992
O16   O     O_R   0.807650 0.528950 0.067500 -0.510118
O17   O     O_R   0.633420 0.550490 0.071810 -0.458640
O18   O     O_R   0.664000 0.332180 0.069640 -0.502016
O19   O     O_3   0.826350 0.346390 0.019210 -0.274001
O20   O     O_R   0.694390 0.003530 0.554040 -0.490150
O21   O     O_R   0.657700 0.819660 0.549320 -0.494060
O22   O     O_R   0.501930 0.803280 0.552920 -0.493079
O23   O     O_R   0.318170 0.023580 0.549580 -0.480115
O24   O     O_R   0.303010 0.193990 0.446760 -0.522037
O25   O     O_R   0.523600 0.157450 0.450900 -0.502083
O26   O     O_R   0.695690 0.001860 0.446640 -0.516079
H28   H     H_    0.976969 0.350284 0.781295 0.158796
H29   H     H_    0.452065 0.297854 0.795836 0.130881
H30   H     H_    0.571482 0.357497 0.726688 0.132455
Br1   Br    Br    0.744746 0.921024 0.816082 -0.504192
Br2   Br    Br    0.903336 0.996828 0.722074 -0.456949
Br3   Br    Br    0.809583 0.271876 0.794527 -0.605129
Br4   Br    Br    0.991261 0.642767 0.203545 -0.588353
Br5   Br    Br    0.436546 0.749411 0.110843 -0.434040
Br6   Br    Br    0.119412 0.981591 0.120344 -0.429692
Br7   Br    Br    0.138200 0.880362 0.316560 -0.591541
H31   H     H_    0.214069 0.396313 0.301687 0.123384
H32   H     H_    0.226421 0.302379 0.376139 0.138575
H33   H     H_    0.804317 0.031891 0.132479 0.161990
H34   H     H_    0.868124 0.885957 0.289970 0.155975
Br8   Br    Br    0.392699 0.957227 0.723252 -0.611844

loop_
_geom_bond_atom_site_label_1
_geom_bond_atom_site_label_2
_ccdc_geom_bond_type
C66   C68   A    
C23   O23   A    
Cr5   O19   S    
Cr4   O7    S    
C61   Br6   S    
C41   C42   A    
C83   C87   A    
C95   O16   A    
C74   C83   A    
C43   C44   A    
C2    C12   S    
C56   O4    A    
C7    C8    S    
C47   C49   A    
C85   C86   A    
C95   O17   A    
Cr5   O16   S    
C20   C21   S    
Cr3   O3    S    
C26   H29   S    
C76   H19   S    
C19   C21   S    
Cr4   O19   S    
Cr1   O1    S    
C5    C6    S    
Cr5   O15   S    
C3    H25   S    
C67   H6    S    
C21   Br8   S    
C17   C20   S    
Cr3   O4    S    
C85   H22   S    
C18   C19   S    
C73   C74   A    
C69   C71   A    
C60   Br7   S    
C77   H20   S    
C68   H16   S    
C91   O8    A    
C13   H26   S    
C44   C53   A    
C40   C43   A    
C91   O7    A    
C31   C32   S    
C16   C17   S    
C56   C72   S    
C74   C77   A    
C79   H17   S    
Cr2   O2    S    
C16   H28   S    
C1    C28   S    
C31   C33   S    
C1    O20   A    
Cr1   O24   S    
C80   C96   S    
C18   C20   S    
C55   C72   A    
C30   C33   S    
Cr4   O6    S    
Cr6   O19   S    
C25   C32   S    
C63   H32   S    
C92   O9    A    
C59   C60   A    
C73   H18   S    
C41   Br4   S    
C8    C78   S    
C12   O22   A    
C61   C62   A    
C67   C78   S    
Cr1   O5    S    
C4    C7    S    
C11   H27   S    
C81   C82   A    
C39   C42   A    
C34   O25   A    
C25   C29   S    
C3    C67   S    
C71   H15   S    
C51   C52   A    
C32   C35   S    
C29   Br3   S    
C76   C77   A    
C84   H34   S    
C9    C89   T    
C5    C7    S    
C66   H31   S    
C86   C87   A    
C58   C70   A    
C57   C60   A    
C6    C8    S    
C3    C5    S    
C58   C59   A    
C34   O26   A    
Cr3   O22   S    
C63   C64   A    
C23   O1    A    
C51   C53   A    
C64   C66   A    
C5    H24   S    
C75   C76   A    
C34   C90   S    
C4    C78   S    
C29   C30   S    
C12   O21   A    
Cr6   O18   S    
C11   C16   S    
C47   C48   A    
C38   C54   A    
C29   C31   S    
C11   C19   S    
C46   C54   A    
C50   C51   A    
C13   C21   S    
C16   C18   S    
C43   H5    S    
C32   C37   S    
C84   C85   A    
C89   C92   S    
Cr1   O12   S    
C49   H10   S    
C81   C90   A    
C75   C87   A    
C40   C41   A    
C45   C54   S    
Cr6   O11   S    
C82   C84   A    
C62   C94   S    
C49   C50   A    
C27   C93   S    
C94   O14   A    
C3    C4    S    
C2    C10   T    
Cr2   O21   S    
C96   O18   A    
Cr2   O26   S    
C6    C67   S    
Cr5   O8    S    
C46   H11   S    
C81   H23   S    
C78   H1    S    
C73   C90   A    
C68   C69   A    
C53   Br5   S    
C31   Br2   S    
C38   H7    S    
C56   O24   A    
C93   O6    A    
Cr4   O14   S    
Cr1   O25   S    
C6    C10   S    
Cr5   O9    S    
C45   O2    A    
C20   H2    S    
C55   H12   S    
C30   C36   S    
C27   C36   T    
Cr3   O23   S    
Cr2   O5    S    
C17   C22   S    
C13   C17   S    
C94   O15   A    
C64   C65   A    
C14   C22   T    
C55   C57   A    
C19   C24   S    
C25   C26   S    
C18   H3    S    
C80   C88   A    
C35   H4    S    
C40   C52   A    
Cr6   O17   S    
C15   C24   T    
C11   C13   S    
C38   C39   A    
C28   C37   T    
C58   C61   A    
C88   H33   S    
C15   C23   S    
C50   H9    S    
C33   C35   S    
C62   C71   A    
C86   C88   A    
Cr6   O10   S    
C42   H8    S    
C69   C70   A    
C14   C91   S    
C46   C47   A    
C1    O12   A    
C8    H14   S    
C96   O13   A    
C79   C80   A    
C33   Br1   S    
C26   C35   S    
C48   C52   A    
C63   C72   A    
Cr3   O5    S    
C45   O3    A    
C59   H13   S    
C82   C83   A    
C25   H30   S    
C93   O11   A    
Cr4   O13   S    
C4    C9    S    
C92   O10   A    
C75   C79   A    
Cr2   O20   S    
C44   C95   S    
C65   C70   A    
C7    H21   S    
C39   C48   A    
C57   C65   A    
C26   C30   S    
