data_mof_unit_44752.cif
_audit_creation_date              2012-12-11T14:36:14-0500
_audit_creation_method            fapswitch 2.2
_symmetry_space_group_name_H-M    P1
_symmetry_Int_Tables_number       1
_space_group_crystal_system       triclinic
_cell_length_a                    13.480888
_cell_length_b                    13.475782
_cell_length_c                    27.51055
_cell_angle_alpha                 90.71468
_cell_angle_beta                  90.214228
_cell_angle_gamma                 60.060591
_cell_volume                      4330.43620239

loop_
_atom_site_label
_atom_site_type_symbol
_atom_type_description
_atom_site_fract_x
_atom_site_fract_y
_atom_site_fract_z
_atom_type_partial_charge
C1    C     C_R   0.620236 0.101339 0.570252 0.545976
C2    C     C_1   0.631171 0.732519 0.616526 -0.010906
C3    C     C_3   0.716414 0.557712 0.767642 -0.103216
C4    C     C_3   0.679392 0.654849 0.805562 0.051418
C5    C     C_3   0.603497 0.631872 0.739727 -0.099164
C6    C     C_3   0.663440 0.683895 0.710892 0.049995
C7    C     C_3   0.566727 0.728537 0.778370 -0.101173
C8    C     C_3   0.626457 0.781025 0.748816 -0.104209
C9    C     C_1   0.688063 0.633994 0.857936 -0.055659
C10   C     C_1   0.649525 0.705407 0.658575 -0.052637
C11   C     C_3   0.064507 0.187986 0.736884 -0.133691
C12   C     C_R   0.599666 0.779621 0.568821 0.546696
C13   C     C_3   0.128763 0.088181 0.773003 -0.117771
C14   C     C_1   0.096475 0.201498 0.901778 -0.010549
C15   C     C_1   0.230061 0.137900 0.617642 0.007862
C16   C     C_3   0.082052 0.269153 0.771825 -0.078765
C17   C     C_3   0.146916 0.169091 0.807102 0.026651
C18   C     C_3   0.196892 0.234982 0.746612 0.196168
C19   C     C_3   0.179219 0.154870 0.712184 0.058783
C20   C     C_3   0.261707 0.136028 0.782518 -0.087560
C21   C     C_3   0.244012 0.054937 0.747530 -0.132059
C22   C     C_1   0.124121 0.182389 0.859561 -0.049975
C23   C     C_R   0.277890 0.121791 0.569743 0.545750
C24   C     C_1   0.202141 0.146880 0.659771 -0.015417
C25   C     C_3   0.625323 0.278220 0.740095 -0.092857
C26   C     C_3   0.553731 0.256433 0.778061 -0.075474
C27   C     C_1   0.691134 0.207979 0.902936 -0.012160
C28   C     C_1   0.635404 0.133357 0.618435 -0.004147
C29   C     C_3   0.734309 0.208166 0.771045 -0.109215
C30   C     C_3   0.662552 0.186112 0.808176 0.041938
C31   C     C_3   0.759321 0.097180 0.743460 -0.105664
C32   C     C_3   0.650588 0.167384 0.713278 0.054370
C33   C     C_3   0.687801 0.075348 0.781306 -0.110674
C34   C     C_R   0.621656 0.099113 0.430902 0.544987
C35   C     C_3   0.578804 0.145328 0.750386 -0.083454
C36   C     C_1   0.674199 0.196924 0.860687 -0.054317
C37   C     C_1   0.643646 0.152329 0.660751 -0.040688
C38   C     C_R   0.731574 0.708896 0.357961 -0.135852
C39   C     C_R   0.743346 0.694860 0.307456 0.015938
C40   C     C_R   0.763154 0.668259 0.205971 0.013703
C41   C     C_R   0.855671 0.656973 0.233775 -0.130009
C42   C     C_R   0.845403 0.671405 0.284251 -0.131631
C43   C     C_R   0.775676 0.641928 0.156370 -0.135263
C44   C     C_R   0.684713 0.644153 0.130285 -0.005398
C45   C     C_R   0.600561 0.778012 0.429662 0.546773
C46   C     C_R   0.539589 0.735572 0.352174 -0.132717
C47   C     C_R   0.547535 0.728452 0.302094 0.006685
C48   C     C_R   0.649723 0.707542 0.279467 0.064616
C49   C     C_R   0.453190 0.745551 0.274359 -0.139600
C50   C     C_R   0.460787 0.738437 0.224055 -0.131084
C51   C     C_R   0.563825 0.711702 0.201229 0.014507
C52   C     C_R   0.658460 0.697593 0.228825 0.063975
C53   C     C_R   0.576582 0.689178 0.151725 -0.131385
C54   C     C_R   0.628594 0.731855 0.380219 -0.000989
C55   C     C_R   0.206126 0.061064 0.358985 -0.136202
C56   C     C_R   0.277370 0.121076 0.431140 0.546740
C57   C     C_R   0.178589 0.075233 0.309504 0.017142
C58   C     C_R   0.140070 0.098488 0.208740 0.015808
C59   C     C_R   0.149813 0.002650 0.232675 -0.128404
C60   C     C_R   0.169513 0.990854 0.282748 -0.129093
C61   C     C_R   0.116740 0.113396 0.158985 -0.133890
C62   C     C_R   0.102856 0.212229 0.136121 -0.003929
C63   C     C_R   0.190896 0.248710 0.361816 -0.123829
C64   C     C_R   0.169584 0.261330 0.312393 0.009450
C65   C     C_R   0.165098 0.173620 0.285832 0.062371
C66   C     C_R   0.158785 0.357759 0.288825 -0.113936
C67   C     C_3   0.776226 0.610163 0.738015 -0.097973
C68   C     C_R   0.145313 0.366611 0.238712 -0.124012
C69   C     C_R   0.139947 0.280362 0.211954 0.010877
C70   C     C_R   0.148722 0.183880 0.235467 0.063150
C71   C     C_R   0.120629 0.291948 0.162304 -0.129451
C72   C     C_R   0.217328 0.145716 0.384600 -0.005411
C73   C     C_R   0.557518 0.233501 0.361217 -0.116337
C74   C     C_R   0.561766 0.251015 0.311278 0.025647
C75   C     C_R   0.574606 0.280594 0.210772 -0.028511
C76   C     C_R   0.486867 0.367345 0.238812 -0.117347
C77   C     C_R   0.479434 0.353280 0.289085 0.262331
C78   C     C_3   0.739443 0.706876 0.776800 -0.097236
C79   C     C_R   0.588444 0.297515 0.161651 -0.133441
C80   C     C_R   0.678602 0.209940 0.134724 -0.001294
C81   C     C_R   0.729188 0.046632 0.354148 -0.127457
C82   C     C_R   0.732333 0.060233 0.304492 0.016141
C83   C     C_R   0.649038 0.162808 0.282841 0.018074
C84   C     C_R   0.815533 0.970701 0.276016 -0.120272
C85   C     C_R   0.817474 0.982928 0.226083 -0.124241
C86   C     C_R   0.738056 0.085890 0.204437 0.023287
C87   C     C_R   0.653290 0.176341 0.232652 0.048529
C88   C     C_R   0.746693 0.101870 0.155387 -0.124832
C89   C     C_1   0.696929 0.608046 0.900125 -0.013524
C90   C     C_R   0.639877 0.130666 0.382457 -0.020935
C91   C     C_R   0.049138 0.236238 0.949726 0.545610
C92   C     C_R   0.711511 0.562959 0.948163 0.544283
C93   C     C_R   0.722083 0.225469 0.950893 0.544726
C94   C     C_R   0.047791 0.245415 0.088607 0.547798
C95   C     C_R   0.707549 0.576544 0.085744 0.547173
C96   C     C_R   0.718237 0.233579 0.089166 0.547110
Cr1   Cr    Cr6+3 0.417550 0.169090 0.500530 1.038534
Cr2   Cr    Cr6+3 0.669180 0.913420 0.499920 1.025803
Cr3   Cr    Cr6+3 0.413260 0.917540 0.499520 1.021364
Cr4   Cr    Cr6+3 0.909170 0.177380 0.020380 1.020817
Cr5   Cr    Cr6+3 0.912710 0.429210 0.018220 1.023057
Cr6   Cr    Cr6+3 0.657170 0.432570 0.019030 1.023539
H1    H     H_    0.794887 0.738111 0.792621 0.111246
H2    H     H_    0.342590 0.115112 0.801473 0.114331
H3    H     H_    0.015717 0.357709 0.782212 0.122922
H4    H     H_    0.469178 0.321572 0.792896 0.150437
H5    H     H_    0.600118 0.361375 0.722687 0.111650
H6    H     H_    0.514630 0.119298 0.741278 0.132846
H7    H     H_    0.713019 0.992130 0.798664 0.105978
H8    H     H_    0.844000 0.032038 0.728719 0.111865
H9    H     H_    0.798652 0.234003 0.780119 0.102802
H10   H     H_    0.858885 0.609390 0.139420 0.123728
H11   H     H_    0.862174 0.561173 0.720911 0.128530
H12   H     H_    0.800094 0.706649 0.379557 0.116697
H13   H     H_    0.936390 0.635012 0.216600 0.096806
H14   H     H_    0.917762 0.662145 0.305165 0.097959
H15   H     H_    0.505469 0.694151 0.131133 0.126706
H16   H     H_    0.387672 0.749491 0.203176 0.100567
H17   H     H_    0.373832 0.763792 0.291604 0.094867
H18   H     H_    0.459386 0.753754 0.368847 0.130258
H19   H     H_    0.103246 0.051556 0.138778 0.121381
H20   H     H_    0.225352 0.981931 0.376616 0.117497
H21   H     H_    0.142363 0.936880 0.212690 0.098292
H22   H     H_    0.589278 0.873281 0.740485 0.102493
H23   H     H_    0.177694 0.915869 0.300536 0.094456
H24   H     H_    0.110406 0.368295 0.144921 0.128349
H25   H     H_    0.137795 0.441409 0.220963 0.101554
H26   H     H_    0.162943 0.425182 0.309015 0.136733
H27   H     H_    0.196946 0.315693 0.381534 0.141001
H28   H     H_    0.534310 0.380453 0.145484 0.123630
H29   H     H_    0.488370 0.297753 0.383332 0.169346
H30   H     H_    0.423441 0.445255 0.221518 0.102036
H31   H     H_    0.814268 0.032540 0.134406 0.128211
H32   H     H_    0.480730 0.777540 0.795435 0.107420
H33   H     H_    0.882965 0.913114 0.204593 0.099585
H34   H     H_    0.878690 0.891081 0.292338 0.100510
H35   H     H_    0.792347 0.966329 0.370044 0.132440
H36   H     H_    0.547997 0.600628 0.723969 0.110756
H37   H     H_    0.753568 0.465467 0.775982 0.100305
H38   H     H_    0.100741 0.027311 0.784516 0.117929
H39   H     H_    0.983621 0.209301 0.717841 0.107178
H40   H     H_    0.310630 0.966610 0.737016 0.110755
O1    O     O_R   0.301710 0.195650 0.554160 -0.491845
O2    O     O_R   0.658900 0.818120 0.449760 -0.500814
O3    O     O_R   0.503220 0.801620 0.445520 -0.524206
O4    O     O_R   0.319370 0.022040 0.450020 -0.502622
O5    O     O_3   0.499990 0.000010 0.499990 -0.247291
O6    O     O_R   0.818720 0.150820 0.967160 -0.508104
O7    O     O_R   0.006410 0.181720 0.970200 -0.496140
O8    O     O_R   0.027890 0.334070 0.964920 -0.504008
O9    O     O_R   0.809600 0.521790 0.967960 -0.495059
O10   O     O_R   0.635520 0.542770 0.964420 -0.507350
O11   O     O_R   0.665950 0.325030 0.970100 -0.494020
O12   O     O_R   0.522390 0.158990 0.550460 -0.487945
O13   O     O_R   0.816620 0.158530 0.074540 -0.522979
O14   O     O_R   0.004460 0.188870 0.069750 -0.500835
O15   O     O_R   0.025800 0.341780 0.072300 -0.522571
O16   O     O_R   0.807650 0.528950 0.067500 -0.503767
O17   O     O_R   0.633420 0.550490 0.071810 -0.520764
O18   O     O_R   0.664000 0.332180 0.069640 -0.499412
O19   O     O_3   0.826350 0.346390 0.019210 -0.243876
O20   O     O_R   0.694390 0.003530 0.554040 -0.507814
O21   O     O_R   0.657700 0.819660 0.549320 -0.493036
O22   O     O_R   0.501930 0.803280 0.552920 -0.506156
O23   O     O_R   0.318170 0.023580 0.549580 -0.500485
O24   O     O_R   0.303010 0.193990 0.446760 -0.519950
O25   O     O_R   0.523600 0.157450 0.450900 -0.502290
O26   O     O_R   0.695690 0.001860 0.446640 -0.520643
Br1   Br    Br    0.245777 0.341824 0.727554 -0.569660
O27   O     O_3   0.386889 0.433939 0.316032 -0.578561
C97   C     C_3   0.387915 0.538141 0.318064 -0.021178
H41   H     H_    0.359975 0.583114 0.282775 0.126463
H42   H     H_    0.474427 0.524366 0.327545 0.139420
C98   C     C_3   0.304095 0.614886 0.357100 -0.376281
H43   H     H_    0.329977 0.572617 0.392983 0.160485
H44   H     H_    0.303073 0.697689 0.359214 0.082445
H45   H     H_    0.216508 0.631878 0.348337 0.149532

loop_
_geom_bond_atom_site_label_1
_geom_bond_atom_site_label_2
_ccdc_geom_bond_type
C66   C68   A    
C97   H41   S    
C73   H29   S    
C40   C41   A    
C95   O16   A    
C76   H30   S    
C73   C74   A    
C83   C87   A    
C74   C83   A    
C43   C44   A    
C2    C12   S    
C26   H4    S    
Cr2   O21   S    
C5    H36   S    
C47   C49   A    
C49   H17   S    
C85   C86   A    
C81   H35   S    
C97   H42   S    
C11   C19   S    
C20   C21   S    
C95   O17   A    
C60   H23   S    
C19   C21   S    
C21   H40   S    
C5    C6    S    
C38   H12   S    
C86   C88   A    
C96   O13   A    
O27   C97   S    
Cr1   O24   S    
Cr5   O8    S    
C17   C20   S    
C58   C70   A    
C93   O6    A    
C61   H19   S    
C18   C19   S    
C41   C42   A    
C69   C71   A    
C98   H43   S    
Cr1   O1    S    
C35   H6    S    
C23   O23   A    
C44   C53   A    
C40   C43   A    
C31   C32   S    
C68   C69   A    
C56   C72   S    
C74   C77   A    
C92   O10   A    
C45   O2    A    
C31   C33   S    
C71   H24   S    
Cr4   O19   S    
C80   C96   S    
Cr1   O25   S    
C18   C20   S    
C55   C72   A    
C25   C26   S    
Cr4   O14   S    
C58   C61   A    
C15   C23   S    
Cr3   O3    S    
C55   H20   S    
Cr5   O15   S    
C59   C60   A    
C59   H21   S    
Cr1   O5    S    
C23   O1    A    
C1    O12   A    
C67   C78   S    
C41   H13   S    
C4    C7    S    
C34   O26   A    
Cr2   O20   S    
C81   C82   A    
C39   C42   A    
C25   C29   S    
C97   C98   S    
C46   H18   S    
C51   C52   A    
C32   C35   S    
C8    C78   S    
C76   C77   A    
C7    H32   S    
C9    C89   T    
C5    C7    S    
C86   C87   A    
C16   C17   S    
C57   C60   A    
C6    C8    S    
C58   C59   A    
C40   C52   A    
C79   H28   S    
C93   O11   A    
Cr5   O9    S    
Cr3   O22   S    
C51   C53   A    
C64   C66   A    
C75   C76   A    
C34   C90   S    
C4    C78   S    
C29   C30   S    
C12   O22   A    
C11   C16   S    
C47   C48   A    
C38   C54   A    
C29   C31   S    
C61   C62   A    
C46   C54   A    
C92   O9    A    
C50   C51   A    
C13   C21   S    
C1    C28   S    
C32   C37   S    
C84   C85   A    
C89   C92   S    
C11   H39   S    
Cr6   O11   S    
C98   H45   S    
C16   H3    S    
C85   H33   S    
C81   C90   A    
Cr4   O13   S    
C8    H22   S    
C15   C24   T    
C96   O18   A    
Cr3   O4    S    
C45   C54   S    
C26   C30   S    
C94   O15   A    
C82   C84   A    
C62   C94   S    
Cr4   O7    S    
C49   C50   A    
C45   O3    A    
C27   C93   S    
C3    H37   S    
Cr5   O16   S    
C13   H38   S    
Cr6   O18   S    
C3    C4    S    
C2    C10   T    
C25   H5    S    
C91   O7    A    
C18   Br1   S    
C42   H14   S    
Cr3   O5    S    
C46   C47   A    
C84   H34   S    
C30   C33   S    
Cr2   O2    S    
C78   H1    S    
C50   H16   S    
C29   H9    S    
C16   C18   S    
C3    C67   S    
Cr2   O5    S    
C57   C65   A    
C63   C64   A    
C3    C5    S    
Cr1   O12   S    
Cr6   O17   S    
C6    C10   S    
C91   O8    A    
C20   H2    S    
C30   C36   S    
C27   C36   T    
C17   C22   S    
C13   C17   S    
C64   C65   A    
C14   C22   T    
C55   C57   A    
C19   C24   S    
C67   H11   S    
C80   C88   A    
C44   C95   S    
C6    C67   S    
C12   O21   A    
C11   C13   S    
C38   C39   A    
C28   C37   T    
Cr4   O6    S    
Cr6   O19   S    
Cr5   O19   S    
C33   C35   S    
C31   H8    S    
C66   H26   S    
C62   C71   A    
C53   H15   S    
C63   H27   S    
C56   O4    A    
C69   C70   A    
C98   H44   S    
C14   C91   S    
C7    C8    S    
C1    O20   A    
C68   H25   S    
C79   C80   A    
C26   C35   S    
C48   C52   A    
C33   H7    S    
C63   C72   A    
C73   C90   A    
C94   O14   A    
C82   C83   A    
C43   H10   S    
C56   O24   A    
C34   O25   A    
C88   H31   S    
C4    C9    S    
C77   O27   S    
C75   C79   A    
Cr2   O26   S    
C75   C87   A    
C65   C70   A    
Cr6   O10   S    
C39   C48   A    
Cr3   O23   S    
C25   C32   S    
