data_mof_unit_61078.cif
_audit_creation_date              2013-03-05T16:12:59-0500
_audit_creation_method            fapswitch 2.2
_symmetry_space_group_name_H-M    P1
_symmetry_Int_Tables_number       1
_space_group_crystal_system       triclinic
_cell_length_a                    23.79874
_cell_length_b                    6.90409
_cell_length_c                    22.00478
_cell_angle_alpha                 90.020313
_cell_angle_beta                  101.945312
_cell_angle_gamma                 89.972402
_cell_volume                      3537.28190264

loop_
_atom_site_label
_atom_site_type_symbol
_atom_site_description
_atom_site_fract_x
_atom_site_fract_y
_atom_site_fract_z
_atom_type_partial_charge
O1    O     O_R   0.301920 0.607900 0.199160 -0.561847
O2    O     O_R   0.698080 0.392100 0.800840 -0.563523
O3    O     O_R   0.198080 0.107900 0.300840 -0.562665
O4    O     O_R   0.801920 0.892100 0.699160 -0.562628
O5    O     O_R   0.190790 0.275820 0.184850 -0.559744
O6    O     O_R   0.809210 0.724180 0.815150 -0.559711
O7    O     O_R   0.309210 0.775820 0.315150 -0.559907
O8    O     O_R   0.690790 0.224180 0.684850 -0.558992
C1    C     C_R   0.168720 0.447198 0.166645 1.000692
C2    C     C_R   0.831280 0.552802 0.833355 1.000803
C3    C     C_R   0.331279 0.947178 0.333356 1.001566
C4    C     C_R   0.668720 0.052823 0.666646 1.001019
O9    O     O_R   0.301050 0.278040 0.191980 -0.556526
O10   O     O_R   0.698950 0.721960 0.808020 -0.557793
O11   O     O_R   0.198950 0.778040 0.308020 -0.557354
O12   O     O_R   0.801050 0.221960 0.691980 -0.557303
O13   O     O_R   0.309130 0.110040 0.308020 -0.584029
O14   O     O_R   0.690870 0.889960 0.691980 -0.584174
O15   O     O_R   0.190870 0.610040 0.191980 -0.584152
O16   O     O_R   0.809130 0.389960 0.808020 -0.584366
C5    C     C_R   0.319295 0.447207 0.178706 1.114588
C6    C     C_R   0.680743 0.552846 0.821269 1.117550
C7    C     C_R   0.180704 0.947314 0.321259 1.115847
C8    C     C_R   0.819296 0.052686 0.678741 1.115921
O17   O     O_3   0.252520 0.442130 0.288070 -0.246534
O18   O     O_3   0.747480 0.557870 0.711930 -0.246050
O19   O     O_3   0.247480 0.942130 0.211930 -0.245458
O20   O     O_3   0.752520 0.057870 0.788070 -0.247589
V1    V     V_3+5 0.249530 0.166380 0.242940 1.292164
V2    V     V_3+5 0.750470 0.833620 0.757060 1.291765
V3    V     V_3+5 0.250470 0.666380 0.257060 1.291762
V4    V     V_3+5 0.749530 0.333620 0.742940 1.291828
C9    C     C_R   0.897046 0.154640 0.545858 0.457397
C10   C     C_R   0.102959 0.845373 0.454146 0.457464
C11   C     C_R   0.601037 0.659610 0.952200 0.462455
C12   C     C_R   0.397413 0.342529 0.046183 0.459068
C13   C     C_R   0.857379 0.167698 0.585309 0.360734
C14   C     C_R   0.142626 0.832314 0.414694 0.360730
C15   C     C_R   0.641808 0.669432 0.913973 0.369797
C16   C     C_R   0.357910 0.329393 0.085813 0.361366
C17   C     C_R   0.861483 0.040957 0.636779 -0.501196
C18   C     C_R   0.138517 0.959043 0.363221 -0.501164
C19   C     C_R   0.638234 0.541792 0.862808 -0.504028
C20   C     C_R   0.361428 0.458649 0.136629 -0.502274
C21   C     C_R   0.906157 0.900773 0.647436 0.365566
C22   C     C_R   0.093841 0.099217 0.352562 0.365506
C23   C     C_R   0.593164 0.403497 0.851329 0.368830
C24   C     C_R   0.405524 0.600867 0.146547 0.367239
C25   C     C_R   0.945192 0.886628 0.607209 0.261644
C26   C     C_R   0.054807 0.113364 0.392789 0.261734
C27   C     C_R   0.553015 0.392276 0.890349 0.266548
C28   C     C_R   0.444329 0.615183 0.106070 0.263171
C29   C     C_R   0.940875 0.014326 0.556556 -0.328689
C30   C     C_R   0.059128 0.985678 0.443446 -0.328801
C31   C     C_R   0.556693 0.521271 0.940656 -0.328548
C32   C     C_R   0.440361 0.485797 0.055860 -0.330049
C33   C     C_1   0.982576 0.004306 0.516556 0.288268
C34   C     C_1   0.017426 0.995700 0.483446 0.288260
C35   C     C_1   0.515640 0.508371 0.981348 0.284902
C36   C     C_1   0.481408 0.497657 0.015132 0.289803
C37   C     C_1   0.616622 0.040834 0.614560 -0.232470
C38   C     C_1   0.383374 0.959170 0.385444 -0.235365
C39   C     C_1   0.883375 0.540783 0.885440 -0.234338
C40   C     C_1   0.116625 0.459218 0.114560 -0.234698
C41   C     C_1   0.573259 0.026861 0.571800 0.117174
C42   C     C_1   0.426735 0.973147 0.428207 0.116601
C43   C     C_1   0.926737 0.526817 0.928203 0.116915
C44   C     C_1   0.073262 0.473185 0.071798 0.116925
C45   C     C_1   0.521726 0.008127 0.521277 0.048985
C46   C     C_1   0.478268 0.991883 0.478731 0.048932
C47   C     C_1   0.978270 0.508109 0.978727 0.049187
C48   C     C_1   0.021729 0.491892 0.021274 0.049188
Cl1   Cl    Cl    0.891336 0.314560 0.482095 -0.406188
Cl2   Cl    Cl    0.108673 0.685466 0.517913 -0.405306
Cl3   Cl    Cl    0.606027 0.821112 0.015497 -0.418483
Cl4   Cl    Cl    0.392742 0.178302 0.983629 -0.400387
Cl5   Cl    Cl    0.800990 0.338878 0.567291 -0.509999
Cl6   Cl    Cl    0.199018 0.661148 0.432714 -0.509465
Cl7   Cl    Cl    0.698721 0.838162 0.932964 -0.509772
Cl8   Cl    Cl    0.302448 0.154695 0.068728 -0.507441
Cl9   Cl    Cl    0.914671 0.740430 0.711512 -0.550806
Cl10  Cl    Cl    0.085322 0.259540 0.288480 -0.551065
Cl11  Cl    Cl    0.582751 0.253159 0.784706 -0.550106
Cl12  Cl    Cl    0.413616 0.763805 0.209965 -0.549823
N1    N     N_R   0.989255 0.741107 0.617774 0.277297
O21   O     O_R   0.027119 0.737517 0.669713 -0.257979
O22   O     O_R   0.992399 0.614412 0.574828 -0.287193
N2    N     N_R   0.010741 0.258873 0.382222 0.277253
O23   O     O_R   0.972868 0.262411 0.330289 -0.258756
O24   O     O_R   0.007603 0.385604 0.425158 -0.287269
N3    N     N_R   0.507953 0.250503 0.878227 0.285148
O25   O     O_R   0.520249 0.067361 0.875846 -0.282492
O26   O     O_R   0.454482 0.304187 0.869524 -0.277465
N4    N     N_R   0.487913 0.762255 0.116055 0.277682
O27   O     O_R   0.525789 0.768582 0.167959 -0.259892
O28   O     O_R   0.490676 0.887486 0.072619 -0.295422

loop_
_geom_bond_atom_site_label_1
_geom_bond_atom_site_label_2
_geom_bond_distance
_ccdc_geom_bond_type
O17   V3    1.688774 S    
O1    C5    1.296403 A    
C31   C35   1.458261 S    
O19   V1    1.688374 S    
C1    C40   1.506437 S    
O13   V1    1.836577 S    
O3    C7    1.296069 A    
C2    C39   1.506436 S    
C3    C38   1.506477 S    
O15   V3    1.836652 S    
N1    O21   1.300984 A    
O7    C3    1.322562 A    
C11   Cl3   1.768585 S    
C26   C30   1.408330 A    
C7    C18   1.500276 S    
C40   C44   1.248070 T    
O9    V1    1.981358 S    
C14   C18   1.418722 A    
C30   C34   1.458080 S    
O4    C8    1.296072 A    
C25   C29   1.408332 A    
O1    V3    1.982546 S    
O2    V4    1.982550 S    
C18   C22   1.420562 A    
O3    V1    1.982974 S    
C12   C16   1.411398 A    
C12   Cl4   1.768712 S    
C27   N3    1.435862 S    
C22   Cl10  1.771216 S    
C28   C32   1.408467 A    
C1    O15   1.315726 A    
C2    O16   1.315728 A    
O2    C6    1.296131 A    
C16   Cl8   1.770342 S    
C28   N4    1.435853 S    
O14   V2    1.836576 S    
C23   Cl11  1.771090 S    
C16   C20   1.419268 A    
C27   C31   1.409097 A    
C26   N2    1.435722 S    
O11   C7    1.300338 A    
C35   C36   1.213534 T    
O12   C8    1.300339 A    
O17   V1    2.141323 S    
C8    C17   1.500279 S    
N4    O27   1.301053 A    
O10   V2    1.981361 S    
O5    V1    1.849067 S    
N1    O22   1.300916 A    
C9    C29   1.406912 A    
C39   C43   1.248070 T    
O7    V3    1.849244 S    
C38   C42   1.248096 T    
C11   C31   1.407234 A    
O8    V4    1.849245 S    
C25   N1    1.435729 S    
O20   V4    2.141888 S    
N3    O25   1.301186 A    
C29   C33   1.458082 S    
O18   V4    1.688773 S    
C15   C19   1.418137 A    
C14   Cl6   1.770144 S    
O19   V3    2.141888 S    
C9    C13   1.411406 A    
C24   Cl12  1.771403 S    
C44   C48   1.480660 S    
C15   Cl7   1.770067 S    
C11   C15   1.411247 A    
O5    C1    1.322486 A    
C12   C32   1.406843 A    
C37   C41   1.248091 T    
N3    O26   1.300823 A    
C5    C20   1.501137 S    
C6    C19   1.499238 S    
C21   C25   1.412928 A    
O8    C4    1.322558 A    
O9    C5    1.300456 A    
N4    O28   1.300805 A    
C10   Cl2   1.768664 S    
C9    Cl1   1.768665 S    
O6    V2    1.849063 S    
N2    O24   1.300910 A    
C10   C30   1.406912 A    
O16   V4    1.836653 S    
C3    O13   1.315751 A    
C10   C14   1.411407 A    
C21   Cl9   1.771219 S    
O6    C2    1.322488 A    
C23   C27   1.412775 A    
O11   V3    1.980592 S    
O12   V4    1.980591 S    
C22   C26   1.412922 A    
O10   C6    1.299616 A    
O20   V2    1.688373 S    
C47   C48   1.248157 T    
C4    C37   1.506474 S    
C33   C34   1.213375 T    
C42   C46   1.480700 S    
C13   Cl5   1.770144 S    
C41   C45   1.480699 S    
C43   C47   1.480661 S    
C13   C17   1.418726 A    
C45   C46   1.248180 T    
C32   C36   1.458314 S    
C24   C28   1.413029 A    
N2    O23   1.300974 A    
C4    O14   1.315754 A    
C17   C21   1.420566 A    
C19   C23   1.419370 A    
O4    V2    1.982971 S    
C20   C24   1.420938 A    
O18   V2    2.141323 S    
