data_mof_unit_64272.cif
_audit_creation_date              2012-12-10T19:45:53-0500
_audit_creation_method            fapswitch 2.2
_symmetry_space_group_name_H-M    P1
_symmetry_Int_Tables_number       1
_space_group_crystal_system       triclinic
_cell_length_a                    10.468508
_cell_length_b                    14.961608
_cell_length_c                    14.155843
_cell_angle_alpha                 90.226139
_cell_angle_beta                  102.18853
_cell_angle_gamma                 89.824149
_cell_volume                      2167.1674284

loop_
_atom_site_label
_atom_site_type_symbol
_atom_type_description
_atom_site_fract_x
_atom_site_fract_y
_atom_site_fract_z
_atom_type_partial_charge
C1    C     C_R   0.499306 0.327858 0.499694 0.904969
C2    C     C_R   0.499259 0.672525 0.500089 0.927758
C3    C     C_R   0.470680 0.048910 0.497070 0.049092
C4    C     C_R   0.469381 0.952668 0.495958 0.044207
C5    C     C_R   0.449447 0.427329 0.096940 -0.243442
C6    C     C_R   0.599423 0.542617 0.910584 -0.241999
C7    C     C_R   0.450342 0.428755 0.196418 0.061454
C8    C     C_R   0.597555 0.541999 0.810989 0.051181
C9    C     C_R   0.549154 0.571294 0.212336 0.076776
C10   C     C_R   0.402051 0.458263 0.779929 0.082467
C11   C     C_R   0.549761 0.572731 0.113148 -0.236328
C12   C     C_R   0.399828 0.457624 0.878895 -0.235852
C13   C     C_R   0.499591 0.500025 0.053229 0.126854
C14   C     C_R   0.499596 0.500067 0.946545 0.119413
C15   C     C_R   0.257084 0.504471 0.461292 0.922300
C16   C     C_R   0.742900 0.503732 0.538824 0.931264
C17   C     C_2   0.117225 0.520246 0.443698 0.026448
C18   C     C_2   0.882795 0.518056 0.556910 0.025661
C19   C     C_2   0.069153 0.577634 0.501565 0.232683
C20   C     C_2   0.931197 0.577741 0.502422 0.229840
C21   C     C_R   0.554972 0.091719 0.573635 -0.133772
C22   C     C_R   0.518331 0.908617 0.423782 -0.133406
C23   C     C_R   0.563773 0.183717 0.574940 -0.155834
C24   C     C_R   0.527566 0.816560 0.424658 -0.133424
C25   C     C_R   0.491408 0.232421 0.498057 -0.081821
C26   C     C_R   0.491511 0.768686 0.499486 -0.089294
C27   C     C_R   0.408105 0.190061 0.420791 -0.206994
C28   C     C_R   0.443899 0.812891 0.572383 -0.176990
C29   C     C_R   0.395973 0.097947 0.420399 0.306365
C30   C     C_R   0.430523 0.904876 0.570179 0.301520
H1    H     H_    0.587546 0.631186 0.083630 0.154728
H2    H     H_    0.319320 0.425119 0.901779 0.163092
H3    H     H_    0.411334 0.368967 0.055096 0.154250
H4    H     H_    0.679765 0.575180 0.958985 0.158019
H5    H     H_    0.411307 0.372516 0.228816 0.140640
H6    H     H_    0.674728 0.575009 0.784442 0.148192
N1    N     N_R   0.500000 0.499980 0.252470 -0.098803
N2    N     N_R   0.500000 0.500020 0.747530 -0.102453
O1    O     O_R   0.500010 0.369070 0.579480 -0.611946
O2    O     O_R   0.499990 0.630930 0.420520 -0.622614
O3    O     O_R   0.500010 0.369060 0.420520 -0.624372
O4    O     O_R   0.499990 0.630940 0.579480 -0.610755
O5    O     O_R   0.317810 0.500010 0.549800 -0.594251
O6    O     O_R   0.682190 0.499990 0.450200 -0.575923
O7    O     O_R   0.317810 0.500000 0.390840 -0.591452
O8    O     O_R   0.682190 0.500000 0.609160 -0.605438
Zn1   Zn    Zn3+2 0.500000 0.500010 0.606140 1.002832
Zn2   Zn    Zn3+2 0.500000 0.499990 0.393860 1.007722
Br1   Br    Br    0.827038 0.666743 0.423055 -0.480316
Br2   Br    Br    0.173798 0.660924 0.589074 -0.428687
Br3   Br    Br    0.992951 0.442308 0.649687 -0.479200
Br4   Br    Br    0.006167 0.449976 0.345509 -0.434358
H7    H     H_    0.614177 0.053652 0.631920 0.177491
H8    H     H_    0.550437 0.945762 0.367480 0.178701
H9    H     H_    0.628475 0.216754 0.634652 0.173175
H10   H     H_    0.564668 0.783080 0.367958 0.185327
H11   H     H_    0.350520 0.228709 0.362258 0.179497
H12   H     H_    0.415091 0.776080 0.630162 0.215249
Br5   Br    Br    0.274119 0.042657 0.316238 -0.435928
Br6   Br    Br    0.356146 0.961737 0.668030 -0.422885
H13   H     H_    0.587610 0.627749 0.257129 0.159986
H14   H     H_    0.324885 0.425433 0.728829 0.169383

loop_
_geom_bond_atom_site_label_1
_geom_bond_atom_site_label_2
_ccdc_geom_bond_type
C1    O3    A    
C1    C25   S    
C22   H8    S    
C2    O2    A    
C23   H9    S    
C20   Br1   S    
C28   H12   S    
C6    C14   A    
C4    C22   A    
C16   O6    A    
C5    C13   A    
C19   C20   S    
C10   N2    A    
C28   C30   A    
C7    N1    A    
C15   O5    A    
C2    C26   S    
C16   C18   S    
O8    Zn1   S    
C13   C14   S    
C12   H2    S    
N1    Zn2   S    
C21   H7    S    
C11   C13   A    
C19   Br2   S    
C9    C11   A    
N2    Zn1   S    
C10   H14   S    
C10   C12   A    
C2    O4    A    
C9    H13   S    
C17   Br4   S    
C9    N1    A    
C17   C19   D    
O3    Zn2   S    
C12   C14   A    
C18   Br3   S    
C18   C20   D    
O4    Zn1   S    
C8    N2    A    
C21   C23   A    
C27   H11   S    
C25   C27   A    
C22   C24   A    
C3    C21   A    
C24   H10   S    
C1    O1    A    
C29   Br5   S    
C11   H1    S    
C3    C4    S    
C6    H4    S    
C7    H5    S    
C23   C25   A    
C30   Br6   S    
C27   C29   A    
C3    C29   A    
C8    H6    S    
O7    Zn2   S    
C16   O8    A    
C5    C7    A    
C15   O7    A    
O2    Zn2   S    
C6    C8    A    
C15   C17   S    
O1    Zn1   S    
C26   C28   A    
C4    C30   A    
O6    Zn2   S    
C24   C26   A    
O5    Zn1   S    
C5    H3    S    
