data_mof_unit_44291.cif
_audit_creation_date              2012-10-26T20:40:17-0400
_audit_creation_method            fapswitch 2.2
_symmetry_space_group_name_H-M    P1
_symmetry_Int_Tables_number       1
_space_group_crystal_system       triclinic
_cell_length_a                    15.0218
_cell_length_b                    10.789653
_cell_length_c                    9.616135
_cell_angle_alpha                 89.83556
_cell_angle_beta                  88.451826
_cell_angle_gamma                 91.386159
_cell_volume                      1557.54869482

loop_
_atom_site_label
_atom_site_type_symbol
_atom_type_description
_atom_site_fract_x
_atom_site_fract_y
_atom_site_fract_z
_atom_type_partial_charge
Br1   Br    Br    0.740879 0.766257 0.503474 -0.323677
Br2   Br    Br    0.608031 0.205466 0.815991 -0.311511
Br3   Br    Br    0.328440 0.887706 0.009297 -0.320829
Br4   Br    Br    0.822223 0.712776 0.142106 -0.325045
Br5   Br    Br    0.608304 0.805415 0.810591 -0.397127
Br6   Br    Br    0.747809 0.242449 0.469744 -0.265623
Br7   Br    Br    0.889057 0.154455 0.689080 -0.211406
Br8   Br    Br    0.585625 0.134462 0.213782 -0.342475
C1    C     C_R   0.508195 0.262601 0.500797 0.609379
C2    C     C_R   0.183827 0.392011 0.548168 0.217291
C3    C     C_R   0.232959 0.497765 0.506065 0.028089
C4    C     C_R   0.329269 0.498095 0.501649 0.601529
C5    C     C_R   0.190971 0.606442 0.471328 -0.081189
C6    C     C_R   0.505539 0.105745 0.766300 0.183499
C7    C     C_R   0.455560 0.053069 0.876654 -0.077896
C8    C     C_R   0.399188 0.951099 0.854717 0.207811
C9    C     C_R   0.401043 0.891713 0.724835 0.297536
C10   C     C_R   0.457897 0.939594 0.615872 -0.003200
C11   C     C_R   0.494351 0.060063 0.629424 -0.005581
C12   C     C_R   0.909196 0.623033 0.489436 0.000328
C13   C     C_R   0.517698 0.127255 0.505362 0.053685
C14   C     C_R   0.534574 0.061275 0.381384 0.170770
C15   C     C_R   0.521801 0.934035 0.380548 -0.068372
C16   C     C_R   0.491969 0.736978 0.499695 0.602617
C17   C     C_R   0.484483 0.871709 0.496867 0.019085
C18   C     C_R   0.638499 0.626934 0.134359 -0.050898
C19   C     C_R   0.717198 0.651385 0.056809 0.152044
C20   C     C_R   0.716101 0.643083 0.912761 -0.060335
C21   C     C_R   0.633246 0.636804 0.852205 0.183585
C22   C     C_R   0.565050 0.567168 0.922589 0.165140
C23   C     C_R   0.946986 0.291768 0.591585 0.205145
C24   C     C_R   0.566191 0.565041 0.071376 0.113828
C25   C     C_R   0.437383 0.436370 0.076658 0.051110
C26   C     C_R   0.437629 0.435975 0.928823 0.046485
C27   C     C_R   0.670884 0.501757 0.498674 0.600719
C28   C     C_R   0.814182 0.620604 0.494424 0.143131
C29   C     C_R   0.767793 0.505765 0.497796 0.002270
C30   C     C_R   0.811805 0.394433 0.513888 0.152175
C31   C     C_R   0.903082 0.397048 0.541215 0.027167
C32   C     C_R   0.952936 0.509254 0.515772 -0.066648
C33   C     C_R   0.039183 0.291395 0.593095 -0.030684
C34   C     C_R   0.090223 0.395415 0.551270 0.017303
C35   C     C_R   0.046950 0.506443 0.516113 -0.023947
C36   C     C_R   0.098112 0.613749 0.480206 -0.009100
C37   C     C_R   0.056189 0.726026 0.454003 0.273050
C38   C     C_R   0.962793 0.732095 0.459854 0.315603
Cl1   Cl    Cl    0.323013 0.770715 0.695718 -0.509197
Cl2   Cl    Cl    0.241016 0.255603 0.591412 -0.559130
Cl3   Cl    Cl    0.121089 0.862578 0.415276 -0.400807
Cl4   Cl    Cl    0.919804 0.878687 0.418048 -0.296335
Cu1   Cu    Cu3+1 0.499990 0.499990 0.640660 1.105222
Cu2   Cu    Cu3+1 0.500010 0.500010 0.359340 1.049603
H1    H     H_    0.462011 0.089770 0.980489 0.185846
H2    H     H_    0.542944 0.883623 0.288590 0.180997
H3    H     H_    0.386309 0.383537 0.133781 0.145254
H4    H     H_    0.635538 0.659700 0.239089 0.200727
H5    H     H_    0.773396 0.678297 0.852719 0.195440
H6    H     H_    0.386834 0.382823 0.876034 0.149594
H7    H     H_    0.070303 0.208849 0.630695 0.226500
H8    H     H_    0.232454 0.685449 0.439532 0.206234
N1    N     N_R   0.500860 0.501210 0.147910 -0.238473
N2    N     N_R   0.500890 0.501290 0.852040 -0.230608
O1    O     O_R   0.499990 0.319640 0.618810 -0.484978
O2    O     O_R   0.500000 0.319660 0.381240 -0.462927
O3    O     O_R   0.370250 0.499960 0.618800 -0.452788
O4    O     O_R   0.370260 0.499980 0.381230 -0.511054
O5    O     O_R   0.500000 0.680340 0.618760 -0.439871
O6    O     O_R   0.500010 0.680360 0.381190 -0.537346
O7    O     O_R   0.629740 0.500020 0.618770 -0.485140
O8    O     O_R   0.629750 0.500040 0.381200 -0.501600

loop_
_geom_bond_atom_site_label_1
_geom_bond_atom_site_label_2
_ccdc_geom_bond_type
C25   H3    S    
Br8   C14   S    
C3    C4    S    
Br6   C30   S    
C18   C24   A    
C21   C22   A    
C2    C34   A    
C1    O2    A    
C23   C33   A    
C33   C34   A    
C38   Cl4   S    
C4    O3    A    
Cu2   O6    S    
C37   Cl3   S    
C35   C36   A    
Cu1   O3    S    
C15   C17   A    
C25   C26   A    
Br2   C6    S    
Cu1   O1    S    
C5    H8    S    
Cu1   O5    S    
C20   H5    S    
C16   C17   S    
C22   C24   A    
C3    C5    A    
C1    C13   S    
C18   C19   A    
C29   C30   A    
C10   C17   A    
Cu1   N2    S    
C7    C8    A    
C7    H1    S    
C14   C15   A    
C20   C21   A    
C27   C29   S    
Br7   C23   S    
C23   C31   A    
C24   N1    A    
C9    C10   A    
Br5   C21   S    
Cu2   N1    S    
C22   N2    A    
Br1   C28   S    
C2    Cl2   S    
C30   C31   A    
C12   C32   A    
Cu2   O8    S    
C2    C3    A    
C16   O6    A    
C31   C32   A    
Cu1   Cu2   S    
C12   C28   A    
C37   C38   A    
C26   N2    A    
Br4   C19   S    
Cu2   O4    S    
C36   C37   A    
C27   O7    A    
C15   H2    S    
C25   N1    A    
C10   C11   A    
Cu2   O2    S    
C33   H7    S    
C34   C35   A    
C26   H6    S    
C6    C7    A    
C28   C29   A    
Cu1   O7    S    
C16   O5    A    
C11   C13   A    
C5    C36   A    
C13   C14   A    
C1    O1    A    
C4    O4    A    
C6    C11   A    
C32   C35   A    
C12   C38   A    
Br3   C8    S    
C9    Cl1   S    
C27   O8    A    
C8    C9    A    
C19   C20   A    
C18   H4    S    
