data_mof_unit_56666.cif
_audit_creation_date              2012-12-10T20:37:27-0500
_audit_creation_method            fapswitch 2.2
_symmetry_space_group_name_H-M    P1
_symmetry_Int_Tables_number       1
_space_group_crystal_system       triclinic
_cell_length_a                    15.720528
_cell_length_b                    10.667669
_cell_length_c                    9.866691
_cell_angle_alpha                 89.954214
_cell_angle_beta                  90.104024
_cell_angle_gamma                 89.954601
_cell_volume                      1654.65401085

loop_
_atom_site_label
_atom_site_type_symbol
_atom_type_description
_atom_site_fract_x
_atom_site_fract_y
_atom_site_fract_z
_atom_type_partial_charge
C1    C     C_R   0.497465 0.260332 0.499752 0.942580
C2    C     C_3   0.083285 0.501429 0.500567 -0.123241
C3    C     C_3   0.972082 0.596310 0.576787 0.246010
C4    C     C_3   0.917021 0.499996 0.501955 -0.095922
C5    C     C_3   0.027784 0.610157 0.448515 -0.226344
C6    C     C_3   0.971275 0.513136 0.373102 -0.231006
C7    C     C_1   0.174044 0.501628 0.499683 0.151554
C8    C     C_1   0.826189 0.499743 0.501345 0.121008
C9    C     C_R   0.554111 0.064591 0.581017 0.076535
C10   C     C_R   0.497567 0.128306 0.496818 -0.216002
C11   C     C_R   0.449104 0.063045 0.399332 0.273348
C12   C     C_R   0.337990 0.500260 0.499861 0.912648
C13   C     C_R   0.451943 0.933599 0.399059 -0.205684
C14   C     C_R   0.500533 0.871192 0.496829 -0.146192
C15   C     C_R   0.554931 0.936650 0.581864 0.074545
C16   C     C_3   0.567074 0.929352 0.731778 -0.456390
C17   C     C_3   0.567035 0.071826 0.731004 0.105056
C18   C     C_R   0.440685 0.566133 0.070997 0.172196
C19   C     C_R   0.563049 0.441047 0.072182 -0.075691
C20   C     C_R   0.563168 0.441431 0.928248 -0.080236
C21   C     C_R   0.440602 0.565826 0.928451 0.127404
C22   C     C_3   0.346606 0.548347 0.922056 -0.434209
C23   C     C_R   0.499587 0.739572 0.499763 0.915586
C24   C     C_3   0.346560 0.548724 0.076024 0.080625
C25   C     C_R   0.662063 0.499840 0.500167 0.908435
C26   C     C_3   0.972669 0.391892 0.553825 0.187583
C27   C     C_3   0.028109 0.405237 0.425947 0.255467
C28   C     C_1   0.249242 0.501094 0.499594 -0.084920
C29   C     C_1   0.750926 0.499712 0.500669 -0.110392
C30   C     C_3   0.028571 0.488444 0.627797 0.345763
H1    H     H_    0.629225 0.886531 0.759332 0.248378
H2    H     H_    0.512298 0.114099 0.785743 0.155051
H3    H     H_    0.612945 0.392405 0.126563 0.172099
H4    H     H_    0.613352 0.393750 0.874207 0.195737
H5    H     H_    0.314176 0.630346 0.875351 0.252143
H6    H     H_    0.328267 0.456187 0.878299 0.223698
H7    H     H_    0.327396 0.457560 0.121357 0.186853
H8    H     H_    0.946001 0.522551 0.268437 0.209180
H9    H     H_    0.052148 0.699498 0.405890 0.228613
H10   H     H_    0.412340 0.881947 0.328527 0.218025
H11   H     H_    0.511130 0.888693 0.784802 0.200515
N1    N     N_R   0.499430 0.499140 0.142800 -0.126455
N2    N     N_R   0.499430 0.499180 0.857150 -0.113653
O1    O     O_R   0.500010 0.316790 0.614690 -0.620267
O2    O     O_R   0.500000 0.316760 0.385350 -0.586292
O3    O     O_R   0.376780 0.500010 0.614650 -0.621901
O4    O     O_R   0.376770 0.499970 0.385310 -0.595420
O5    O     O_R   0.500000 0.683240 0.614650 -0.618728
O6    O     O_R   0.499990 0.683210 0.385310 -0.606706
O7    O     O_R   0.623230 0.500030 0.614690 -0.600997
O8    O     O_R   0.623220 0.499990 0.385350 -0.622606
Zn1   Zn    Zn3+2 0.500010 0.500020 0.653130 0.986113
Zn2   Zn    Zn3+2 0.499990 0.499980 0.346870 1.009892
Br1   Br    Br    0.070985 0.269146 0.315433 -0.316404
Br2   Br    Br    0.677292 0.143045 0.774895 -0.413489
Br3   Br    Br    0.289917 0.694179 0.152350 -0.411566
Br4   Br    Br    0.930442 0.235900 0.628961 -0.235879
Br5   Br    Br    0.929269 0.734466 0.684410 -0.297151
S1    S     S_3+6 0.069286 0.472823 0.795910 0.099497
O9    O     O_2   0.123562 0.357063 0.804563 -0.250149
O10   O     O_2   0.121970 0.585977 0.830147 -0.261873
O11   O     O_3   0.987739 0.461148 0.905165 -0.480014
H12   H     H_    0.014706 0.453774 0.995654 0.396329
Br6   Br    Br    0.370348 0.142731 0.276816 -0.412687

loop_
_geom_bond_atom_site_label_1
_geom_bond_atom_site_label_2
_ccdc_geom_bond_type
C14   C23   S    
C3    C30   S    
C4    C26   S    
C6    H8    S    
O11   H12   S    
C18   C24   S    
C24   Br3   S    
C18   C21   A    
C22   H6    S    
C9    C10   A    
C17   Br2   S    
C1    O1    A    
O7    Zn1   S    
C6    C27   S    
C14   C15   A    
C19   N1    A    
O4    Zn2   S    
C2    C30   S    
C20   H4    S    
C30   S1    S    
O1    Zn1   S    
C19   C20   A    
C5    H9    S    
C24   H7    S    
C9    C15   A    
C27   Br1   S    
O2    Zn2   S    
S1    O9    D    
C13   C14   A    
C16   H1    S    
C22   H5    S    
C11   C13   A    
C1    O2    A    
C26   C27   S    
C2    C27   S    
C12   C28   S    
C12   O4    A    
O6    Zn2   S    
C8    C29   T    
C21   C22   S    
C26   C30   S    
C3    C5    S    
C18   N1    A    
N1    Zn2   S    
C25   C29   S    
C5    C6    S    
C26   Br4   S    
C22   C24   S    
N2    Zn1   S    
S1    O10   D    
C2    C5    S    
C23   O6    A    
C10   C11   A    
C1    C10   S    
C3    C4    S    
C3    Br5   S    
O3    Zn1   S    
O5    Zn1   S    
C20   N2    A    
C4    C6    S    
C11   Br6   S    
C19   H3    S    
C9    C17   S    
C4    C8    S    
C17   H2    S    
C25   O7    A    
C13   H10   S    
C23   O5    A    
S1    O11   S    
O8    Zn2   S    
C21   N2    A    
C16   H11   S    
C15   C16   S    
C7    C28   T    
C2    C7    S    
C16   C17   S    
C25   O8    A    
C12   O3    A    
