data_mof_unit_63795.cif
_audit_creation_date              2012-12-10T16:52:42-0500
_audit_creation_method            fapswitch 2.2
_symmetry_space_group_name_H-M    P1
_symmetry_Int_Tables_number       1
_space_group_crystal_system       triclinic
_cell_length_a                    26.246512
_cell_length_b                    26.229772
_cell_length_c                    22.242351
_cell_angle_alpha                 89.992716
_cell_angle_beta                  54.019719
_cell_angle_gamma                 89.998716
_cell_volume                      12391.1894591

loop_
_atom_site_label
_atom_site_type_symbol
_atom_type_description
_atom_site_fract_x
_atom_site_fract_y
_atom_site_fract_z
_atom_type_partial_charge
C1    C     C_R   0.650322 0.249970 0.699470 0.818437
C2    C     C_1   0.889258 0.750082 0.221112 -0.144958
C3    C     C_2   0.248298 0.943906 0.499275 -0.292106
C4    C     C_3   0.497703 0.796035 0.975325 -0.175919
C5    C     C_3   0.496586 0.204317 0.975334 -0.177207
C6    C     C_3   0.999939 0.296703 0.975335 -0.177478
C7    C     C_3   0.997762 0.703874 0.975352 -0.177188
C8    C     C_3   0.563808 0.129608 0.444030 0.105542
C9    C     C_3   0.615337 0.090230 0.418379 -0.791766
C10   C     C_3   0.621530 0.804440 0.335564 0.108157
C11   C     C_3   0.682437 0.834141 0.284564 -0.782649
C12   C     C_3   0.063208 0.629389 0.445774 0.107547
C13   C     C_1   0.389350 0.749896 0.221106 -0.138709
C14   C     C_3   0.114705 0.589676 0.418349 -0.798211
C15   C     C_3   0.063279 0.370684 0.441528 0.106388
C16   C     C_3   0.113783 0.410491 0.418703 -0.800017
C17   C     C_1   0.458445 0.675989 0.947862 0.150342
C18   C     C_1   0.460197 0.325593 0.947849 0.149895
C19   C     C_1   0.954935 0.179375 0.947830 0.149852
C20   C     C_1   0.957943 0.823661 0.947824 0.145649
C21   C     C_1   0.389335 0.250103 0.221104 -0.136995
C22   C     C_1   0.610679 0.750093 0.778900 -0.132363
C23   C     C_1   0.610675 0.249896 0.778899 -0.132476
C24   C     C_1   0.110678 0.250095 0.778898 -0.132519
C25   C     C_1   0.110639 0.749882 0.778906 -0.132235
C26   C     C_3   0.021598 0.283920 0.025192 -0.142791
C27   C     C_3   0.019919 0.714605 0.025221 -0.141459
C28   C     C_3   0.519928 0.785535 0.025182 -0.144544
C29   C     C_R   0.650322 0.750026 0.699470 0.820050
C30   C     C_3   0.519046 0.213688 0.025190 -0.142740
C31   C     C_3   0.963226 0.249817 0.073179 0.183143
C32   C     C_3   0.963070 0.750179 0.073193 0.184374
C33   C     C_3   0.463250 0.749802 0.073180 0.183700
C34   C     C_3   0.463229 0.250189 0.073180 0.183101
C35   C     C_3   0.559343 0.739460 0.975637 -0.176778
C36   C     C_3   0.559556 0.259401 0.975635 -0.174834
C37   C     C_3   0.058764 0.237189 0.975635 -0.174790
C38   C     C_3   0.059122 0.760749 0.975665 -0.173937
C39   C     C_3   0.536605 0.750005 0.926885 0.154820
C40   C     C_R   0.150318 0.749968 0.699473 0.819412
C41   C     C_3   0.536583 0.249984 0.926883 0.154004
C42   C     C_3   0.036596 0.250014 0.926883 0.154142
C43   C     C_3   0.036457 0.749973 0.926895 0.154751
C44   C     C_3   0.999752 0.202992 0.025031 -0.198645
C45   C     C_3   0.001636 0.796413 0.025043 -0.199180
C46   C     C_3   0.502028 0.703637 0.025044 -0.200143
C47   C     C_3   0.503105 0.295989 0.025033 -0.199362
C48   C     C_3   0.480091 0.714819 0.975556 0.047887
C49   C     C_3   0.480917 0.285924 0.975549 0.047700
C50   C     C_3   0.978415 0.216434 0.975543 0.047900
C51   C     C_R   0.150323 0.250026 0.699470 0.818437
C52   C     C_3   0.979772 0.785003 0.975541 0.049434
C53   C     C_1   0.922693 0.249859 0.154307 -0.068724
C54   C     C_1   0.922561 0.750134 0.154317 -0.072572
C55   C     C_1   0.422711 0.749848 0.154308 -0.070348
C56   C     C_1   0.422690 0.250150 0.154307 -0.068597
C57   C     C_R   0.849703 0.249979 0.300534 0.821543
C58   C     C_R   0.849682 0.750015 0.300535 0.819258
C59   C     C_R   0.349705 0.749978 0.300534 0.820192
C60   C     C_R   0.349701 0.250024 0.300533 0.821240
C61   C     C_1   0.577289 0.750095 0.845695 -0.070203
C62   C     C_3   0.940771 0.262665 0.024730 -0.199019
C63   C     C_1   0.577275 0.249891 0.845694 -0.070229
C64   C     C_1   0.077285 0.250099 0.845694 -0.070295
C65   C     C_1   0.077197 0.749877 0.845703 -0.070016
C66   C     C_2   0.492676 0.220273 0.457371 -0.292213
C67   C     C_2   0.489677 0.783271 0.463255 -0.286007
C68   C     C_2   0.992678 0.720226 0.457417 -0.291567
C69   C     C_2   0.992782 0.279681 0.457172 -0.295949
C70   C     C_2   0.441196 0.247897 0.505314 -0.368524
C71   C     C_2   0.445141 0.747147 0.497432 -0.367965
C72   C     C_2   0.941104 0.747722 0.505509 -0.369736
C73   C     C_3   0.940110 0.739388 0.024734 -0.203444
C74   C     C_2   0.941166 0.252256 0.505406 -0.367275
C75   C     C_2   0.546955 0.215980 0.461196 0.505962
C76   C     C_2   0.548892 0.781862 0.457186 0.501654
C77   C     C_2   0.046817 0.715810 0.461463 0.505136
C78   C     C_2   0.046965 0.284203 0.461220 0.507243
C79   C     C_2   0.556921 0.251187 0.497641 -0.394435
C80   C     C_2   0.554464 0.752052 0.502650 -0.398494
C81   C     C_2   0.056944 0.751174 0.497586 -0.395346
C82   C     C_2   0.056957 0.248881 0.497526 -0.392796
C83   C     C_2   0.740423 0.971952 0.458433 -0.154189
C84   C     C_3   0.440225 0.760361 0.024731 -0.197296
C85   C     C_2   0.742636 0.028065 0.456550 -0.169016
C86   C     C_2   0.241548 0.471953 0.457449 -0.165415
C87   C     C_2   0.243267 0.528079 0.456034 -0.165830
C88   C     C_2   0.752563 0.943928 0.499126 -0.296515
C89   C     C_2   0.747599 0.056083 0.503341 -0.294788
C90   C     C_2   0.252146 0.443915 0.499524 -0.294795
C91   C     C_2   0.248001 0.556097 0.503008 -0.296026
C92   C     C_R   0.888401 0.250207 0.500498 0.893473
C93   C     C_R   0.888383 0.749774 0.500536 0.893413
C94   C     C_R   0.388705 0.749825 0.499882 0.892225
C95   C     C_3   0.439967 0.240759 0.024731 -0.198186
C96   C     C_R   0.388393 0.249801 0.500504 0.893464
C97   C     C_R   0.611416 0.249921 0.499734 0.880898
C98   C     C_R   0.611141 0.750476 0.500294 0.880709
C99   C     C_R   0.111408 0.749907 0.499744 0.880420
C100  C     C_R   0.111409 0.250109 0.499740 0.881041
C101  C     C_R   0.749719 0.111363 0.500297 0.850292
C102  C     C_R   0.750240 0.888639 0.499853 0.856706
C103  C     C_R   0.249770 0.611370 0.500253 0.848198
C104  C     C_R   0.250220 0.388632 0.499869 0.848711
C105  C     C_R   0.749928 0.388619 0.499868 0.853037
C106  C     C_1   0.889340 0.249903 0.221105 -0.137204
C107  C     C_R   0.749994 0.611380 0.500270 0.851691
C108  C     C_R   0.249927 0.888620 0.499861 0.855150
C109  C     C_R   0.249995 0.111379 0.500271 0.853802
C110  C     C_2   0.800670 0.528063 0.456950 -0.165572
C111  C     C_2   0.800950 0.471943 0.458622 -0.165431
C112  C     C_2   0.300657 0.028063 0.456886 -0.163667
C113  C     C_2   0.300945 0.971944 0.458585 -0.162106
C114  C     C_2   0.748952 0.556094 0.503108 -0.293243
C115  C     C_2   0.748304 0.443905 0.499321 -0.292013
C116  C     C_2   0.248960 0.056093 0.503130 -0.292555
H1    H     H_    0.845226 0.546706 0.416430 0.174616
H2    H     H_    0.516321 0.728004 0.544417 0.124734
H3    H     H_    0.025208 0.782945 0.526283 0.123121
H4    H     H_    0.025149 0.217170 0.526354 0.122539
H5    H     H_    0.729145 0.953306 0.423993 0.179990
H6    H     H_    0.739339 0.046702 0.415332 0.174999
H7    H     H_    0.231940 0.453320 0.421482 0.174453
H8    H     H_    0.240004 0.546732 0.414801 0.174706
H9    H     H_    0.765695 0.960881 0.532498 0.151790
H10   H     H_    0.749274 0.039131 0.546446 0.152460
H11   H     H_    0.263582 0.460812 0.534528 0.152305
H12   H     H_    0.846526 0.453302 0.424110 0.173876
H13   H     H_    0.250014 0.539199 0.545878 0.151799
H14   H     H_    0.704065 0.539181 0.545494 0.153366
H15   H     H_    0.701922 0.460812 0.532961 0.152965
H16   H     H_    0.204105 0.039174 0.545608 0.153438
H17   H     H_    0.201915 0.960818 0.532859 0.153008
H18   H     H_    0.891876 0.272798 0.045638 0.141931
H19   H     H_    0.890808 0.730954 0.045640 0.137595
H20   H     H_    0.390885 0.768614 0.045642 0.142639
H21   H     H_    0.390441 0.233436 0.045643 0.142512
H22   H     H_    0.496505 0.833972 0.954063 0.142008
H23   H     H_    0.345189 0.046706 0.416284 0.174989
H24   H     H_    0.494491 0.166667 0.954073 0.141783
H25   H     H_    0.000593 0.335172 0.954083 0.141458
H26   H     H_    0.996752 0.665881 0.954099 0.140713
H27   H     H_    0.998966 0.164445 0.046183 0.141819
H28   H     H_    0.002513 0.834493 0.046200 0.141440
H29   H     H_    0.503099 0.665614 0.046207 0.140748
H30   H     H_    0.505073 0.333722 0.046193 0.141395
H31   H     H_    0.608661 0.731024 0.954628 0.141408
H32   H     H_    0.609066 0.266911 0.954623 0.142876
H33   H     H_    0.107628 0.226875 0.954627 0.142860
H34   H     H_    0.346522 0.953304 0.424097 0.175243
H35   H     H_    0.108395 0.769374 0.954674 0.143627
H36   H     H_    0.038931 0.311851 0.046809 0.138304
H37   H     H_    0.035998 0.685469 0.046850 0.138183
H38   H     H_    0.535877 0.814802 0.046791 0.136713
H39   H     H_    0.534294 0.183791 0.046799 0.138269
H40   H     H_    0.495252 0.198941 0.413804 0.191978
H41   H     H_    0.483279 0.815324 0.437370 0.191374
H42   H     H_    0.995447 0.699090 0.413582 0.192493
H43   H     H_    0.995552 0.300623 0.413210 0.190591
H44   H     H_    0.538603 0.119933 0.419199 0.140453
H45   H     H_    0.435688 0.268479 0.550971 0.157199
H46   H     H_    0.530440 0.127190 0.505836 0.124959
H47   H     H_    0.640372 0.098395 0.443805 0.262437
H48   H     H_    0.594374 0.051508 0.435497 0.199778
H49   H     H_    0.649632 0.091285 0.356931 0.257962
H50   H     H_    0.588199 0.815589 0.322392 0.135318
H51   H     H_    0.632729 0.763004 0.323862 0.125501
H52   H     H_    0.717235 0.823167 0.295416 0.272033
H53   H     H_    0.702558 0.825671 0.225647 0.195901
H54   H     H_    0.673148 0.875732 0.294263 0.251692
H55   H     H_    0.036270 0.619819 0.423092 0.138404
H56   H     H_    0.449657 0.713967 0.522904 0.155648
H57   H     H_    0.031362 0.627260 0.507689 0.123070
H58   H     H_    0.141677 0.597820 0.441350 0.264033
H59   H     H_    0.093449 0.551124 0.436724 0.190983
H60   H     H_    0.147340 0.590322 0.356720 0.258874
H61   H     H_    0.027261 0.373800 0.502854 0.123704
H62   H     H_    0.041097 0.379334 0.412773 0.139993
H63   H     H_    0.150603 0.408878 0.357783 0.260396
H64   H     H_    0.092451 0.449141 0.433611 0.191368
H65   H     H_    0.135842 0.403273 0.447932 0.259804
H66   H     H_    0.935453 0.768023 0.551456 0.157017
H67   H     H_    0.935496 0.232029 0.551405 0.157096
H68   H     H_    0.525020 0.282790 0.526767 0.122498
N1    N     N_1   0.441383 0.645359 0.925980 -0.192309
N2    N     N_1   0.443872 0.356878 0.925974 -0.192825
N3    N     N_1   0.936428 0.150145 0.925936 -0.193463
N4    N     N_1   0.940736 0.854149 0.925935 -0.195480
O1    O     O_3   0.750010 0.250010 0.500000 -0.493246
O2    O     O_R   0.613890 0.719960 0.543100 -0.651800
O3    O     O_R   0.113890 0.780040 0.543100 -0.653755
O4    O     O_R   0.113890 0.219960 0.543100 -0.653489
O5    O     O_R   0.697860 0.219970 0.664410 -0.639082
O6    O     O_R   0.697860 0.780030 0.664410 -0.638750
O7    O     O_R   0.197860 0.719970 0.664410 -0.638038
O8    O     O_R   0.197860 0.280030 0.664410 -0.638893
O9    O     O_R   0.802170 0.219970 0.335590 -0.630910
O10   O     O_R   0.802170 0.780030 0.335590 -0.648431
O11   O     O_R   0.302170 0.719970 0.335590 -0.630515
O12   O     O_3   0.750010 0.749990 0.500000 -0.492012
O13   O     O_R   0.302170 0.280030 0.335590 -0.630775
O14   O     O_R   0.637780 0.280050 0.664410 -0.632380
O15   O     O_R   0.637780 0.719950 0.664410 -0.631780
O16   O     O_R   0.137780 0.780050 0.664410 -0.632476
O17   O     O_R   0.137780 0.219950 0.664410 -0.632598
O18   O     O_R   0.862250 0.280060 0.335590 -0.640114
O19   O     O_R   0.862250 0.719940 0.335590 -0.637062
O20   O     O_R   0.362250 0.780060 0.335590 -0.641808
O21   O     O_R   0.362250 0.219940 0.335590 -0.640268
O22   O     O_R   0.843040 0.219980 0.543100 -0.643857
O23   O     O_3   0.250010 0.750010 0.500000 -0.493207
O24   O     O_R   0.843040 0.780020 0.543100 -0.644499
O25   O     O_R   0.343040 0.719980 0.543100 -0.643015
O26   O     O_R   0.343040 0.280020 0.543100 -0.644273
O27   O     O_R   0.656980 0.219970 0.456900 -0.578732
O28   O     O_R   0.656980 0.780030 0.456900 -0.584724
O29   O     O_R   0.156980 0.719970 0.456900 -0.578704
O30   O     O_R   0.156980 0.280030 0.456900 -0.577977
O31   O     O_R   0.758500 0.135440 0.543100 -0.642707
O32   O     O_R   0.758500 0.864560 0.543100 -0.644078
O33   O     O_R   0.258500 0.635440 0.543100 -0.643924
O34   O     O_3   0.250010 0.249990 0.500000 -0.493548
O35   O     O_R   0.258500 0.364560 0.543100 -0.643290
O36   O     O_R   0.698440 0.364590 0.543100 -0.641145
O37   O     O_R   0.698440 0.635410 0.543100 -0.641875
O38   O     O_R   0.198440 0.864590 0.543100 -0.640949
O39   O     O_R   0.198440 0.135410 0.543100 -0.641052
O40   O     O_R   0.741510 0.135430 0.456900 -0.647188
O41   O     O_R   0.741510 0.864570 0.456900 -0.636909
O42   O     O_R   0.241510 0.635430 0.456900 -0.647304
O43   O     O_R   0.241510 0.364570 0.456900 -0.645434
O44   O     O_R   0.801610 0.364600 0.456900 -0.645125
O45   O     O_R   0.886150 0.280070 0.456900 -0.645053
O46   O     O_R   0.801610 0.635400 0.456900 -0.645269
O47   O     O_R   0.301610 0.864600 0.456900 -0.643912
O48   O     O_R   0.301610 0.135400 0.456900 -0.644835
O49   O     O_3   0.591692 0.178329 0.419901 -0.573189
O50   O     O_3   0.596188 0.816356 0.410129 -0.576494
O51   O     O_3   0.091326 0.677945 0.420531 -0.572215
O52   O     O_3   0.091666 0.322000 0.420256 -0.572564
O53   O     O_R   0.886150 0.719930 0.456900 -0.644366
O54   O     O_R   0.386150 0.780070 0.456900 -0.645203
O55   O     O_R   0.386150 0.219930 0.456900 -0.644464
O56   O     O_R   0.613890 0.280040 0.543100 -0.653702
Zn1   Zn    Zn3+2 0.823730 0.292940 0.438410 0.962004
Zn2   Zn    Zn3+2 0.737880 0.792910 0.438410 0.982663
Zn3   Zn    Zn3+2 0.237880 0.707090 0.438410 0.990123
Zn4   Zn    Zn3+2 0.237880 0.292910 0.438410 0.992474
Zn5   Zn    Zn3+2 0.676310 0.292930 0.561590 0.973259
Zn6   Zn    Zn3+2 0.676310 0.707070 0.561590 0.974128
Zn7   Zn    Zn3+2 0.176310 0.792930 0.561590 0.974372
Zn8   Zn    Zn3+2 0.176310 0.207070 0.561590 0.973732
Zn9   Zn    Zn3+2 0.823730 0.707060 0.438410 0.961065
Zn10  Zn    Zn3+2 0.323730 0.792940 0.438410 0.962053
Zn11  Zn    Zn3+2 0.323730 0.207060 0.438410 0.962780
Zn12  Zn    Zn3+2 0.762140 0.207100 0.561590 0.970085
Zn13  Zn    Zn3+2 0.762140 0.792900 0.561590 0.971979
Zn14  Zn    Zn3+2 0.262140 0.707100 0.561590 0.969937
Zn15  Zn    Zn3+2 0.262140 0.292900 0.561590 0.969505
Zn16  Zn    Zn3+2 0.737880 0.207090 0.438410 0.991123

loop_
_geom_bond_atom_site_label_1
_geom_bond_atom_site_label_2
_ccdc_geom_bond_type
C59   O20   A    
C27   H37   S    
O35   Zn15  S    
C26   H36   S    
C33   C55   S    
O37   Zn6   S    
C29   O15   A    
C22   C29   S    
C87   C91   D    
O25   Zn14  S    
O8    Zn15  S    
C32   C45   S    
C92   O45   A    
C92   O22   A    
O43   Zn4   S    
C112  H23   S    
C17   C48   S    
C82   H4    S    
C4    H22   S    
C98   O2    A    
C111  H12   S    
C109  O39   A    
O55   Zn11  S    
O12   Zn13  S    
C47   C49   S    
C71   C94   S    
C115  H15   S    
C8    O49   S    
C34   C56   S    
C88   H9    S    
C101  O40   A    
C76   O50   S    
O10   Zn2   S    
C51   O8    A    
C25   C40   S    
C87   H8    S    
C8    H46   S    
C2    C54   T    
C43   C52   S    
C31   C53   S    
C46   H29   S    
C20   N4    T    
C66   C75   S    
C27   C38   S    
O28   Zn2   S    
C29   O6    A    
C107  O37   A    
O24   Zn13  S    
O2    Zn6   S    
C7    C27   S    
C79   H68   S    
C36   C47   S    
O1    Zn5   S    
O44   Zn1   S    
C74   C92   S    
C37   C42   S    
C9    H47   S    
C101  O31   A    
C110  C111  S    
C38   C45   S    
C14   H60   S    
C109  C116  S    
C19   N3    T    
O16   Zn7   S    
O34   Zn4   S    
C53   C106  T    
C36   H32   S    
C12   O51   S    
C58   O10   A    
C40   O16   A    
C28   C35   S    
C17   N1    T    
C10   H51   S    
C99   O3    A    
C4    C84   S    
C102  O41   A    
O3    Zn7   S    
C90   H11   S    
C3    C108  S    
C7    C43   S    
O1    Zn12  S    
C60   O21   A    
C110  C114  D    
C104  O35   A    
O34   Zn15  S    
C16   H63   S    
O11   Zn3   S    
O12   Zn9   S    
C39   C48   S    
O12   Zn6   S    
C103  O42   A    
C23   C63   T    
C57   C106  S    
C47   H30   S    
C100  O30   A    
C26   C31   S    
C24   C64   T    
O13   Zn4   S    
C28   H38   S    
C33   C46   S    
C114  H14   S    
C31   C62   S    
C69   C78   S    
C100  O4    A    
O20   Zn10  S    
C71   H56   S    
O9    Zn16  S    
C68   H42   S    
C1    O14   A    
C110  H1    S    
C41   C49   S    
C112  C113  S    
C5    C95   S    
C79   C97   S    
C12   H55   S    
C46   C48   S    
C89   H10   S    
C80   C98   S    
O38   Zn7   S    
C39   C61   S    
C80   H2    S    
C95   H21   S    
C31   C44   S    
C30   C34   S    
O1    Zn1   S    
C105  O44   A    
C99   O29   A    
C69   C74   D    
O18   Zn1   S    
C25   C65   T    
C34   C95   S    
C21   C60   S    
C7    C73   S    
C52   C73   S    
C3    C113  D    
C26   C37   S    
C59   O11   A    
C32   C73   S    
C85   C89   D    
C16   H65   S    
C8    C9    S    
C104  O43   A    
C74   H67   S    
C81   C99   S    
C45   C52   S    
C96   O26   A    
O4    Zn8   S    
O23   Zn3   S    
C57   O18   A    
C18   N2    T    
C15   C16   S    
C73   H19   S    
C11   H54   S    
C48   C84   S    
C68   C72   D    
C3    H17   S    
O30   Zn4   S    
O27   Zn16  S    
C9    H48   S    
C70   C96   S    
O5    Zn12  S    
C96   O55   A    
C14   H59   S    
C45   H28   S    
O15   Zn6   S    
C78   C82   D    
C116  H16   S    
C4    C39   S    
C77   C81   D    
C43   C65   S    
O22   Zn12  S    
C93   O24   A    
O40   Zn16  S    
C6    C26   S    
C85   H6    S    
C67   H41   S    
C35   H31   S    
C83   H5    S    
C6    H25   S    
O46   Zn9   S    
C90   C104  S    
O36   Zn5   S    
C42   C50   S    
C13   C59   S    
O41   Zn2   S    
C30   H39   S    
C83   C85   S    
C107  O46   A    
C12   C14   S    
C28   C33   S    
C11   H53   S    
C15   H61   S    
C86   C90   D    
C11   H52   S    
C50   C62   S    
O26   Zn15  S    
C75   O49   S    
O7    Zn14  S    
O53   Zn9   S    
C72   C93   S    
O23   Zn10  S    
O12   Zn2   S    
O33   Zn14  S    
C8    H44   S    
C70   H45   S    
C42   C64   S    
C38   H35   S    
C112  C116  D    
C5    H24   S    
C5    C30   S    
C107  C114  S    
C44   C50   S    
C68   C77   S    
C5    C41   S    
C84   H20   S    
C94   O25   A    
C78   O52   S    
O1    Zn16  S    
C89   C101  S    
C27   C32   S    
C86   C87   S    
C82   C100  S    
C113  H34   S    
C105  C115  S    
O29   Zn3   S    
O47   Zn10  S    
C91   C103  S    
C98   O28   A    
C67   C76   S    
C21   C56   T    
C88   C102  S    
C76   C80   D    
C51   O17   A    
C57   O9    A    
C10   O50   S    
C91   H13   S    
C102  O32   A    
C10   H50   S    
C37   H33   S    
C105  O36   A    
C97   O56   A    
C81   H3    S    
C32   C54   S    
C30   C36   S    
C6    C62   S    
O6    Zn13  S    
C62   H18   S    
C37   C44   S    
O56   Zn5   S    
O32   Zn13  S    
C94   O54   A    
C72   H66   S    
O34   Zn11  S    
C20   C52   S    
O17   Zn8   S    
C93   O53   A    
C103  O33   A    
C22   C61   T    
C66   H40   S    
C19   C50   S    
O45   Zn1   S    
C66   C70   D    
C108  O38   A    
C58   O19   A    
C24   C51   S    
C44   H27   S    
O54   Zn10  S    
C35   C39   S    
C15   O52   S    
C9    H49   S    
C69   H43   S    
C83   C88   D    
C1    C23   S    
C67   C71   D    
O48   Zn11  S    
O19   Zn9   S    
C2    C58   S    
C33   C84   S    
C108  O47   A    
C10   C11   S    
C97   O27   A    
C109  O48   A    
C60   O13   A    
C38   C43   S    
O14   Zn5   S    
O31   Zn12  S    
O23   Zn14  S    
C14   H58   S    
C49   C95   S    
C4    C28   S    
C15   H62   S    
C36   C41   S    
C86   H7    S    
C77   O51   S    
C41   C63   S    
C1    O5    A    
O39   Zn8   S    
C111  C115  D    
C34   C47   S    
O23   Zn7   S    
C35   C46   S    
C75   C79   D    
C7    H26   S    
O21   Zn11  S    
O42   Zn3   S    
C16   H64   S    
C18   C49   S    
O34   Zn8   S    
C12   H57   S    
C13   C55   T    
C40   O7    A    
C6    C42   S    
