data_mof_unit_28892.cif
_audit_creation_date              2012-12-10T18:44:28-0500
_audit_creation_method            fapswitch 2.2
_symmetry_space_group_name_H-M    P1
_symmetry_Int_Tables_number       1
_space_group_crystal_system       triclinic
_cell_length_a                    12.969181
_cell_length_b                    10.596528
_cell_length_c                    9.948791
_cell_angle_alpha                 89.682384
_cell_angle_beta                  97.509798
_cell_angle_gamma                 91.659872
_cell_volume                      1354.9469024

loop_
_atom_site_label
_atom_site_type_symbol
_atom_type_description
_atom_site_fract_x
_atom_site_fract_y
_atom_site_fract_z
_atom_type_partial_charge
Br1   Br    Br    0.819377 0.483325 0.845278 -0.498725
Br2   Br    Br    0.186469 0.539453 0.157408 -0.543578
Br3   Br    Br    0.629902 0.726026 0.860831 -0.486650
Br4   Br    Br    0.357849 0.287060 0.140613 -0.469687
C1    C     C_R   0.500938 0.260722 0.500274 0.914533
C2    C     C_R   0.702121 0.499869 0.527856 0.910985
C3    C     C_R   0.815369 0.505138 0.546954 -0.200748
C4    C     C_R   0.185625 0.512454 0.453460 -0.154580
C5    C     C_R   0.017810 0.533486 0.317292 0.159735
C6    C     C_R   0.983624 0.522578 0.684700 0.158030
C7    C     C_R   0.125919 0.525625 0.324767 0.230201
C8    C     C_R   0.875834 0.507737 0.676180 0.279280
C9    C     C_R   0.137917 0.515200 0.571172 -0.321692
C10   C     C_R   0.863788 0.513382 0.429801 -0.307831
C11   C     C_R   0.031232 0.520876 0.564996 0.019401
C12   C     C_R   0.498492 0.739304 0.499297 0.909724
C13   C     C_R   0.970709 0.522815 0.436827 0.070880
C14   C     C_R   0.417829 0.063822 0.545186 -0.300194
C15   C     C_R   0.579014 0.936360 0.447977 -0.286331
C16   C     C_R   0.414799 0.933759 0.544858 0.218759
C17   C     C_R   0.582933 0.066404 0.450529 0.218397
C18   C     C_3   0.951257 0.691666 0.157467 -0.735556
C19   C     C_3   0.069521 0.681792 0.833521 -0.699848
C20   C     C_3   0.246499 0.835686 0.480108 -0.772707
C21   C     C_3   0.749536 0.170624 0.513007 -0.762918
C22   C     C_3   0.701287 0.708698 0.192367 -0.688889
C23   C     C_R   0.496688 0.871730 0.497176 -0.040702
C24   C     C_3   0.470450 0.185419 0.869394 -0.669932
C25   C     C_R   0.501828 0.128343 0.500296 -0.046762
C26   C     C_R   0.548218 0.595851 0.080286 0.163923
C27   C     C_R   0.451399 0.404210 0.920530 0.152356
C28   C     C_R   0.549731 0.595019 0.937109 0.270685
C29   C     C_R   0.446883 0.407933 0.063090 0.265696
C30   C     C_R   0.298109 0.502413 0.472199 0.924384
H1    H     H_    0.817931 0.507926 0.331268 0.218540
H2    H     H_    0.109795 0.697551 0.937298 0.269854
H3    H     H_    0.998424 0.739041 0.820487 0.252354
H4    H     H_    0.122512 0.714474 0.760495 0.223983
H5    H     H_    0.300621 0.908037 0.669305 0.230051
H6    H     H_    0.213613 0.923527 0.432762 0.248935
H7    H     H_    0.183309 0.781193 0.521307 0.240989
H8    H     H_    0.276371 0.777733 0.401689 0.255218
H9    H     H_    0.697822 0.090872 0.326429 0.233787
H10   H     H_    0.810309 0.228493 0.470483 0.245057
H11   H     H_    0.785925 0.085357 0.561913 0.244924
H12   H     H_    0.184716 0.509986 0.668932 0.198902
H13   H     H_    0.717662 0.227597 0.590555 0.246424
H14   H     H_    0.557521 0.786292 0.125871 0.236888
H15   H     H_    0.721280 0.715166 0.303900 0.228847
H16   H     H_    0.733433 0.794645 0.146530 0.232806
H17   H     H_    0.738211 0.624755 0.155012 0.268490
H18   H     H_    0.331232 0.280584 0.850642 0.238895
H19   H     H_    0.430762 0.104629 0.812222 0.223714
H20   H     H_    0.480340 0.158858 0.978165 0.244738
H21   H     H_    0.548832 0.201183 0.837776 0.259894
H22   H     H_    0.354218 0.114670 0.578214 0.157432
H23   H     H_    0.641514 0.885792 0.412153 0.149928
H24   H     H_    0.972701 0.503655 0.111729 0.304028
H25   H     H_    0.899154 0.704614 0.060933 0.279939
H26   H     H_    0.029441 0.731728 0.145051 0.260551
H27   H     H_    0.920511 0.744451 0.239073 0.235225
H28   H     H_    0.101465 0.489048 0.843443 0.255323
N1    N     N_R   0.499970 0.499970 0.857200 -0.132076
N2    N     N_R   0.500030 0.500030 0.142800 -0.130112
N3    N     N_2   0.956456 0.558654 0.191011 -0.300221
N4    N     N_2   0.041751 0.549216 0.813469 -0.269290
N5    N     N_2   0.328788 0.866089 0.588653 -0.304980
N6    N     N_2   0.668354 0.134258 0.405253 -0.301653
N7    N     N_2   0.589514 0.701648 0.158338 -0.247842
N8    N     N_2   0.409117 0.297703 0.844358 -0.257206
O1    O     O_R   0.499990 0.316750 0.614620 -0.613075
O2    O     O_R   0.500010 0.683250 0.385380 -0.613510
O3    O     O_R   0.499990 0.316780 0.385290 -0.562070
O4    O     O_R   0.500010 0.683220 0.614710 -0.561656
O5    O     O_R   0.346360 0.499970 0.595710 -0.627350
O6    O     O_R   0.653640 0.500030 0.404290 -0.617734
O7    O     O_R   0.346360 0.499990 0.366380 -0.542572
O8    O     O_R   0.653640 0.500010 0.633620 -0.548329
Zn1   Zn    Zn3+2 0.500000 0.499980 0.653120 1.029462
Zn2   Zn    Zn3+2 0.500000 0.500020 0.346880 1.034859

loop_
_geom_bond_atom_site_label_1
_geom_bond_atom_site_label_2
_ccdc_geom_bond_type
C4    C9    A    
C26   N2    A    
C20   H8    S    
C16   N5    S    
C12   O2    A    
H14   N7    S    
O1    Zn1   S    
N1    Zn1   S    
C15   H23   S    
Br1   C8    S    
C12   O4    A    
C19   N4    S    
C15   C17   A    
C6    C11   A    
C22   H16   S    
C30   O7    A    
C18   H26   S    
C9    H12   S    
C2    O8    A    
C20   N5    S    
C3    C10   A    
H9    N6    S    
C27   C29   A    
C15   C23   A    
C21   H13   S    
C14   H22   S    
C30   O5    A    
C12   C23   S    
C29   N2    A    
C20   H7    S    
N2    Zn2   S    
C10   C13   A    
C21   N6    S    
Br2   C7    S    
C21   H10   S    
C24   H21   S    
C1    C25   S    
C6    N4    S    
C3    C8    A    
H28   N4    S    
C27   N1    A    
C22   H15   S    
C10   H1    S    
C24   H20   S    
O8    Zn1   S    
C19   H3    S    
C17   C25   A    
C18   N3    S    
H24   N3    S    
C14   C25   A    
C4    C30   S    
C5    C7    A    
C6    C8    A    
C5    C13   A    
O4    Zn1   S    
C9    C11   A    
C17   N6    S    
C21   H11   S    
C18   H25   S    
C26   N7    S    
O7    Zn2   S    
C11   C13   A    
Br4   C29   S    
H5    N5    S    
C24   N8    S    
O6    Zn2   S    
C28   N1    A    
C24   H19   S    
C2    O6    A    
C2    C3    S    
C16   C23   A    
C19   H4    S    
C27   N8    S    
C1    O1    A    
C22   H17   S    
C18   H27   S    
C26   C28   A    
C4    C7    A    
C20   H6    S    
O3    Zn2   S    
C14   C16   A    
C1    O3    A    
Br3   C28   S    
C5    N3    S    
H18   N8    S    
O2    Zn2   S    
C19   H2    S    
C22   N7    S    
O5    Zn1   S    
