data_mof_unit_13334.cif
_audit_creation_date              2012-12-10T17:21:06-0500
_audit_creation_method            fapswitch 2.2
_symmetry_space_group_name_H-M    P1
_symmetry_Int_Tables_number       1
_space_group_crystal_system       triclinic
_cell_length_a                    10.201785
_cell_length_b                    10.68356
_cell_length_c                    10.754588
_cell_angle_alpha                 91.644783
_cell_angle_beta                  96.815815
_cell_angle_gamma                 81.062381
_cell_volume                      1149.67889541

loop_
_atom_site_label
_atom_site_type_symbol
_atom_type_description
_atom_site_fract_x
_atom_site_fract_y
_atom_site_fract_z
_atom_type_partial_charge
C1    C     C_R   0.443261 0.500469 0.267454 0.974582
C2    C     C_2   0.925683 0.514040 0.517310 0.350057
C3    C     C_R   0.501567 0.258082 0.505430 0.921438
C4    C     C_R   0.556801 0.488949 0.732953 1.008627
C5    C     C_R   0.498031 0.742172 0.495523 0.963916
C6    C     C_3   0.554428 0.064792 0.384684 -0.530038
C7    C     C_3   0.546765 0.922006 0.373698 0.129959
C8    C     C_3   0.588975 0.057058 0.629101 0.647212
C9    C     C_3   0.354921 0.094366 0.502783 -0.441354
C10   C     C_3   0.502201 0.121409 0.508046 -0.125315
C11   C     C_3   0.495360 0.879519 0.495068 -0.143936
C12   C     C_3   0.591959 0.912234 0.610554 -0.436829
C13   C     C_3   0.351541 0.951994 0.504290 0.300106
C14   C     C_2   0.410606 0.491203 0.133918 -0.199571
C15   C     C_2   0.510568 0.452849 0.065501 -0.198897
C16   C     C_2   0.588803 0.469721 0.866063 -0.219815
C17   C     C_2   0.487650 0.463481 0.932761 -0.064920
C18   C     C_2   0.052366 0.541455 0.471620 0.302248
H1    H     H_    0.657416 0.080478 0.376837 0.251191
H2    H     H_    0.649584 0.870659 0.367869 0.183240
H3    H     H_    0.694098 0.867677 0.593628 0.239347
H4    H     H_    0.303512 0.141724 0.580881 0.258872
H5    H     H_    0.295339 0.134250 0.415376 0.195854
H6    H     H_    0.283458 0.926317 0.421793 0.187063
H7    H     H_    0.203549 0.947165 0.601654 0.362253
H8    H     H_    0.593296 0.156480 0.963429 0.367745
H9    H     H_    0.922835 0.482810 0.853684 0.384022
H10   H     H_    0.886583 0.659888 0.169981 0.403689
H11   H     H_    0.575401 0.962832 0.109597 0.367058
H12   H     H_    0.571284 0.866827 0.696391 0.252431
H13   H     H_    0.932543 0.079982 0.550305 0.386756
H14   H     H_    0.384307 0.473140 0.890446 0.215327
H15   H     H_    0.612777 0.423083 0.107326 0.197948
H16   H     H_    0.691618 0.460319 0.909218 0.173518
H17   H     H_    0.308699 0.520656 0.091450 0.207357
H18   H     H_    0.869590 0.416119 0.362894 0.185269
H19   H     H_    0.495266 0.117683 0.303835 0.212542
H20   H     H_    0.158194 0.509093 0.635648 0.207054
N1    N     N_2   0.157300 0.551950 0.551120 -0.194107
N2    N     N_2   0.842730 0.448000 0.448950 -0.211001
O1    O     O_R   0.568940 0.489540 0.307530 -0.628934
O2    O     O_2   0.440324 0.240557 0.760793 -0.368980
O3    O     O_2   0.423780 0.023013 0.808586 -0.199962
O4    O     O_3   0.637849 0.109907 0.895144 -0.471937
O5    O     O_2   0.005937 0.650920 0.726217 -0.293911
O6    O     O_2   0.771122 0.659268 0.679394 -0.293025
O7    O     O_3   0.908509 0.448746 0.767331 -0.516854
O8    O     O_2   0.124455 0.695071 0.307881 -0.217577
O9    O     O_2   0.097765 0.478329 0.236868 -0.327118
O10   O     O_3   0.884265 0.640876 0.259232 -0.562080
O11   O     O_2   0.396331 0.766350 0.233884 -0.271211
O12   O     O_R   0.348880 0.522880 0.340350 -0.537219
O13   O     O_2   0.331886 0.992131 0.197635 -0.266820
O14   O     O_3   0.546817 0.878526 0.111533 -0.452163
O15   O     O_2   0.767425 0.221246 0.696397 -0.229851
O16   O     O_2   0.837231 0.000327 0.754671 -0.183113
O17   O     O_3   0.842113 0.058224 0.525385 -0.596787
O18   O     O_R   0.610030 0.298130 0.483570 -0.589482
O19   O     O_R   0.389960 0.331470 0.516390 -0.628364
O20   O     O_R   0.651120 0.477120 0.659650 -0.503804
O21   O     O_R   0.431060 0.510460 0.692470 -0.626095
O22   O     O_R   0.610040 0.668530 0.483610 -0.588753
O23   O     O_R   0.389970 0.701870 0.516430 -0.548714
O24   O     O_3   0.301733 0.919555 0.613543 -0.656353
S1    S     S_3+6 0.516839 0.109026 0.774376 0.064102
S2    S     S_3+6 0.900601 0.573614 0.673493 0.055926
S3    S     S_3+6 0.044210 0.589320 0.314856 0.048083
S4    S     S_3+6 0.448807 0.888985 0.227687 0.052679
S5    S     S_3+6 0.762259 0.086894 0.653583 0.076905
Zn1   Zn    Zn3+2 0.646940 0.477740 0.478080 1.098496
Zn2   Zn    Zn3+2 0.353060 0.522260 0.521920 1.092019

loop_
_geom_bond_atom_site_label_1
_geom_bond_atom_site_label_2
_ccdc_geom_bond_type
C6    C10   S    
O2    S1    D    
C11   C12   S    
C4    C16   S    
C6    C7    S    
C2    C18   S    
C7    H2    S    
C9    C10   S    
O7    S2    S    
O20   Zn1   S    
C8    C12   S    
C16   H16   S    
O3    S1    D    
O21   Zn2   S    
O4    S1    S    
C6    H19   S    
H8    O4    S    
C8    S1    S    
O12   Zn2   S    
C2    S2    S    
C7    C11   S    
C6    H1    S    
C11   C13   S    
O22   Zn1   S    
C4    O20   A    
C8    S5    S    
O15   S5    D    
C13   O24   S    
N2    Zn1   S    
C5    C11   S    
H10   O10   S    
C18   S3    S    
C1    O1    A    
C18   N1    D    
O23   Zn2   S    
C5    O22   A    
O6    S2    D    
O11   S4    D    
O8    S3    D    
H20   N1    S    
C17   H14   S    
C1    O12   A    
C9    H4    S    
O14   S4    S    
H11   O14   S    
C12   H3    S    
C3    O18   A    
C2    N2    D    
H18   N2    S    
C5    O23   A    
C8    C10   S    
O16   S5    D    
O10   S3    S    
H9    O7    S    
C14   H17   S    
C3    C10   S    
O13   S4    D    
N1    Zn2   S    
C14   C15   D    
O18   Zn1   S    
C9    C13   S    
C1    C14   S    
O9    S3    D    
O17   S5    S    
C7    S4    S    
C15   C17   S    
C12   H12   S    
C4    O21   A    
C15   H15   S    
O1    Zn1   S    
C9    H5    S    
H13   O17   S    
C13   H6    S    
O19   Zn2   S    
C16   C17   D    
O5    S2    D    
H7    O24   S    
C3    O19   A    
