data_mof_unit_5944.cif
_audit_creation_date              2012-12-10T16:57:48-0500
_audit_creation_method            fapswitch 2.2
_symmetry_space_group_name_H-M    P1
_symmetry_Int_Tables_number       1
_space_group_crystal_system       triclinic
_cell_length_a                    10.633777
_cell_length_b                    10.915438
_cell_length_c                    9.712631
_cell_angle_alpha                 91.064266
_cell_angle_beta                  89.328555
_cell_angle_gamma                 91.635388
_cell_volume                      1126.64353469

loop_
_atom_site_label
_atom_site_type_symbol
_atom_type_description
_atom_site_fract_x
_atom_site_fract_y
_atom_site_fract_z
_atom_type_partial_charge
C1    C     C_R   0.499474 0.265392 0.498081 0.830719
C2    C     C_3   0.963511 0.490687 0.367578 0.174871
C3    C     C_3   0.040085 0.390270 0.435124 0.167270
C4    C     C_3   0.123033 0.492518 0.501547 -0.090431
C5    C     C_2   0.524050 0.932394 0.395698 -0.193607
C6    C     C_2   0.545612 0.864925 0.507084 -0.026682
C7    C     C_2   0.547037 0.065172 0.392399 0.172698
C8    C     C_2   0.490573 0.133056 0.491748 -0.425775
C9    C     C_2   0.424315 0.429748 0.924394 0.245061
C10   C     C_2   0.414485 0.444055 0.078799 -0.096921
C11   C     C_R   0.259604 0.497022 0.500674 0.795200
C12   C     C_R   0.510265 0.734544 0.501586 0.842823
C13   C     C_R   0.740643 0.498540 0.499012 0.785867
C14   C     C_3   0.038827 0.496068 0.631232 -0.170261
C15   C     C_3   0.954056 0.394760 0.564498 0.152047
C16   C     C_3   0.877701 0.494609 0.496657 -0.117400
C17   C     C_3   0.961321 0.595733 0.563045 -0.228361
C18   C     C_3   0.047718 0.592524 0.433881 -0.188718
Cu1   Cu    Cu3+1 0.500030 0.500020 0.638630 0.916548
Cu2   Cu    Cu3+1 0.499970 0.499980 0.361370 0.910622
H1    H     H_    0.435579 0.088791 0.572881 0.141938
H2    H     H_    0.547751 0.569667 0.894435 0.171266
H3    H     H_    0.335552 0.399451 0.131250 0.156966
H4    H     H_    0.578665 0.531955 0.104805 0.186531
H5    H     H_    0.072950 0.498372 0.738887 0.145330
H6    H     H_    0.929098 0.679926 0.616155 0.152543
H7    H     H_    0.089411 0.673803 0.381361 0.139772
H8    H     H_    0.484257 0.889839 0.303386 0.152302
N1    N     N_2   0.498620 0.498660 0.846910 -0.300401
N2    N     N_2   0.498590 0.498630 0.153040 -0.300108
O1    O     O_R   0.500020 0.321960 0.617040 -0.578896
O2    O     O_R   0.499980 0.321920 0.382900 -0.578454
O3    O     O_R   0.316870 0.499990 0.617050 -0.598005
O4    O     O_R   0.316830 0.499950 0.382910 -0.578896
O5    O     O_R   0.500020 0.678080 0.617100 -0.573639
O6    O     O_R   0.499980 0.678040 0.382960 -0.582228
O7    O     O_R   0.683170 0.500050 0.617090 -0.582263
O8    O     O_R   0.683130 0.500010 0.382950 -0.594700
C19   C     C_3   0.891204 0.289583 0.644893 -0.382935
C20   C     C_3   0.986781 0.207276 0.709823 -0.861329
H9    H     H_    0.040528 0.157050 0.629571 0.255323
H10   H     H_    0.052829 0.262252 0.775455 0.245204
H11   H     H_    0.936613 0.138809 0.775181 0.243549
H12   H     H_    0.832123 0.329404 0.728513 0.219398
H13   H     H_    0.828250 0.234358 0.575993 0.188110
C21   C     C_3   0.338221 0.328981 0.866206 -0.329248
C22   C     C_3   0.387404 0.202537 0.897979 -0.874963
H14   H     H_    0.483836 0.192371 0.854850 0.268092
H15   H     H_    0.389249 0.188615 0.010928 0.242115
H16   H     H_    0.324706 0.130556 0.851055 0.235216
H17   H     H_    0.242986 0.337525 0.913230 0.148018
H18   H     H_    0.323191 0.333586 0.755400 0.252579
C23   C     C_3   0.917003 0.496566 0.218935 -0.363917
C24   C     C_3   0.024564 0.496522 0.113403 -0.874451
H19   H     H_    0.096627 0.568662 0.139231 0.257652
H20   H     H_    0.069057 0.406032 0.108330 0.249724
H21   H     H_    0.986977 0.514980 0.009864 0.238875
H22   H     H_    0.851147 0.418127 0.197037 0.204632
H23   H     H_    0.864616 0.582399 0.207997 0.206841
C25   C     C_3   0.098865 0.277035 0.367256 -0.389535
C26   C     C_3   0.000929 0.186224 0.308598 -0.861589
H24   H     H_    0.938432 0.149873 0.391147 0.258950
H25   H     H_    0.943500 0.229847 0.229811 0.255145
H26   H     H_    0.049350 0.107896 0.258975 0.243206
H27   H     H_    0.163920 0.306564 0.283488 0.202747
H28   H     H_    0.156375 0.230508 0.444074 0.186768
C27   C     C_3   0.614526 0.914808 0.634776 -0.375809
C28   C     C_3   0.739311 0.851943 0.653839 -0.860013
H29   H     H_    0.723451 0.753741 0.677719 0.263906
H30   H     H_    0.798260 0.860375 0.559073 0.247036
H31   H     H_    0.790966 0.896286 0.741037 0.236301
H32   H     H_    0.638523 0.013886 0.630604 0.220698
H33   H     H_    0.553848 0.900753 0.727380 0.203584
C29   C     C_3   0.628199 0.120836 0.277719 -0.322049
C30   C     C_3   0.706786 0.027897 0.197277 -0.880256
H34   H     H_    0.767105 0.977585 0.268398 0.263661
H35   H     H_    0.645034 0.961838 0.139468 0.250822
H36   H     H_    0.768409 0.076742 0.121879 0.241413
H37   H     H_    0.567091 0.167135 0.203939 0.216098
H38   H     H_    0.695001 0.190107 0.323349 0.195796

loop_
_geom_bond_atom_site_label_1
_geom_bond_atom_site_label_2
_ccdc_geom_bond_type
H2    N1    S    
C2    C18   S    
C1    C8    S    
Cu1   Cu2   S    
Cu1   O1    S    
C23   H23   S    
C7    C8    D    
C22   H15   S    
Cu2   N2    S    
C23   C24   S    
C17   H6    S    
C6    C12   S    
C5    C6    D    
C15   C16   S    
C21   H18   S    
C1    O1    A    
C27   H32   S    
C26   H25   S    
Cu1   O7    S    
C21   C22   S    
C20   H11   S    
C28   H29   S    
C27   H33   S    
C7    C29   S    
C2    C16   S    
C9    C10   S    
C13   O7    A    
C9    N1    D    
C19   H13   S    
C4    C18   S    
C3    C25   S    
C20   H10   S    
C25   H28   S    
C9    C21   S    
C29   H38   S    
C14   C17   S    
C17   C18   S    
C22   H16   S    
C24   H20   S    
C29   C30   S    
C27   C28   S    
C11   O3    A    
Cu1   O3    S    
C19   C20   S    
C5    C7    S    
C16   C17   S    
C21   H17   S    
C1    O2    A    
C25   C26   S    
C12   O5    A    
C26   H26   S    
C30   H34   S    
C5    H8    S    
Cu2   O8    S    
C10   N2    D    
C22   H14   S    
C8    H1    S    
C4    C11   S    
C30   H35   S    
C15   C19   S    
C13   O8    A    
C20   H9    S    
C25   H27   S    
C29   H37   S    
C12   O6    A    
C3    C4    S    
Cu1   N1    S    
C3    C15   S    
Cu2   O2    S    
C24   H19   S    
C6    C27   S    
C11   O4    A    
C18   H7    S    
C2    C23   S    
C23   H22   S    
C19   H12   S    
C10   H3    S    
C2    C3    S    
Cu2   O4    S    
Cu1   O5    S    
C28   H31   S    
C14   H5    S    
C4    C14   S    
C26   H24   S    
C30   H36   S    
H4    N2    S    
Cu2   O6    S    
C28   H30   S    
C13   C16   S    
C14   C15   S    
C24   H21   S    
