data_mof_unit_11371.cif
_audit_creation_date              2012-12-10T17:13:33-0500
_audit_creation_method            fapswitch 2.2
_symmetry_space_group_name_H-M    P1
_symmetry_Int_Tables_number       1
_space_group_crystal_system       triclinic
_cell_length_a                    10.744944
_cell_length_b                    13.001335
_cell_length_c                    11.688841
_cell_angle_alpha                 99.955331
_cell_angle_beta                  94.261823
_cell_angle_gamma                 90.684163
_cell_volume                      1603.36977666

loop_
_atom_site_label
_atom_site_type_symbol
_atom_type_description
_atom_site_fract_x
_atom_site_fract_y
_atom_site_fract_z
_atom_type_partial_charge
C1    C     C_R   0.497867 0.299051 0.478524 0.811731
C2    C     C_3   0.877942 0.495472 0.498028 0.042742
C3    C     C_3   0.930542 0.609018 0.532681 -0.473276
C4    C     C_3   0.917809 0.449140 0.373941 0.341640
C5    C     C_R   0.498635 0.814352 0.533600 -0.056014
C6    C     C_R   0.496679 0.185588 0.466036 -0.045603
C7    C     C_R   0.501132 0.014941 0.344794 -0.219110
C8    C     C_R   0.499187 0.123035 0.355631 -0.198637
C9    C     C_R   0.493601 0.139307 0.565447 -0.274180
C10   C     C_R   0.494432 0.031269 0.555237 0.177911
C11   C     C_R   0.499191 0.968630 0.444147 0.178510
C12   C     C_R   0.259811 0.497532 0.499571 0.778495
C13   C     C_R   0.501768 0.860640 0.434163 -0.271654
C14   C     C_R   0.491941 0.876828 0.643509 -0.199192
C15   C     C_R   0.490497 0.984917 0.654371 -0.215469
C16   C     C_R   0.392504 0.392730 0.019918 -0.333402
C17   C     C_R   0.401541 0.404431 0.142550 0.076987
C18   C     C_R   0.543474 0.547449 0.158112 0.016676
C19   C     C_R   0.536504 0.538821 0.035292 0.028137
C20   C     C_R   0.460893 0.460278 0.964878 0.071197
C21   C     C_R   0.455319 0.452251 0.841598 -0.062951
C22   C     C_R   0.597917 0.596072 0.859206 0.478527
C23   C     C_R   0.500716 0.700938 0.521423 0.800628
C24   C     C_R   0.603160 0.607442 0.981869 -0.393892
C25   C     C_R   0.740105 0.497040 0.499448 0.822794
C26   C     C_3   0.077473 0.427438 0.584908 -0.382457
C27   C     C_3   0.934431 0.428960 0.586409 -0.359829
C28   C     C_3   0.073849 0.610864 0.526637 0.132520
C29   C     C_3   0.061858 0.446803 0.376176 -0.492784
C30   C     C_3   0.122032 0.496665 0.499085 0.071348
Cu1   Cu    Cu3+1 0.509350 0.507730 0.615930 0.944528
Cu2   Cu    Cu3+1 0.490650 0.492270 0.384070 0.931367
H1    H     H_    0.121295 0.451900 0.674445 0.179494
H2    H     H_    0.884185 0.503249 0.314051 0.049513
H3    H     H_    0.091263 0.647684 0.449704 0.095160
H4    H     H_    0.887480 0.658415 0.472248 0.127811
H5    H     H_    0.506329 0.812871 0.348848 0.148622
H6    H     H_    0.486855 0.842353 0.720933 0.145518
H7    H     H_    0.504102 0.967716 0.259059 0.131805
H8    H     H_    0.485856 0.032099 0.739921 0.131354
H9    H     H_    0.500311 0.157549 0.277773 0.149923
H10   H     H_    0.490459 0.187129 0.650914 0.148392
H11   H     H_    0.395968 0.392671 0.786906 0.130488
H12   H     H_    0.106551 0.345571 0.557024 0.159893
H13   H     H_    0.332631 0.331364 0.968811 0.131012
H14   H     H_    0.658456 0.670421 0.035549 0.141975
H15   H     H_    0.348594 0.351826 0.183849 0.118735
H16   H     H_    0.602833 0.607292 0.212422 0.113615
H17   H     H_    0.895359 0.347666 0.564849 0.195631
H18   H     H_    0.909751 0.461235 0.675937 0.161604
H19   H     H_    0.903622 0.643472 0.620088 0.210152
H20   H     H_    0.092554 0.489915 0.308335 0.138967
H21   H     H_    0.093298 0.365061 0.352504 0.197702
N1    N     N_R   0.523430 0.519360 0.790130 -0.194890
N2    N     N_R   0.476570 0.480640 0.209880 -0.178809
O1    O     O_R   0.506640 0.354460 0.582000 -0.594863
O2    O     O_R   0.490840 0.341410 0.386200 -0.589375
O3    O     O_R   0.325590 0.506510 0.597900 -0.588106
O4    O     O_R   0.309790 0.493450 0.402100 -0.596516
O5    O     O_R   0.509160 0.658590 0.613800 -0.571448
O6    O     O_R   0.493360 0.645540 0.418000 -0.594466
O7    O     O_R   0.690210 0.506550 0.597900 -0.562046
O8    O     O_R   0.674410 0.493490 0.402100 -0.586295
N3    N     N_2   0.664451 0.669057 0.807970 -0.370667
H22   H     H_    0.625318 0.741700 0.821729 0.228752
C31   C     C_3   0.797713 0.676108 0.838121 -0.744284
H23   H     H_    0.819071 0.707251 0.932164 0.208455
H24   H     H_    0.840958 0.731099 0.789069 0.229964
H25   H     H_    0.839117 0.598098 0.816382 0.229893
N4    N     N_2   0.139282 0.678423 0.626772 -0.412374
H26   H     H_    0.223804 0.709216 0.610492 0.245279
C32   C     C_3   0.135538 0.657399 0.744294 -0.656993
H27   H     H_    0.141916 0.732615 0.806211 0.217090
H28   H     H_    0.216515 0.610485 0.766413 0.233398
H29   H     H_    0.048192 0.616411 0.756632 0.220210
O9    O     O_3   0.866250 0.346451 0.338396 -0.571093
C33   C     C_3   0.839292 0.324723 0.216365 0.079415
H30   H     H_    0.923269 0.338193 0.169930 0.124880
H31   H     H_    0.762226 0.374330 0.189987 0.158124
C34   C     C_3   0.797466 0.210921 0.180130 -0.785670
H32   H     H_    0.713510 0.195339 0.224938 0.250594
H33   H     H_    0.774240 0.193262 0.084479 0.192829
H34   H     H_    0.873340 0.159312 0.203623 0.244359

loop_
_geom_bond_atom_site_label_1
_geom_bond_atom_site_label_2
_ccdc_geom_bond_type
C31   H24   S    
C19   C20   A    
C6    C9    A    
C26   H12   S    
C7    C8    A    
C22   N1    A    
C33   H30   S    
C7    C11   A    
C26   C27   S    
Cu1   O3    S    
C3    C28   S    
C1    O1    A    
Cu2   O6    S    
C10   C15   A    
C34   H34   S    
C21   N1    A    
C31   H25   S    
C18   C19   A    
C25   O8    A    
C21   H11   S    
C12   O4    A    
C28   H3    S    
C16   C17   A    
N4    H26   S    
Cu1   O1    S    
C9    C10   A    
C17   N2    A    
Cu2   N2    S    
C13   H5    S    
C4    C29   S    
C27   H18   S    
C12   O3    A    
C31   H23   S    
Cu1   O7    S    
Cu2   O2    S    
C32   H29   S    
C33   H31   S    
C23   O5    A    
C4    H2    S    
C1    C6    S    
O9    C33   S    
C32   H28   S    
C3    H19   S    
C34   H32   S    
C6    C8    A    
N3    C31   S    
Cu1   O5    S    
C2    C4    S    
C29   C30   S    
C1    O2    A    
C14   H6    S    
C26   H1    S    
Cu1   Cu2   S    
C5    C23   S    
C16   C20   A    
C9    H10   S    
C8    H9    S    
C5    C14   A    
C2    C27   S    
C18   N2    A    
C34   H33   S    
C26   C30   S    
C22   C24   A    
C33   C34   S    
C12   C30   S    
C5    C13   A    
C28   N4    S    
C17   H15   S    
Cu2   O8    S    
C32   H27   S    
C18   H16   S    
C16   H13   S    
C24   H14   S    
N3    H22   S    
C28   C30   S    
C2    C3    S    
C11   C13   A    
C29   H21   S    
C3    H4    S    
C19   C24   A    
C2    C25   S    
C25   O7    A    
Cu1   N1    S    
C15   H8    S    
C4    O9    S    
C10   C11   A    
C22   N3    S    
C23   O6    A    
C20   C21   A    
C7    H7    S    
C14   C15   A    
N4    C32   S    
Cu2   O4    S    
C27   H17   S    
C29   H20   S    
