data_mof_unit_31153.cif
_audit_creation_date              2012-12-10T17:58:18-0500
_audit_creation_method            fapswitch 2.2
_symmetry_space_group_name_H-M    P1
_symmetry_Int_Tables_number       1
_space_group_crystal_system       triclinic
_cell_length_a                    9.517358
_cell_length_b                    10.833956
_cell_length_c                    15.495487
_cell_angle_alpha                 89.850028
_cell_angle_beta                  74.200652
_cell_angle_gamma                 90.002427
_cell_volume                      1537.38257451

loop_
_atom_site_label
_atom_site_type_symbol
_atom_type_description
_atom_site_fract_x
_atom_site_fract_y
_atom_site_fract_z
_atom_type_partial_charge
C1    C     C_R   0.999923 0.262063 0.500090 0.801706
C2    C     C_R   0.000047 0.737934 0.499978 0.778687
C3    C     C_R   0.559064 0.624907 0.079986 -0.184398
C4    C     C_R   0.410858 0.500056 0.901495 -0.197926
C5    C     C_R   0.702731 0.650344 0.033465 0.680434
C6    C     C_R   0.264357 0.484432 0.946663 0.680711
C7    C     C_R   0.872137 0.063824 0.500384 -0.157437
C8    C     C_R   0.127760 0.936161 0.499854 -0.168008
C9    C     C_R   0.872193 0.936123 0.500302 -0.166426
C10   C     C_R   0.127706 0.063862 0.499933 -0.161599
C11   C     C_R   0.000005 0.871777 0.500033 -0.016387
C12   C     C_R   0.999913 0.128212 0.500155 -0.017719
C13   C     C_R   0.548522 0.426696 0.558200 0.001183
C14   C     C_R   0.451454 0.573397 0.441862 0.039712
C15   C     C_R   0.399686 0.426786 0.558211 -0.020970
C16   C     C_R   0.600305 0.573260 0.441817 -0.018152
C17   C     C_R   0.917898 0.502405 0.672095 0.894741
C18   C     C_R   0.082380 0.500001 0.327545 0.885143
C19   C     C_R   0.871580 0.524570 0.768928 -0.242322
C20   C     C_R   0.127935 0.501743 0.228675 -0.260745
C21   C     C_R   0.905823 0.631821 0.898368 0.784202
C22   C     C_R   0.069920 0.475336 0.086965 0.755152
C23   C     C_R   0.960019 0.592444 0.810123 -0.301394
C24   C     C_R   0.025616 0.481734 0.180186 -0.338585
C25   C     C_R   0.729184 0.493509 0.817033 0.589156
C26   C     C_R   0.275200 0.521414 0.182429 0.574569
C27   C     C_R   0.666545 0.543972 0.902688 -0.149245
C28   C     C_R   0.319549 0.528212 0.087999 -0.143682
C29   C     C_R   0.759161 0.608617 0.945362 -0.171368
C30   C     C_R   0.217100 0.496133 0.040122 -0.174414
C31   C     C_R   0.515265 0.531276 0.947409 0.022885
C32   C     C_R   0.465177 0.559348 0.039915 0.035382
Cu1   Cu    Cu3+1 0.140660 0.500020 0.500000 0.986218
Cu2   Cu    Cu3+1 0.859340 0.499980 0.500000 0.975755
H1    H     H_    0.911728 0.465811 0.214569 0.216325
H2    H     H_    0.070277 0.617580 0.773324 0.207170
H3    H     H_    0.772198 0.111834 0.500611 0.156556
H4    H     H_    0.227696 0.888149 0.499632 0.153497
H5    H     H_    0.772305 0.888083 0.500444 0.154510
H6    H     H_    0.227595 0.111901 0.499791 0.157032
N1    N     N_R   0.352080 0.500030 0.499980 -0.172329
N2    N     N_R   0.647920 0.499970 0.500020 -0.173469
O1    O     O_R   0.118740 0.319660 0.500000 -0.589099
O2    O     O_R   0.881260 0.680340 0.500000 -0.595041
O3    O     O_R   0.881170 0.319630 0.500010 -0.587237
O4    O     O_R   0.118830 0.680370 0.499990 -0.598815
O5    O     O_R   0.055570 0.500030 0.629830 -0.589327
O6    O     O_R   0.944430 0.499970 0.370170 -0.594430
O7    O     O_R   0.818000 0.500000 0.629840 -0.542713
O8    O     O_R   0.182000 0.500000 0.370160 -0.512459
F1    F     F_    0.786205 0.715405 0.075818 -0.597125
F2    F     F_    0.170338 0.453698 0.898225 -0.612109
F3    F     F_    0.376859 0.521155 0.229250 -0.670693
F4    F     F_    0.657517 0.407459 0.781406 -0.672520
F5    F     F_    0.996032 0.696371 0.936129 -0.585422
F6    F     F_    0.968397 0.447123 0.043277 -0.591383
H7    H     H_    0.520701 0.664984 0.145912 0.216341
H8    H     H_    0.438097 0.494776 0.829353 0.219268
H9    H     H_    0.583884 0.367764 0.604711 0.170479
H10   H     H_    0.416064 0.632440 0.395422 0.156467
H11   H     H_    0.322866 0.368049 0.604764 0.144243
H12   H     H_    0.677125 0.632013 0.395275 0.137423

loop_
_geom_bond_atom_site_label_1
_geom_bond_atom_site_label_2
_ccdc_geom_bond_type
C19   C23   A    
C13   H9    S    
C26   C28   A    
C27   C29   A    
C14   H10   S    
C5    C29   A    
C31   C32   A    
Cu2   N2    S    
C13   C15   A    
C9    H5    S    
C3    C5    A    
Cu1   N1    S    
C7    C9    A    
C28   C30   A    
Cu1   Cu2   S    
C7    H3    S    
Cu2   O2    S    
C18   O6    A    
Cu2   O3    S    
C6    C30   A    
C2    O4    A    
Cu1   O4    S    
C9    C11   A    
C1    O3    A    
C7    C12   A    
C1    C12   S    
C20   C26   A    
C8    C11   A    
Cu1   O5    S    
C2    C11   S    
C10   C12   A    
C22   C24   A    
C10   H6    S    
C13   N2    A    
C17   C19   S    
C1    O1    A    
C18   C20   S    
C8    H4    S    
C21   C23   A    
C15   H11   S    
C3    C32   A    
C19   C25   A    
C14   N1    A    
C14   C16   A    
C4    C31   A    
C25   C27   A    
C15   N1    A    
C27   C31   A    
C24   H1    S    
C26   F3    S    
C16   N2    A    
C28   C32   A    
Cu2   O6    S    
C25   F4    S    
C18   O8    A    
C4    C6    A    
C23   H2    S    
C4    H8    S    
C21   F5    S    
C20   C24   A    
C5    F1    S    
Cu2   O7    S    
C22   F6    S    
C22   C30   A    
C6    F2    S    
Cu1   O8    S    
C21   C29   A    
C16   H12   S    
C8    C10   A    
C17   O7    A    
C17   O5    A    
C2    O2    A    
C3    H7    S    
Cu1   O1    S    
