data_mof_unit_44898.cif
_audit_creation_date              2012-12-10T20:45:34-0500
_audit_creation_method            fapswitch 2.2
_symmetry_space_group_name_H-M    P1
_symmetry_Int_Tables_number       1
_space_group_crystal_system       triclinic
_cell_length_a                    11.200221
_cell_length_b                    10.635179
_cell_length_c                    10.091477
_cell_angle_alpha                 89.99315
_cell_angle_beta                  90.379243
_cell_angle_gamma                 89.495103
_cell_volume                      1201.98693683

loop_
_atom_site_label
_atom_site_type_symbol
_atom_type_description
_atom_site_fract_x
_atom_site_fract_y
_atom_site_fract_z
_atom_type_partial_charge
C1    C     C_R   0.501070 0.261200 0.500022 0.902237
C2    C     C_R   0.792665 0.810472 0.805210 -0.119756
C3    C     C_R   0.743635 0.745151 0.911064 -0.107314
C4    C     C_R   0.259604 0.503957 0.500492 0.970627
C5    C     C_R   0.756660 0.614484 0.918787 -0.009100
C6    C     C_R   0.820277 0.547033 0.823674 0.087989
C7    C     C_R   0.869347 0.613928 0.716680 0.138792
C8    C     C_R   0.456423 0.064051 0.603020 0.025586
C9    C     C_R   0.510957 0.129363 0.501725 -0.138646
C10   C     C_R   0.586675 0.067503 0.412866 -0.185889
C11   C     C_R   0.593904 0.936463 0.414760 -0.069383
C12   C     C_R   0.233784 0.694770 0.064612 -0.227004
C13   C     C_R   0.520130 0.871346 0.504408 -0.171342
C14   C     C_R   0.462099 0.936323 0.605048 0.131767
C15   C     C_3   0.337612 0.924453 0.655245 -0.548462
C16   C     C_R   0.505500 0.738941 0.500341 0.831950
C17   C     C_3   0.330030 0.067039 0.651186 -0.224910
C18   C     C_R   0.536659 0.397738 0.069508 0.359390
C19   C     C_R   0.490519 0.609298 0.071559 -0.220667
C20   C     C_R   0.485991 0.608769 0.928407 -0.159744
C21   C     C_R   0.534366 0.397395 0.930341 0.225946
C22   C     C_3   0.494750 0.264854 0.923447 -0.493477
C23   C     C_R   0.937229 0.499813 0.375290 0.359409
C24   C     C_3   0.503044 0.262561 0.074794 -0.467510
C25   C     C_R   0.739434 0.502826 0.498980 0.855445
C26   C     C_R   0.173883 0.766071 0.159220 -0.001396
C27   C     C_R   0.116343 0.703549 0.261589 -0.157023
C28   C     C_R   0.117918 0.571488 0.267370 0.021471
C29   C     C_R   0.175462 0.498882 0.170427 0.528202
C30   C     C_R   0.235325 0.562668 0.071454 -0.034930
C31   C     C_2   0.835146 0.407805 0.833845 0.550979
C32   C     C_2   0.679817 0.870567 0.327551 0.426103
C33   C     C_2   0.241610 0.116371 0.550542 0.495479
C34   C     C_R   0.871869 0.512546 0.494957 -0.282542
C35   C     C_2   0.174045 0.904883 0.150783 0.472681
C36   C     C_R   0.933983 0.547885 0.610596 -0.222648
C37   C     C_R   0.058609 0.534843 0.619193 0.391174
C38   C     C_R   0.125087 0.512821 0.501810 -0.241561
C39   C     C_R   0.061564 0.513546 0.380725 -0.123000
C40   C     C_R   0.855035 0.745025 0.707676 -0.161517
H1    H     H_    0.281021 0.742274 0.986626 0.163783
H2    H     H_    0.402007 0.258000 0.885319 0.247381
H3    H     H_    0.561488 0.202568 0.874760 0.224754
H4    H     H_    0.417605 0.244541 0.123303 0.276229
H5    H     H_    0.577989 0.202700 0.111733 0.234091
H6    H     H_    0.070860 0.756880 0.338031 0.174893
H7    H     H_    0.284159 0.509123 0.999549 0.212079
H8    H     H_    0.892169 0.796105 0.624919 0.135877
H9    H     H_    0.781549 0.911460 0.798186 0.160965
H10   H     H_    0.884583 0.356071 0.759286 0.074769
H11   H     H_    0.703674 0.773700 0.347408 0.121220
H12   H     H_    0.693780 0.795319 0.986144 0.179667
H13   H     H_    0.241723 0.080150 0.449985 0.131258
H14   H     H_    0.221449 0.951136 0.071193 0.075156
H15   H     H_    0.044441 0.245732 0.303230 0.370885
H16   H     H_    0.811216 0.303572 0.263466 0.352289
H17   H     H_    0.181556 0.744368 0.752113 0.338460
H18   H     H_    0.714682 0.564349 0.997384 0.209161
H19   H     H_    0.639018 0.121091 0.343089 0.190945
H20   H     H_    0.277857 0.875119 0.584004 0.193565
H21   H     H_    0.337543 0.887495 0.758203 0.212951
H22   H     H_    0.320811 0.109510 0.751028 0.203145
H23   H     H_    0.479666 0.697454 0.123622 0.174141
H24   H     H_    0.472027 0.696495 0.876231 0.178764
N1    N     N_R   0.499160 0.499140 0.142800 -0.114460
N2    N     N_R   0.499160 0.499180 0.857150 -0.107343
O1    O     O_R   0.500020 0.316790 0.614690 -0.625437
O2    O     O_2   0.726934 0.924520 0.235009 -0.548087
O3    O     O_2   0.169337 0.197561 0.581406 -0.550004
O4    O     O_2   0.121268 0.969279 0.232088 -0.535631
O5    O     O_2   0.209230 0.279751 0.039474 -0.276687
O6    O     O_2   0.260933 0.282420 0.275084 -0.368745
O7    O     O_3   0.039254 0.272780 0.209408 -0.455932
O8    O     O_2   0.794226 0.614223 0.203791 -0.334154
O9    O     O_2   0.945748 0.486217 0.099444 -0.200300
O10   O     O_3   0.773766 0.368832 0.206481 -0.489418
O11   O     O_2   0.048997 0.588436 0.887043 -0.298226
O12   O     O_R   0.500000 0.316760 0.385350 -0.596528
O13   O     O_2   0.188249 0.429019 0.808564 -0.233006
O14   O     O_3   0.230818 0.667229 0.762599 -0.595111
O15   O     O_R   0.316770 0.500030 0.614670 -0.492518
O16   O     O_R   0.316750 0.499990 0.385330 -0.626229
O17   O     O_R   0.500000 0.683240 0.614650 -0.600810
O18   O     O_R   0.499980 0.683210 0.385310 -0.648611
O19   O     O_R   0.683250 0.500010 0.614670 -0.662975
O20   O     O_R   0.683230 0.499970 0.385330 -0.527032
O21   O     O_2   0.792870 0.348707 0.925527 -0.524676
S1    S     S_3+6 0.174232 0.330553 0.172580 0.062460
S2    S     S_3+6 0.864556 0.494063 0.215985 0.063154
S3    S     S_3+6 0.129649 0.552811 0.775422 0.006559
Zn1   Zn    Zn3+2 0.500010 0.500020 0.653130 1.015189
Zn2   Zn    Zn3+2 0.499990 0.499980 0.346870 1.020727

loop_
_geom_bond_atom_site_label_1
_geom_bond_atom_site_label_2
_ccdc_geom_bond_type
N1    Zn2   S    
H16   O10   S    
C21   N2    A    
C18   C21   A    
C7    C36   S    
C19   C20   A    
O19   Zn1   S    
O7    S1    S    
C18   N1    A    
C5    C6    A    
C26   C27   A    
C29   C30   A    
C37   S3    S    
C18   C24   S    
C24   H5    S    
O8    S2    D    
C20   N2    A    
C28   C29   A    
C38   C39   A    
C16   O18   A    
O16   Zn2   S    
C15   C17   S    
C15   H20   S    
C29   S1    S    
C4    O15   A    
C35   O4    D    
C19   H23   S    
C8    C9    A    
O13   S3    D    
C7    C40   A    
C23   S2    S    
C9    C10   A    
C33   O3    D    
C25   C34   S    
C32   O2    D    
C6    C31   S    
C13   C14   A    
C35   H14   S    
C1    O12   A    
H17   O14   S    
C17   C33   S    
O1    Zn1   S    
O6    S1    D    
C33   H13   S    
O11   S3    D    
C31   O21   D    
C30   H7    S    
C1    C9    S    
C28   C39   S    
O12   Zn2   S    
C16   O17   A    
C12   C26   A    
O15   Zn1   S    
C20   H24   S    
C32   H11   S    
C37   C38   A    
C2    H9    S    
C17   H22   S    
C22   H3    S    
C23   C34   A    
C25   O19   A    
C15   H21   S    
C6    C7    A    
C5    H18   S    
C27   H6    S    
C4    C38   S    
C11   C32   S    
C24   H4    S    
C22   C24   S    
C31   H10   S    
C12   H1    S    
C40   H8    S    
C36   C37   A    
C8    C14   A    
C12   C30   A    
C3    C5    A    
C3    H12   S    
N2    Zn1   S    
O17   Zn1   S    
O10   S2    S    
C8    C17   S    
C2    C3    A    
O20   Zn2   S    
C11   C13   A    
C22   H2    S    
C23   C39   A    
C25   O20   A    
C1    O1    A    
C19   N1    A    
C34   C36   A    
O14   S3    S    
C10   C11   A    
O9    S2    D    
O5    S1    D    
H15   O7    S    
C2    C40   A    
C26   C35   S    
C4    O16   A    
C13   C16   S    
C27   C28   A    
C14   C15   S    
O18   Zn2   S    
C21   C22   S    
C10   H19   S    
