data_mof_unit_50573.cif
_audit_creation_date              2013-03-05T15:43:49-0500
_audit_creation_method            fapswitch 2.2
_symmetry_space_group_name_H-M    P1
_symmetry_Int_Tables_number       1
_space_group_crystal_system       triclinic
_cell_length_a                    10.670804
_cell_length_b                    10.905795
_cell_length_c                    9.724805
_cell_angle_alpha                 89.552482
_cell_angle_beta                  89.379698
_cell_angle_gamma                 90.493399
_cell_volume                      1131.56694092

loop_
_atom_site_label
_atom_site_type_symbol
_atom_site_description
_atom_site_fract_x
_atom_site_fract_y
_atom_site_fract_z
_atom_type_partial_charge
O1    O     O_R   0.500020 0.321960 0.617040 -0.528056
O2    O     O_R   0.499980 0.321920 0.382900 -0.599199
C1    C     C_R   0.496188 0.265404 0.500443 0.844129
O3    O     O_R   0.316870 0.499990 0.617050 -0.516735
O4    O     O_R   0.316830 0.499950 0.382910 -0.576654
C2    C     C_R   0.259704 0.501521 0.500957 0.925737
Cu1   Cu    Cu3+1 0.500030 0.500020 0.638630 1.107136
Cu2   Cu    Cu3+1 0.499970 0.499980 0.361370 1.021438
O5    O     O_R   0.500020 0.678080 0.617100 -0.544030
O6    O     O_R   0.499980 0.678040 0.382960 -0.580283
O7    O     O_R   0.683170 0.500050 0.617090 -0.546736
O8    O     O_R   0.683130 0.500010 0.382950 -0.549308
C3    C     C_R   0.506704 0.734578 0.499621 0.796066
C4    C     C_R   0.740121 0.501181 0.499194 0.930027
C5    C     C_3   0.035871 0.489890 0.630741 0.231713
C6    C     C_3   0.956559 0.397347 0.550613 0.384394
C7    C     C_3   0.876150 0.503527 0.497707 -0.222524
C8    C     C_3   0.956198 0.596412 0.577129 0.256923
C9    C     C_3   0.041862 0.610492 0.450004 0.194250
C10   C     C_3   0.962439 0.517902 0.370876 0.416849
C11   C     C_3   0.043156 0.409353 0.421746 -0.443882
C12   C     C_3   0.123378 0.503892 0.503192 -0.338399
H1    H     H_    0.081426 0.333899 0.358369 0.182703
C13   C     C_2   0.490787 0.933720 0.392265 -0.214698
C14   C     C_2   0.532177 0.865751 0.498479 0.191440
H2    H     H_    0.443652 0.890417 0.306581 0.193909
C15   C     C_2   0.499521 0.067489 0.388119 -0.117147
C16   C     C_2   0.485085 0.133289 0.502684 -0.211293
H3    H     H_    0.511830 0.111794 0.288380 0.196976
H4    H     H_    0.463873 0.089474 0.600961 0.206011
C17   C     C_2   0.448229 0.413060 0.925191 0.447499
N1    N     N_2   0.498620 0.498660 0.846910 -0.321185
H5    H     H_    0.526794 0.578631 0.892840 0.189210
C18   C     C_2   0.437128 0.421529 0.079709 -0.103023
N2    N     N_2   0.498590 0.498630 0.153040 -0.296760
H6    H     H_    0.376978 0.355199 0.132498 0.179377
H7    H     H_    0.562623 0.555274 0.104215 0.213196
O9    O     O_3   0.900896 0.289857 0.606569 -0.535572
C19   C     C_3   0.986497 0.192476 0.599096 -0.079226
H8    H     H_    0.080064 0.218120 0.640143 0.175950
H9    H     H_    0.995681 0.159748 0.491561 0.155613
H10   H     H_    0.949559 0.114980 0.662473 0.206087
N3    N     N_R   0.398667 0.303450 0.865804 0.144132
O10   O     O_R   0.436310 0.197571 0.911128 -0.354295
O11   O     O_R   0.297038 0.307985 0.793661 -0.319344
N4    N     N_R   0.075253 0.473061 0.772788 0.148765
O12   O     O_R   0.031078 0.381816 0.845822 -0.328482
O13   O     O_R   0.152941 0.550208 0.828240 -0.399184
O14   O     O_3   0.898081 0.692531 0.649659 -0.542157
C20   C     C_3   0.987447 0.761051 0.722800 -0.059769
H11   H     H_    0.081749 0.765061 0.672657 0.156012
H12   H     H_    0.994739 0.723878 0.828852 0.178703
H13   H     H_    0.953812 0.856708 0.731032 0.188293
N5    N     N_R   0.085869 0.727980 0.394684 0.126585
O15   O     O_R   0.005234 0.808473 0.352961 -0.300591
O16   O     O_R   0.204869 0.754359 0.389748 -0.400837
O17   O     O_3   0.914035 0.536722 0.238118 -0.554279
C21   C     C_3   0.011638 0.528679 0.140260 -0.074714
H14   H     H_    0.045324 0.432851 0.131972 0.176824
H15   H     H_    0.090966 0.591789 0.163316 0.175437
H16   H     H_    0.974258 0.556241 0.038838 0.214809
N6    N     N_R   0.613342 0.915762 0.602223 0.131080
O18   O     O_R   0.602261 0.879911 0.729815 -0.310424
O19   O     O_R   0.708563 0.984797 0.566441 -0.318489

loop_
_geom_bond_atom_site_label_1
_geom_bond_atom_site_label_2
_geom_bond_distance
_ccdc_geom_bond_type
C7    C8    1.537503 S    
O4    Cu2   1.963186 S    
C20   H12   1.108969 S    
N3    O10   1.301081 A    
C6    C11   1.553014 S    
C15   H3    1.086439 S    
C5    C8    1.536658 S    
C17   N1    1.308265 D    
C13   C15   1.461240 S    
O8    C4    1.289534 A    
Cu2   O8    1.967954 S    
N1    H5    1.027133 S    
C7    C10   1.537397 S    
C21   H16   1.108246 S    
C16   H4    1.085952 S    
O2    C1    1.294499 A    
C10   O17   1.409912 S    
C17   C18   1.509647 S    
Cu1   Cu2   2.696310 S    
C19   H9    1.111224 S    
O1    Cu1   1.954832 S    
C11   C12   1.560568 S    
C10   C11   1.551014 S    
Cu1   O7    1.963186 S    
N3    O11   1.299065 A    
C4    C7    1.451454 S    
C3    C14   1.453777 S    
O17   C21   1.406938 S    
N6    O18   1.301880 A    
C17   N3    1.431320 S    
O3    Cu1   1.967954 S    
C9    N5    1.457759 S    
Cu2   O6    1.954832 S    
C1    C16   1.444640 S    
N2    H7    1.027160 S    
C13   H2    1.086948 S    
C20   H11   1.113817 S    
C19   H10   1.109226 S    
C18   H6    1.085290 S    
C14   N6    1.443888 S    
C11   H1    1.109968 S    
O4    C2    1.294248 A    
O7    C4    1.291711 A    
N5    O16   1.299879 A    
C20   H13   1.109343 S    
C21   H15   1.112202 S    
C5    C6    1.534246 S    
C2    C12   1.455084 S    
N4    O13   1.300250 A    
Cu1   O5    1.951516 S    
C15   C16   1.338142 D    
C9    C12   1.547083 S    
O9    C19   1.408541 S    
C13   C14   1.347220 D    
O3    C2    1.289105 A    
C18   N2    1.286747 D    
C19   H8    1.113546 S    
O14   C20   1.408695 S    
O5    C3    1.294770 A    
N5    O15   1.300226 A    
C8    C9    1.535478 S    
N6    O19   1.302088 A    
Cu1   N1    2.025314 S    
C5    N4    1.458916 S    
C21   H14   1.111336 S    
N4    O12   1.300196 A    
Cu2   N2    2.026348 S    
C5    C12   1.550263 S    
O2    Cu2   1.951514 S    
C9    C10   1.530219 S    
C8    O14   1.412158 S    
C6    O9    1.412138 S    
C6    C7    1.535975 S    
O1    C1    1.295874 A    
O6    C3    1.297829 A    
