data_mof_unit_55809.cif
_audit_creation_date              2012-12-11T14:03:22-0500
_audit_creation_method            fapswitch 2.2
_symmetry_space_group_name_H-M    P1
_symmetry_Int_Tables_number       1
_space_group_crystal_system       triclinic
_cell_length_a                    6.976842
_cell_length_b                    11.397616
_cell_length_c                    18.935181
_cell_angle_alpha                 90.0
_cell_angle_beta                  92.423634
_cell_angle_gamma                 90.000365
_cell_volume                      1504.36668503

loop_
_atom_site_label
_atom_site_type_symbol
_atom_type_description
_atom_site_fract_x
_atom_site_fract_y
_atom_site_fract_z
_atom_type_partial_charge
O1    O     O_R   0.330540 0.606360 0.598870 -0.536420
O2    O     O_R   0.669460 0.106360 0.401130 -0.536421
O3    O     O_R   0.026770 0.620470 0.750430 -0.550489
O4    O     O_R   0.973230 0.120470 0.249570 -0.550478
O5    O     O_R   0.856460 0.393640 0.750930 -0.542565
O6    O     O_R   0.143540 0.893640 0.249070 -0.542564
C1    C     C_R   0.197265 0.648247 0.773767 0.686327
C2    C     C_R   0.802736 0.148254 0.226238 0.686343
O7    O     O_R   0.000920 0.620350 0.599420 -0.547495
O8    O     O_R   0.999080 0.120350 0.400580 -0.547497
O9    O     O_R   0.830430 0.393520 0.598850 -0.537046
O10   O     O_R   0.169570 0.893520 0.401150 -0.537048
C3    C     C_R   0.167062 0.647746 0.574660 0.768073
C4    C     C_R   0.832938 0.147746 0.425340 0.768065
O11   O     O_R   0.356570 0.606480 0.750960 -0.547185
O12   O     O_R   0.643430 0.106480 0.249040 -0.547179
O13   O     O_3   0.176990 0.425580 0.674890 -0.373172
O14   O     O_3   0.823010 0.925580 0.325110 -0.373175
V1    V     V_3+5 0.902170 0.513810 0.674910 1.397180
V2    V     V_3+5 0.097830 0.013810 0.325090 1.397186
O15   O     O_R   0.500800 0.379530 0.599380 -0.547264
O16   O     O_R   0.499200 0.879530 0.400620 -0.547265
C5    C     C_R   0.666954 0.352148 0.574624 0.768562
C6    C     C_R   0.333046 0.852148 0.425376 0.768557
O17   O     O_R   0.526650 0.379650 0.750390 -0.549597
O18   O     O_R   0.473350 0.879650 0.249610 -0.549594
C7    C     C_R   0.697883 0.356379 0.776118 0.716823
C8    C     C_R   0.302115 0.856367 0.223886 0.716820
V3    V     V_3+5 0.402160 0.486190 0.674900 1.396884
V4    V     V_3+5 0.597840 0.986190 0.325100 1.396881
O19   O     O_3   0.677210 0.574420 0.674910 -0.378508
O20   O     O_3   0.322790 0.074420 0.325090 -0.378507
C9    C     C_R   0.685054 0.090798 0.887250 -0.178103
C10   C     C_R   0.314878 0.590763 0.112767 -0.178072
H1    H     H_    0.653821 0.130458 0.777991 0.116883
H2    H     H_    0.346041 0.630441 0.222026 0.116878
H3    H     H_    0.658554 0.998317 0.877357 0.135633
H4    H     H_    0.341345 0.498284 0.122664 0.135649
C11   C     C_R   0.710836 0.285648 0.840423 -0.018147
C12   C     C_R   0.289150 0.785622 0.159586 -0.018151
C13   C     C_R   0.839774 0.350124 0.188146 -0.169718
C14   C     C_R   0.160136 0.850088 0.811877 -0.169710
C15   C     C_R   0.885740 0.429801 0.136666 -0.123060
C16   C     C_R   0.114114 0.929729 0.863364 -0.123099
C17   C     C_R   0.878405 0.396672 0.065949 -0.196152
C18   C     C_R   0.121484 0.896589 0.934077 -0.196187
C19   C     C_R   0.803471 0.286673 0.042902 0.074676
C20   C     C_R   0.196518 0.786621 0.957112 0.074688
C21   C     C_R   0.782143 0.201385 0.097219 0.080762
C22   C     C_R   0.217897 0.701352 0.902791 0.080758
C23   C     C_R   0.761191 0.254043 0.969496 0.018237
C24   C     C_R   0.238814 0.753997 0.030515 0.018250
C25   C     C_R   0.723893 0.132338 0.955574 0.126702
C26   C     C_R   0.276108 0.632297 0.044438 0.126664
C27   C     C_R   0.726158 0.049900 0.009783 -0.219482
C28   C     C_R   0.273896 0.549861 0.990227 -0.219491
C29   C     C_R   0.757828 0.083442 0.078971 -0.233271
C30   C     C_R   0.242270 0.583409 0.921036 -0.233254
C31   C     C_R   0.743331 0.334255 0.909843 0.061967
C32   C     C_R   0.256681 0.834216 0.090163 0.061977
C33   C     C_R   0.681711 0.166049 0.830551 -0.236148
C34   C     C_R   0.318203 0.666024 0.169463 -0.236176
C35   C     C_R   0.796044 0.234727 0.169390 -0.076927
C36   C     C_R   0.203954 0.734708 0.830621 -0.076932
H5    H     H_    0.935911 0.516442 0.151869 0.137937
H6    H     H_    0.063884 0.016348 0.848169 0.137962
H7    H     H_    0.766073 0.014645 0.118324 0.123288
H8    H     H_    0.234061 0.514616 0.881680 0.123309
C37   C     C_2   0.831305 0.233390 0.484489 -0.349028
C38   C     C_2   0.168696 0.733390 0.515511 -0.349033
C39   C     C_2   0.668602 0.266511 0.515470 -0.348214
C40   C     C_2   0.331398 0.766511 0.484530 -0.348213
H9    H     H_    0.531651 0.230279 0.496750 0.151475
H10   H     H_    0.468348 0.730280 0.503250 0.151475
H11   H     H_    0.702925 0.957482 0.998617 0.136110
H12   H     H_    0.297134 0.457442 0.001394 0.136124
C41   C     C_3   0.753947 0.467571 0.921602 -0.449622
C42   C     C_3   0.665595 0.552697 0.867928 -0.688913
H13   H     H_    0.760610 0.568352 0.823885 0.245301
H14   H     H_    0.527508 0.518056 0.848416 0.239617
H15   H     H_    0.642656 0.639319 0.893198 0.210792
H16   H     H_    0.676178 0.488158 0.969939 0.215096
H17   H     H_    0.906280 0.492033 0.926194 0.203109
C43   C     C_3   0.246088 0.967528 0.078397 -0.449634
C44   C     C_3   0.334520 0.052648 0.132056 -0.688875
H18   H     H_    0.239541 0.068335 0.176107 0.245264
H19   H     H_    0.472602 0.017985 0.151558 0.239618
H20   H     H_    0.357481 0.139259 0.106776 0.210800
H21   H     H_    0.323794 0.988101 0.030045 0.215094
H22   H     H_    0.093766 0.992005 0.073826 0.203098
H23   H     H_    0.854186 0.375806 0.243240 0.102904
H24   H     H_    0.145691 0.875775 0.756786 0.102912
H25   H     H_    0.943947 0.457782 0.032295 0.130715
H26   H     H_    0.055911 0.957654 0.967745 0.130719
H27   H     H_    0.968256 0.269625 0.503205 0.151468
H28   H     H_    0.031744 0.769625 0.496795 0.151468

loop_
_geom_bond_atom_site_label_1
_geom_bond_atom_site_label_2
_ccdc_geom_bond_type
C21   C35   A    
C22   C36   A    
C16   H6    S    
O4    C2    A    
V1    O19   S    
C31   C41   S    
C21   C29   A    
C19   C21   A    
C41   C42   S    
O9    V1    S    
C14   C16   A    
C28   H12   S    
O3    C1    A    
C42   H14   S    
C3    C38   S    
C8    C12   S    
O12   V4    S    
C10   C34   A    
C12   C34   A    
C17   C19   A    
C37   C39   D    
O7    C3    A    
C24   C32   A    
O5    C7    A    
O7    V1    S    
O6    C8    A    
C7    C11   S    
O3    V1    S    
O14   V4    S    
C14   H24   S    
C27   H11   S    
C20   C22   A    
C17   H25   S    
C2    O12   A    
O17   V3    S    
C13   C15   A    
C43   H22   S    
C29   H7    S    
H2    C34   S    
C24   C26   A    
O11   V3    S    
C18   C20   A    
C25   C27   A    
C9    C25   A    
C11   C33   A    
C26   C28   A    
C44   H19   S    
C22   C30   A    
C5    C39   S    
C43   C44   S    
C40   H10   S    
O8    C4    A    
O8    V2    S    
C39   H9    S    
C42   H13   S    
C19   C23   A    
C1    O11   A    
C16   C18   A    
C44   H18   S    
O15   V3    S    
C9    H3    S    
C23   C25   A    
C38   H28   S    
C18   H26   S    
C15   H5    S    
C11   C31   A    
O10   V2    S    
O1    V3    S    
H1    C33   S    
C15   C17   A    
C30   H8    S    
C13   H23   S    
C10   C26   A    
O15   C5    A    
C4    C37   S    
O16   C6    A    
O1    C3    A    
C43   H21   S    
C13   C35   A    
C14   C36   A    
C6    C40   S    
V2    O20   S    
C44   H20   S    
O16   V4    S    
C10   H4    S    
C37   H27   S    
O18   V4    S    
O5    V1    S    
O17   C7    A    
O6    V2    S    
O10   C6    A    
O18   C8    A    
O2    V4    S    
C27   C29   A    
V3    O19   S    
O13   V3    S    
V4    O20   S    
C32   C43   S    
C42   H15   S    
C41   H16   S    
O9    C5    A    
O13   V1    S    
C28   C30   A    
O14   V2    S    
O2    C4    A    
C1    C36   S    
C2    C35   S    
O4    V2    S    
C20   C24   A    
C23   C31   A    
C9    C33   A    
C12   C32   A    
C41   H17   S    
C38   C40   D    
