data_mof_unit_59580.cif
_audit_creation_date              2012-12-10T18:59:53-0500
_audit_creation_method            fapswitch 2.2
_symmetry_space_group_name_H-M    P1
_symmetry_Int_Tables_number       1
_space_group_crystal_system       triclinic
_cell_length_a                    10.651092
_cell_length_b                    10.68879
_cell_length_c                    9.837486
_cell_angle_alpha                 90.645735
_cell_angle_beta                  89.664988
_cell_angle_gamma                 90.158388
_cell_volume                      1119.87672996

loop_
_atom_site_label
_atom_site_type_symbol
_atom_type_description
_atom_site_fract_x
_atom_site_fract_y
_atom_site_fract_z
_atom_type_partial_charge
C1    C     C_R   0.500325 0.260010 0.499007 0.941898
C2    C     C_R   0.499676 0.739990 0.500992 0.941911
C3    C     C_R   0.872216 0.493930 0.498409 -0.064749
C4    C     C_R   0.127785 0.506080 0.501596 -0.064744
C5    C     C_R   0.937513 0.417636 0.589194 -0.004186
C6    C     C_R   0.062487 0.582382 0.410820 -0.004191
C7    C     C_R   0.552872 0.061587 0.387066 0.532073
C8    C     C_R   0.447127 0.938415 0.612926 0.532070
C9    C     C_R   0.555060 0.933011 0.392480 -0.381295
C10   C     C_R   0.444935 0.066991 0.607512 -0.381323
C11   C     C_R   0.500349 0.872399 0.502888 -0.219084
C12   C     C_R   0.499650 0.127603 0.497106 -0.219109
C13   C     C_R   0.580300 0.575639 0.072337 -0.079474
C14   C     C_R   0.419700 0.424361 0.927662 -0.079487
C15   C     C_R   0.580353 0.575507 0.928421 -0.072707
C16   C     C_R   0.419647 0.424493 0.071579 -0.072721
C17   C     C_R   0.260235 0.503438 0.500436 0.871964
C18   C     C_R   0.739765 0.496566 0.499564 0.871932
C19   C     C_R   0.237332 0.872471 0.299083 -0.119065
C20   C     C_R   0.762644 0.127579 0.700984 -0.119070
C21   C     C_R   0.180912 0.782616 0.381825 -0.145864
C22   C     C_R   0.819035 0.217436 0.618223 -0.145799
C23   C     C_R   0.125438 0.675652 0.323433 0.128769
C24   C     C_R   0.874566 0.324378 0.676600 0.128812
C25   C     C_R   0.128086 0.659101 0.181652 -0.134511
C26   C     C_R   0.872000 0.340906 0.818388 -0.134594
C27   C     C_R   0.186489 0.748253 0.099444 -0.130879
C28   C     C_R   0.813622 0.251754 0.900615 -0.130867
C29   C     C_R   0.240630 0.855089 0.158146 -0.115136
C30   C     C_R   0.759427 0.144939 0.841926 -0.115164
C31   C     C_R   0.933583 0.574496 0.409273 -0.253782
C32   C     C_R   0.066418 0.425519 0.590736 -0.253790
H1    H     H_    0.284507 0.924823 0.094555 0.114221
H2    H     H_    0.715571 0.075203 0.905532 0.114241
H3    H     H_    0.644561 0.635883 0.874161 0.120995
H4    H     H_    0.355437 0.364117 0.125838 0.120995
H5    H     H_    0.278210 0.955794 0.344147 0.132386
H6    H     H_    0.721729 0.044268 0.655930 0.132380
H7    H     H_    0.179218 0.796911 0.491009 0.140190
H8    H     H_    0.820670 0.203156 0.509035 0.140156
H9    H     H_    0.085716 0.577029 0.135189 0.120178
H10   H     H_    0.914418 0.422958 0.864841 0.120190
H11   H     H_    0.189109 0.734905 0.990227 0.148922
H12   H     H_    0.811067 0.265082 0.009838 0.148927
H13   H     H_    0.880726 0.634467 0.342209 0.149856
H14   H     H_    0.119275 0.365549 0.657801 0.149857
H15   H     H_    0.600233 0.880674 0.310896 0.185393
H16   H     H_    0.399762 0.119328 0.689095 0.185401
H17   H     H_    0.644430 0.636173 0.127196 0.118727
H18   H     H_    0.355568 0.363828 0.872804 0.118729
N1    N     N_R   0.499970 0.499970 0.857200 -0.069851
N2    N     N_R   0.500030 0.500030 0.142800 -0.069850
O1    O     O_R   0.499990 0.316750 0.614620 -0.628513
O2    O     O_R   0.500010 0.683250 0.385380 -0.628513
O3    O     O_R   0.499990 0.316780 0.385290 -0.581953
O4    O     O_R   0.500010 0.683220 0.614710 -0.581958
O5    O     O_R   0.316760 0.500000 0.614660 -0.622608
O6    O     O_R   0.683240 0.500000 0.385340 -0.622603
O7    O     O_R   0.316760 0.500020 0.385330 -0.619843
O8    O     O_R   0.683240 0.499980 0.614670 -0.619836
Zn1   Zn    Zn3+2 0.500000 0.499980 0.653120 0.963790
Zn2   Zn    Zn3+2 0.500000 0.500020 0.346880 0.963791
O9    O     O_3   0.611835 0.123180 0.281125 -0.591817
C33   C     C_3   0.541343 0.105277 0.161347 -0.312088
H19   H     H_    0.575518 0.172130 0.084034 0.189319
H20   H     H_    0.439578 0.124715 0.177845 0.147322
H21   H     H_    0.554555 0.009170 0.119536 0.141451
O10   O     O_3   0.388169 0.876821 0.718868 -0.591813
C34   C     C_3   0.458676 0.894717 0.838636 -0.312117
H22   H     H_    0.560437 0.875266 0.822121 0.147334
H23   H     H_    0.424503 0.827870 0.915954 0.189305
H24   H     H_    0.445475 0.990825 0.880446 0.141467

loop_
_geom_bond_atom_site_label_1
_geom_bond_atom_site_label_2
_ccdc_geom_bond_type
C17   O5    A    
O6    Zn2   S    
C34   H24   S    
C28   H12   S    
C33   H21   S    
O5    Zn1   S    
C1    O1    A    
C15   N1    A    
C27   C29   A    
C13   N2    A    
C20   H6    S    
C19   H5    S    
C26   C28   A    
C14   N1    A    
C21   H7    S    
C5    C32   A    
C22   H8    S    
C33   H19   S    
C28   C30   A    
C6    C31   A    
C1    O3    A    
C33   H20   S    
C14   H18   S    
C16   H4    S    
C2    C11   S    
C3    C31   A    
C9    C11   A    
C7    O9    S    
C4    C32   A    
C1    C12   S    
C10   C12   A    
C17   O7    A    
C8    C11   A    
C13   H17   S    
C6    C23   S    
C18   O8    A    
C19   C21   A    
C20   C22   A    
C8    O10   S    
C14   C16   A    
C13   C15   A    
C21   C23   A    
C10   H16   S    
C34   H22   S    
C22   C24   A    
C7    C12   A    
C15   H3    S    
C9    H15   S    
C25   C27   A    
C4    C17   S    
C31   H13   S    
O9    C33   S    
C19   C29   A    
O3    Zn2   S    
C27   H11   S    
C5    C24   S    
C23   C25   A    
C26   H10   S    
C3    C18   S    
C8    C10   A    
C4    C6    A    
C2    O2    A    
C25   H9    S    
C34   H23   S    
C7    C9    A    
O4    Zn1   S    
C30   H2    S    
O7    Zn2   S    
C20   C30   A    
O2    Zn2   S    
O10   C34   S    
C32   H14   S    
O1    Zn1   S    
N2    Zn2   S    
C2    O4    A    
C18   O6    A    
C16   N2    A    
C29   H1    S    
C24   C26   A    
O8    Zn1   S    
C3    C5    A    
N1    Zn1   S    
