data_mof_unit_65276.cif
_audit_creation_date              2013-03-05T16:09:42-0500
_audit_creation_method            fapswitch 2.2
_symmetry_space_group_name_H-M    P1
_symmetry_Int_Tables_number       1
_space_group_crystal_system       triclinic
_cell_length_a                    10.655052
_cell_length_b                    12.768602
_cell_length_c                    13.897034
_cell_angle_alpha                 98.036659
_cell_angle_beta                  90.196108
_cell_angle_gamma                 92.77903
_cell_volume                      1869.82309811

loop_
_atom_site_label
_atom_site_type_symbol
_atom_site_description
_atom_site_fract_x
_atom_site_fract_y
_atom_site_fract_z
_atom_type_partial_charge
O1    O     O_R   0.492210 0.399110 0.356330 -0.580210
O2    O     O_R   0.507790 0.600890 0.643670 -0.580260
O3    O     O_R   0.505820 0.575890 0.366540 -0.560195
O4    O     O_R   0.494180 0.424110 0.633460 -0.560151
C1    C     C_R   0.498688 0.483505 0.315847 0.812998
C2    C     C_R   0.501311 0.516494 0.684153 0.812987
O5    O     O_R   0.310050 0.411620 0.494870 -0.579093
O6    O     O_R   0.689950 0.588380 0.505130 -0.579137
O7    O     O_R   0.323660 0.588400 0.505080 -0.535364
O8    O     O_R   0.676340 0.411600 0.494920 -0.535460
C3    C     C_R   0.259146 0.500739 0.499806 0.881100
C4    C     C_R   0.740854 0.499260 0.500194 0.881101
Cu1   Cu    Cu3+1 0.491940 0.395330 0.493960 1.048385
Cu2   Cu    Cu3+1 0.508060 0.604670 0.506040 1.048339
C5    C     C_3   0.038693 0.439436 0.417012 -0.462501
C6    C     C_3   0.961306 0.560565 0.582990 -0.462558
C7    C     C_3   0.959939 0.538620 0.422045 0.434911
C8    C     C_3   0.040060 0.461380 0.577956 0.434957
H1    H     H_    0.073720 0.391394 0.350679 0.172082
H2    H     H_    0.926279 0.608607 0.649323 0.172050
C9    C     C_3   0.877042 0.498273 0.500799 -0.214200
C10   C     C_3   0.122958 0.501728 0.499202 -0.214217
C11   C     C_3   0.956182 0.400178 0.497295 0.442222
C12   C     C_3   0.043818 0.599822 0.502706 0.442188
C13   C     C_1   0.502083 0.525995 0.787543 -0.132375
C14   C     C_1   0.497917 0.474005 0.212457 -0.132395
C15   C     C_2   0.503525 0.543508 0.978509 -0.156037
C16   C     C_2   0.496475 0.456491 0.021491 -0.155985
C17   C     C_1   0.497220 0.465504 0.125357 0.017923
C18   C     C_1   0.502779 0.534496 0.874643 0.017937
H3    H     H_    0.490117 0.378191 0.978988 0.168759
H4    H     H_    0.509882 0.621808 0.021012 0.168723
N1    N     N_1   0.479830 0.238040 0.484880 -0.142265
N2    N     N_1   0.520170 0.761960 0.515120 -0.142276
C19   C     C_2   0.453811 0.029856 0.483767 0.107434
C20   C     C_2   0.545925 0.970152 0.516228 0.107718
C21   C     C_1   0.529330 0.853853 0.515592 0.296263
C22   C     C_1   0.470580 0.146150 0.484405 0.296205
O9    O     O_3   0.906880 0.580427 0.343297 -0.576648
C23   C     C_3   0.001486 0.597859 0.276014 -0.256101
H5    H     H_    0.036693 0.521646 0.240327 0.154713
H6    H     H_    0.080506 0.650249 0.310340 0.202824
H7    H     H_    0.960464 0.638102 0.218417 0.191939
O10   O     O_3   0.093120 0.419573 0.656705 -0.576662
C24   C     C_3   0.998515 0.402145 0.723989 -0.256123
H8    H     H_    0.919491 0.349758 0.689664 0.202810
H9    H     H_    0.963314 0.478359 0.759677 0.154722
H10   H     H_    0.039536 0.361899 0.781585 0.191937
O11   O     O_3   0.900281 0.297704 0.497399 -0.558014
C25   C     C_3   0.992916 0.222424 0.480703 -0.124052
H11   H     H_    0.071410 0.238913 0.534490 0.187997
H12   H     H_    0.029344 0.218206 0.405486 0.154956
H13   H     H_    0.949467 0.143389 0.488574 0.223396
O12   O     O_3   0.099717 0.702298 0.502605 -0.557782
C26   C     C_3   0.007079 0.777577 0.519294 -0.123841
H14   H     H_    0.970639 0.781792 0.594507 0.154640
H15   H     H_    0.928594 0.761088 0.465499 0.188032
H16   H     H_    0.050529 0.856612 0.511429 0.223364
N3    N     N_R   0.665251 0.018833 0.552673 0.114352
O13   O     O_R   0.762560 0.961158 0.553790 -0.387087
O14   O     O_R   0.674706 0.116455 0.595146 -0.348205
N4    N     N_R   0.334422 0.981277 0.447286 0.114359
O15   O     O_R   0.237561 0.039301 0.445019 -0.387021
O16   O     O_R   0.324472 0.883206 0.406019 -0.348109

loop_
_geom_bond_atom_site_label_1
_geom_bond_atom_site_label_2
_geom_bond_distance
_ccdc_geom_bond_type
Cu2   N2    1.992494 S    
C25   H12   1.111415 S    
O7    Cu2   1.965505 S    
C16   H3    1.086777 S    
Cu1   N1    1.992494 S    
C6    C9    1.553403 S    
C8    C10   1.537386 S    
C8    O10   1.410888 S    
C7    C12   1.531811 S    
C24   H9    1.111476 S    
N2    C21   1.171767 T    
C3    C10   1.451767 S    
C19   C20   1.383350 D    
O6    C4    1.277518 A    
C6    H2    1.109871 S    
C20   N3    1.445797 S    
C23   H7    1.109125 S    
C26   H14   1.111414 S    
C23   H6    1.112372 S    
C25   H11   1.112294 S    
N3    O13   1.301808 A    
C6    C12   1.545748 S    
C6    C8    1.546484 S    
O2    C2    1.282612 A    
Cu1   Cu2   2.651852 S    
C15   C18   1.431836 S    
O5    C3    1.277519 A    
O7    C3    1.277823 A    
N4    O15   1.302108 A    
O3    Cu2   1.921862 S    
O8    C4    1.277823 A    
O1    C1    1.282612 A    
C13   C18   1.200052 T    
C5    C11   1.545748 S    
C20   C21   1.485716 S    
C19   N4    1.446085 S    
C26   H15   1.112291 S    
C9    C11   1.538794 S    
O2    Cu2   1.919999 S    
C10   C12   1.538798 S    
N3    O14   1.301531 A    
C2    C13   1.424888 S    
C11   O11   1.411305 S    
O9    C23   1.408134 S    
C12   O12   1.411306 S    
C8    C11   1.531810 S    
C25   H13   1.109324 S    
C24   H8    1.112372 S    
O5    Cu1   1.959075 S    
C19   C22   1.485774 S    
O1    Cu1   1.920000 S    
O10   C24   1.408132 S    
C14   C17   1.200052 T    
O4    C2    1.285360 A    
O11   C25   1.408267 S    
C7    O9    1.410889 S    
C26   H16   1.109325 S    
C15   C16   1.332193 D    
C5    C7    1.546483 S    
C23   H5    1.111477 S    
O12   C26   1.408270 S    
C16   C17   1.431836 S    
N1    C22   1.171763 T    
N4    O16   1.301584 A    
O6    Cu2   1.959074 S    
O3    C1    1.285361 A    
C15   H4    1.086777 S    
C5    H1    1.109871 S    
C4    C9    1.451765 S    
C5    C10   1.553404 S    
C7    C9    1.537384 S    
C1    C14   1.424888 S    
O4    Cu1   1.921861 S    
C24   H10   1.109127 S    
O8    Cu1   1.965504 S    
