data_mof_unit_52495.cif
_audit_creation_date              2012-12-10T20:38:17-0500
_audit_creation_method            fapswitch 2.2
_symmetry_space_group_name_H-M    P1
_symmetry_Int_Tables_number       1
_space_group_crystal_system       triclinic
_cell_length_a                    9.873619
_cell_length_b                    10.755815
_cell_length_c                    16.644687
_cell_angle_alpha                 90.005452
_cell_angle_beta                  85.459083
_cell_angle_gamma                 89.382275
_cell_volume                      1761.99434563

loop_
_atom_site_label
_atom_site_type_symbol
_atom_type_description
_atom_site_fract_x
_atom_site_fract_y
_atom_site_fract_z
_atom_type_partial_charge
C1    C     C_R   0.499042 0.739681 0.503015 0.920741
C2    C     C_R   0.345457 0.438340 0.779219 -0.201086
C3    C     C_R   0.432942 0.327365 0.160550 -0.164328
C4    C     C_R   0.421150 0.380697 0.236471 -0.210646
C5    C     C_R   0.651722 0.457189 0.215613 -0.211437
C6    C     C_R   0.662720 0.405213 0.138739 -0.172227
C7    C     C_R   0.551748 0.343771 0.110118 0.205784
C8    C     C_2   0.446261 0.355690 0.984529 -0.229613
C9    C     C_2   0.553100 0.318933 0.023839 -0.243560
C10   C     C_R   0.529274 0.448263 0.263874 -0.026256
C11   C     C_R   0.383842 0.937335 0.486641 0.038975
C12   C     C_R   0.481401 0.497031 0.653560 0.876290
C13   C     C_R   0.498448 0.871578 0.506488 -0.108060
C14   C     C_R   0.613175 0.933559 0.529165 -0.297993
C15   C     C_R   0.614237 0.062281 0.530167 0.451585
C16   C     C_R   0.502959 0.127560 0.502137 -0.171811
C17   C     C_R   0.389004 0.064800 0.479598 -0.014240
C18   C     C_3   0.249027 0.081695 0.518729 -0.521629
C19   C     C_3   0.247810 0.943129 0.534254 0.340874
C20   C     C_R   0.919628 0.522547 0.569232 0.211333
C21   C     C_R   0.937346 0.466871 0.433121 -0.144804
C22   C     C_R   0.081195 0.467349 0.433022 -0.141475
C23   C     C_R   0.500597 0.260069 0.501802 0.922140
C24   C     C_R   0.061853 0.519526 0.569647 0.202617
C25   C     C_3   0.061860 0.631618 0.621355 -0.497329
C26   C     C_3   0.908436 0.637509 0.619318 -0.521322
C27   C     C_R   0.518566 0.492498 0.346811 0.850214
C28   C     C_R   0.470676 0.471806 0.739795 -0.028088
C29   C     C_R   0.588629 0.466896 0.781192 -0.194893
C30   C     C_R   0.582438 0.426418 0.860315 -0.143211
C31   C     C_R   0.458036 0.388630 0.899021 0.208201
C32   C     C_R   0.339361 0.397179 0.858539 -0.179885
H1    H     H_    0.686284 0.492583 0.752210 0.144920
H2    H     H_    0.754997 0.418620 0.100123 0.121649
H3    H     H_    0.697171 0.882516 0.551960 0.160093
H4    H     H_    0.247001 0.141028 0.573432 0.217685
H5    H     H_    0.176971 0.111009 0.474136 0.159447
H6    H     H_    0.167661 0.891207 0.505369 0.052514
H7    H     H_    0.890950 0.441797 0.378782 0.144814
H8    H     H_    0.142429 0.442913 0.378528 0.143717
H9    H     H_    0.095332 0.608880 0.681824 0.194743
H10   H     H_    0.327826 0.367376 0.274057 0.145025
H11   H     H_    0.115940 0.708942 0.589432 0.236972
H12   H     H_    0.853787 0.621758 0.679266 0.198374
H13   H     H_    0.872344 0.719236 0.585802 0.204368
H14   H     H_    0.737644 0.505716 0.236808 0.143957
H15   H     H_    0.649843 0.296009 0.991443 0.146114
H16   H     H_    0.242063 0.371616 0.888304 0.123134
H17   H     H_    0.347461 0.277307 0.140104 0.126961
H18   H     H_    0.252973 0.440756 0.748309 0.148585
H19   H     H_    0.350184 0.379135 0.017757 0.148245
H20   H     H_    0.674900 0.427893 0.890991 0.120009
N1    N     N_R   0.857140 0.500860 0.500530 -0.102493
N2    N     N_R   0.142780 0.500820 0.500530 -0.105828
O1    O     O_R   0.385310 0.683210 0.499990 -0.607575
O2    O     O_R   0.614650 0.683240 0.500000 -0.627144
O3    O     O_R   0.371780 0.500000 0.615800 -0.619720
O4    O     O_R   0.601120 0.500040 0.615800 -0.614714
O5    O     O_R   0.385350 0.316760 0.500000 -0.624200
O6    O     O_R   0.614690 0.316790 0.500010 -0.592990
O7    O     O_R   0.398880 0.499960 0.384200 -0.625940
O8    O     O_R   0.628220 0.500000 0.384200 -0.626041
Zn1   Zn    Zn3+2 0.346870 0.499980 0.499990 0.943597
Zn2   Zn    Zn3+2 0.653130 0.500020 0.500010 0.950221
O9    O     O_3   0.702134 0.122154 0.577410 -0.589542
C33   C     C_3   0.833476 0.125298 0.537998 0.121712
H21   H     H_    0.832109 0.168270 0.477130 0.143289
H22   H     H_    0.879506 0.030469 0.532335 0.106301
C34   C     C_3   0.919947 0.204840 0.588808 -0.820577
H23   H     H_    0.941810 0.154054 0.644290 0.227099
H24   H     H_    0.015942 0.230586 0.554244 0.198014
H25   H     H_    0.863253 0.290815 0.607467 0.273577
O10   O     O_3   0.262526 0.911787 0.615940 -0.579545
C35   C     C_3   0.142701 0.940651 0.664785 0.106460
H26   H     H_    0.050508 0.903340 0.639292 0.129723
H27   H     H_    0.130800 0.042569 0.672509 0.142795
C36   C     C_3   0.153984 0.886273 0.748399 -0.807489
H28   H     H_    0.237466 0.932136 0.777748 0.256300
H29   H     H_    0.057228 0.901735 0.785957 0.204788
H30   H     H_    0.176134 0.785129 0.744529 0.253729

loop_
_geom_bond_atom_site_label_1
_geom_bond_atom_site_label_2
_ccdc_geom_bond_type
C10   C27   S    
C33   H22   S    
O10   C35   S    
C25   H11   S    
C3    H17   S    
C26   H12   S    
C22   N2    A    
C36   H28   S    
C23   O5    A    
C11   C19   S    
C35   H27   S    
C12   C28   S    
C28   C29   A    
C27   O8    A    
C1    O2    A    
C3    C7    A    
C5    C6    A    
N1    Zn2   S    
C33   C34   S    
N2    Zn1   S    
C24   N2    A    
C15   C16   A    
C15   O9    S    
C29   H1    S    
C2    C32   A    
C18   C19   S    
C34   H24   S    
O8    Zn2   S    
C27   O7    A    
C26   H13   S    
C20   C24   A    
C8    C9    D    
C35   C36   S    
O1    Zn1   S    
O2    Zn2   S    
C2    H18   S    
C12   O4    A    
C33   H21   S    
C21   C22   A    
C32   H16   S    
O3    Zn1   S    
C36   H29   S    
O4    Zn2   S    
C23   O6    A    
C35   H26   S    
C19   O10   S    
C24   C25   S    
C25   H9    S    
C14   H3    S    
C16   C17   A    
C25   C26   S    
C6    H2    S    
C34   H25   S    
C29   C30   A    
C19   H6    S    
C31   C32   A    
C21   H7    S    
C22   H8    S    
O7    Zn1   S    
C17   C18   S    
C8    H19   S    
C12   O3    A    
C9    H15   S    
C16   C23   S    
C1    C13   S    
C4    C10   A    
C3    C4    A    
C36   H30   S    
C7    C9    S    
C30   H20   S    
C11   C17   A    
C8    C31   S    
C18   H5    S    
C20   N1    A    
C20   C26   S    
C6    C7    A    
C5    H14   S    
O5    Zn1   S    
O6    Zn2   S    
C1    O1    A    
C5    C10   A    
C21   N1    A    
C11   C13   A    
C30   C31   A    
C4    H10   S    
C34   H23   S    
O9    C33   S    
C14   C15   A    
C2    C28   A    
C13   C14   A    
C18   H4    S    
