data_mof_unit_7753.cif
_audit_creation_date              2012-12-11T16:44:21-0500
_audit_creation_method            fapswitch 2.2
_symmetry_space_group_name_H-M    P1
_symmetry_Int_Tables_number       1
_space_group_crystal_system       triclinic
_cell_length_a                    27.297272
_cell_length_b                    7.198862
_cell_length_c                    22.699102
_cell_angle_alpha                 90.011931
_cell_angle_beta                  101.562277
_cell_angle_gamma                 90.015629
_cell_volume                      4370.06744552

loop_
_atom_site_label
_atom_site_type_symbol
_atom_type_description
_atom_site_fract_x
_atom_site_fract_y
_atom_site_fract_z
_atom_type_partial_charge
O1    O     O_R   0.707300 0.594030 0.176840 -0.531975
O2    O     O_R   0.292700 0.405970 0.823160 -0.531976
O3    O     O_R   0.792700 0.094030 0.323160 -0.531931
O4    O     O_R   0.207300 0.905970 0.676840 -0.531946
O5    O     O_R   0.697330 0.262360 0.295660 -0.540657
O6    O     O_R   0.302670 0.737640 0.704340 -0.540653
O7    O     O_R   0.802670 0.762360 0.204340 -0.540664
O8    O     O_R   0.197330 0.237640 0.795660 -0.540662
C1    C     C_R   0.684640 0.432530 0.311554 0.672601
C2    C     C_R   0.315360 0.567470 0.688447 0.672597
C3    C     C_R   0.815356 0.932542 0.188441 0.672532
C4    C     C_R   0.184643 0.067458 0.811557 0.672534
O9    O     O_R   0.701410 0.264250 0.175600 -0.533953
O10   O     O_R   0.298590 0.735750 0.824400 -0.533951
O11   O     O_R   0.798590 0.764250 0.324400 -0.533926
O12   O     O_R   0.201410 0.235750 0.675600 -0.533921
O13   O     O_R   0.796800 0.094950 0.202240 -0.538433
O14   O     O_R   0.203200 0.905050 0.797760 -0.538434
O15   O     O_R   0.703200 0.594950 0.297760 -0.538424
O16   O     O_R   0.296800 0.405050 0.702240 -0.538429
C5    C     C_R   0.689831 0.432534 0.153270 0.683188
C6    C     C_R   0.310168 0.567468 0.846730 0.683194
C7    C     C_R   0.810166 0.932612 0.346727 0.683226
C8    C     C_R   0.189835 0.067392 0.653273 0.683231
O17   O     O_3   0.781290 0.427390 0.258880 -0.372469
O18   O     O_3   0.218710 0.572610 0.741120 -0.372472
O19   O     O_3   0.718710 0.927390 0.241120 -0.372513
O20   O     O_3   0.281290 0.072610 0.758880 -0.372511
V1    V     V_3+5 0.744190 0.152150 0.248350 1.405492
V2    V     V_3+5 0.255810 0.847850 0.751650 1.405480
V3    V     V_3+5 0.755810 0.652150 0.251650 1.405439
V4    V     V_3+5 0.244190 0.347850 0.748350 1.405430
C9    C     C_R   0.154918 0.061291 0.594526 -0.037422
C10   C     C_R   0.845090 0.938782 0.405469 -0.037399
C11   C     C_R   0.345096 0.561717 0.905476 -0.037655
C12   C     C_R   0.654903 0.438297 0.094525 -0.037651
C13   C     C_R   0.140164 0.103084 0.487034 -0.171885
C14   C     C_R   0.859825 0.897869 0.512993 -0.171852
C15   C     C_R   0.360047 0.607383 0.012817 -0.171958
C16   C     C_R   0.639954 0.392757 0.987178 -0.171953
C17   C     C_R   0.172547 0.102461 0.542721 -0.160818
C18   C     C_R   0.827444 0.898205 0.457305 -0.160878
C19   C     C_R   0.327602 0.605386 0.957183 -0.160721
C20   C     C_R   0.672399 0.394712 0.042813 -0.160728
C21   C     C_R   0.103940 0.023478 0.590423 -0.201221
C22   C     C_R   0.896078 0.976325 0.409545 -0.201076
C23   C     C_R   0.396003 0.522581 0.909626 -0.201205
C24   C     C_R   0.603994 0.477407 0.090379 -0.201187
C25   C     C_R   0.069155 0.029081 0.534145 0.077456
C26   C     C_R   0.930850 0.971321 0.465842 0.077441
C27   C     C_R   0.430857 0.529258 0.965848 0.077374
C28   C     C_R   0.569143 0.470815 0.034153 0.077372
C29   C     C_R   0.088441 0.066435 0.481365 0.093576
C30   C     C_R   0.911553 0.934393 0.518644 0.093558
C31   C     C_R   0.411711 0.569627 0.018526 0.093577
C32   C     C_R   0.588290 0.430499 0.981472 0.093574
C33   C     C_R   0.016250 0.999215 0.528825 0.020276
C34   C     C_R   0.983750 0.001371 0.471164 0.020277
C35   C     C_R   0.483702 0.497844 0.971206 0.020261
C36   C     C_R   0.516298 0.502258 0.028795 0.020260
C37   C     C_R   0.004990 0.031808 0.420241 -0.187146
C38   C     C_R   0.994997 0.969275 0.579763 -0.187147
C39   C     C_R   0.495202 0.536221 0.079625 -0.187126
C40   C     C_R   0.504800 0.463944 0.920374 -0.187127
C41   C     C_R   0.056151 0.066254 0.424004 0.060745
C42   C     C_R   0.943832 0.934965 0.576013 0.060766
C43   C     C_R   0.444085 0.571540 0.075826 0.060730
C44   C     C_R   0.555916 0.428634 0.924171 0.060732
H1    H     H_    0.906793 0.007589 0.367558 0.087981
H2    H     H_    0.093239 0.991443 0.632367 0.088108
H3    H     H_    0.593387 0.510706 0.132281 0.088184
H4    H     H_    0.406608 0.489182 0.867730 0.088201
H5    H     H_    0.156571 0.134128 0.448631 0.110361
H6    H     H_    0.843409 0.867219 0.551418 0.110358
H7    H     H_    0.343742 0.640557 0.051139 0.110380
H8    H     H_    0.656260 0.359637 0.948853 0.110379
H9    H     H_    0.981913 0.028126 0.376416 0.118480
H10   H     H_    0.018061 0.973568 0.623593 0.118464
H11   H     H_    0.518359 0.534722 0.123413 0.118472
H12   H     H_    0.481645 0.465527 0.876585 0.118470
C45   C     C_R   0.873641 0.117489 0.137984 -0.163111
C46   C     C_R   0.126354 0.882505 0.862006 -0.163112
C47   C     C_R   0.626164 0.617354 0.361739 -0.163169
C48   C     C_R   0.373839 0.382645 0.638267 -0.163176
C49   C     C_R   0.909415 0.130228 0.101829 -0.152627
C50   C     C_R   0.090574 0.869761 0.898154 -0.152615
C51   C     C_R   0.590386 0.630092 0.397888 -0.152730
C52   C     C_R   0.409620 0.369906 0.602120 -0.152731
C53   C     C_R   0.927093 0.970000 0.077451 0.094220
C54   C     C_R   0.072890 0.029987 0.922526 0.094180
C55   C     C_R   0.572893 0.469959 0.422527 0.094472
C56   C     C_R   0.427111 0.530038 0.577480 0.094466
C57   C     C_R   0.908475 0.796072 0.091046 -0.144711
C58   C     C_R   0.091508 0.203918 0.908933 -0.144709
C59   C     C_R   0.591697 0.296105 0.409187 -0.144683
C60   C     C_R   0.408305 0.703891 0.590815 -0.144681
H13   H     H_    0.920810 0.669779 0.072572 0.100231
H14   H     H_    0.079169 0.330210 0.927402 0.100238
H15   H     H_    0.579512 0.169893 0.427864 0.100140
H16   H     H_    0.420489 0.830101 0.572137 0.100142
C61   C     C_R   0.872691 0.783136 0.127418 -0.162377
C62   C     C_R   0.127297 0.216858 0.872567 -0.162379
C63   C     C_R   0.627477 0.283167 0.372812 -0.162338
C64   C     C_R   0.372523 0.716830 0.627189 -0.162333
H17   H     H_    0.858867 0.647059 0.136266 0.120176
H18   H     H_    0.141121 0.352937 0.863721 0.120176
H19   H     H_    0.641451 0.147167 0.364168 0.120143
H20   H     H_    0.358548 0.852829 0.635830 0.120146
C65   C     C_R   0.854482 0.943904 0.151092 -0.050093
C66   C     C_R   0.145512 0.056092 0.848900 -0.050096
C67   C     C_R   0.645507 0.443860 0.348890 -0.050039
C68   C     C_R   0.354495 0.556138 0.651112 -0.050043
C69   C     C_R   0.002972 0.853456 0.040953 -0.154950
C70   C     C_R   0.997008 0.146522 0.959019 -0.154992
C71   C     C_R   0.497198 0.352737 0.459308 -0.154684
C72   C     C_R   0.502807 0.647257 0.540699 -0.154688
C73   C     C_R   0.038023 0.868238 0.003781 -0.152474
C74   C     C_R   0.961957 0.131741 0.996191 -0.152483
C75   C     C_R   0.462151 0.367540 0.496485 -0.152729
C76   C     C_R   0.537854 0.632454 0.503523 -0.152730
C77   C     C_R   0.035534 0.014936 0.962257 0.080827
C78   C     C_R   0.964447 0.985044 0.037716 0.080832
C79   C     C_R   0.464463 0.514964 0.537739 0.080914
C80   C     C_R   0.535542 0.485030 0.462268 0.080915
C81   C     C_3   0.077123 0.102181 0.367166 -0.362535
C82   C     C_3   0.039759 0.096321 0.306550 -0.315640
C83   C     C_3   0.065750 0.134161 0.254144 -0.760801
H21   H     H_    0.083253 0.274122 0.258687 0.226668
H22   H     H_    0.094945 0.027729 0.252700 0.227070
H23   H     H_    0.037886 0.128692 0.211173 0.223227
H24   H     H_    0.022026 0.956808 0.299800 0.196609
H25   H     H_    0.010394 0.203753 0.305888 0.196181
H26   H     H_    0.094873 0.241904 0.371372 0.176262
H27   H     H_    0.106454 0.996402 0.365267 0.174758
C84   C     C_3   0.922846 0.899615 0.632875 -0.362545
C85   C     C_3   0.960205 0.905838 0.693492 -0.315633
C86   C     C_3   0.934207 0.868426 0.745920 -0.760787
H28   H     H_    0.905017 0.974938 0.747285 0.227048
H29   H     H_    0.916697 0.728475 0.741472 0.226669
H30   H     H_    0.962069 0.874131 0.788889 0.223268
H31   H     H_    0.989570 0.798358 0.694235 0.196191
H32   H     H_    0.977939 0.045366 0.700144 0.196588
H33   H     H_    0.893528 0.005522 0.634681 0.174753
H34   H     H_    0.905078 0.759925 0.628781 0.176255
C87   C     C_3   0.423259 0.610828 0.132565 -0.362517
C88   C     C_3   0.460698 0.607016 0.193139 -0.315662
C89   C     C_3   0.434830 0.647830 0.245450 -0.760813
H35   H     H_    0.417439 0.787915 0.240329 0.226650
H36   H     H_    0.405563 0.542065 0.247425 0.227195
H37   H     H_    0.462747 0.643811 0.288394 0.223007
H38   H     H_    0.478319 0.467469 0.200458 0.196702
H39   H     H_    0.490142 0.713871 0.193271 0.196125
H40   H     H_    0.405664 0.750768 0.127758 0.176357
H41   H     H_    0.393828 0.505884 0.135017 0.174720
C90   C     C_3   0.576743 0.389401 0.867429 -0.362519
C91   C     C_3   0.539303 0.393245 0.806855 -0.315658
C92   C     C_3   0.565168 0.352460 0.754541 -0.760812
H42   H     H_    0.594431 0.458241 0.752565 0.227193
H43   H     H_    0.582563 0.212381 0.759656 0.226650
H44   H     H_    0.537249 0.356478 0.711598 0.223011
H45   H     H_    0.509858 0.286389 0.806719 0.196127
H46   H     H_    0.521683 0.532795 0.799544 0.196698
H47   H     H_    0.606173 0.494358 0.864984 0.174718
H48   H     H_    0.594340 0.249464 0.872224 0.176357
H49   H     H_    0.006596 0.740468 0.073007 0.109332
H50   H     H_    0.993383 0.259510 0.926965 0.109335
H51   H     H_    0.493707 0.239154 0.427466 0.109251
H52   H     H_    0.506298 0.760840 0.572542 0.109252
H53   H     H_    0.067639 0.766070 0.008315 0.107971
H54   H     H_    0.932341 0.233910 0.991658 0.107973
H55   H     H_    0.432675 0.264795 0.492161 0.107910
H56   H     H_    0.567330 0.735199 0.507847 0.107909
H57   H     H_    0.788201 0.867404 0.454704 0.104846
H58   H     H_    0.211781 0.133490 0.545343 0.104867
H59   H     H_    0.711570 0.362577 0.045476 0.104994
H60   H     H_    0.288432 0.637549 0.954517 0.104998
H61   H     H_    0.861068 0.244690 0.155661 0.125278
H62   H     H_    0.138930 0.755304 0.844332 0.125279
H63   H     H_    0.638591 0.744476 0.343854 0.125295
H64   H     H_    0.361414 0.255525 0.656154 0.125297
H65   H     H_    0.923552 0.266149 0.093383 0.101441
H66   H     H_    0.076438 0.733838 0.906598 0.101454
H67   H     H_    0.576100 0.765931 0.406123 0.101372
H68   H     H_    0.423907 0.234068 0.593888 0.101376

loop_
_geom_bond_atom_site_label_1
_geom_bond_atom_site_label_2
_ccdc_geom_bond_type
C81   H27   S    
O17   V3    S    
C47   C51   A    
C17   H58   S    
O1    C5    A    
C82   C83   S    
C72   C79   A    
C51   C55   A    
C3    C65   S    
C9    C21   A    
O3    C7    A    
C1    C67   S    
C10   C18   A    
C20   H59   S    
C56   C60   A    
C44   C90   S    
C11   C23   A    
C4    C66   S    
C87   C88   S    
C25   C33   A    
C33   C38   A    
C5    C12   S    
C39   H11   S    
O7    C3    A    
C6    C11   S    
C86   H29   S    
C35   C40   A    
C48   C68   A    
C45   H61   S    
C36   C39   A    
C46   C66   A    
O9    V1    S    
C91   C92   S    
C89   H36   S    
C14   C18   A    
C51   H67   S    
O4    C8    A    
C59   H15   S    
C42   C84   S    
C52   H68   S    
O19   V1    S    
C53   C78   S    
C74   H54   S    
C61   C65   A    
O1    V3    S    
O13   V1    S    
O2    V4    S    
C74   C78   A    
C48   H64   S    
C73   C77   A    
C22   H1    S    
C85   H32   S    
C28   C36   A    
C89   H35   S    
C70   C77   A    
C76   C80   A    
C1    O15   A    
C92   H42   S    
C15   C31   A    
C69   C78   A    
C52   C56   A    
C2    O16   A    
C16   C32   A    
C43   C87   S    
C70   H50   S    
C10   C22   A    
C15   H7    S    
C11   C19   A    
C16   C20   A    
C27   C31   A    
C13   C29   A    
C34   C37   A    
C84   H33   S    
O15   V3    S    
C35   C36   A    
O12   C8    A    
C53   C57   A    
C40   H12   S    
O10   V2    S    
C59   C63   A    
C54   C58   A    
O5    V1    S    
C61   H17   S    
C86   H30   S    
C39   C43   A    
O7    V3    S    
C38   C42   A    
C26   C34   A    
C84   C85   S    
C89   H37   S    
C50   C54   A    
C56   C79   S    
C57   C61   A    
C64   C68   A    
C49   C53   A    
O18   V4    S    
C76   H56   S    
C23   C27   A    
C90   H47   S    
C46   C50   A    
C55   C59   A    
C72   C76   A    
C41   C81   S    
C83   H22   S    
O5    C1    A    
C85   H31   S    
C37   C41   A    
C19   H60   S    
C57   H13   S    
C31   C43   A    
C14   C30   A    
C21   C25   A    
O8    C4    A    
C7    C10   S    
C46   H62   S    
O9    C5    A    
C26   C30   A    
C2    C68   S    
C70   C74   A    
C69   C73   A    
C87   H41   S    
C84   H34   S    
O6    V2    S    
C45   C65   A    
C91   H45   S    
C92   H44   S    
C71   C75   A    
C55   C80   S    
C60   C64   A    
C81   C82   S    
C54   C77   S    
C88   H39   S    
C12   C20   A    
C27   C35   A    
C24   H3    S    
C71   H51   S    
C83   H21   S    
C40   C44   A    
C64   H20   S    
C29   C41   A    
C88   C89   S    
O16   V4    S    
C81   H26   S    
C37   H9    S    
C13   H5    S    
C3    O13   A    
C49   H65   S    
C71   C80   A    
C21   H2    S    
C38   H10   S    
C48   C52   A    
C85   C86   S    
C18   H57   S    
O6    C2    A    
C15   C19   A    
O11   V3    S    
C30   C42   A    
C63   C67   A    
C75   C79   A    
C90   H48   S    
O12   V4    S    
C86   H28   S    
C22   C26   A    
C8    C9    S    
C47   H63   S    
C9    C17   A    
O10   C6    A    
O20   V2    S    
C83   H23   S    
C87   H40   S    
C32   C44   A    
O2    C6    A    
C69   H49   S    
O3    V1    S    
C33   C34   A    
O8    V4    S    
C82   H24   S    
C25   C29   A    
C60   H16   S    
O11   C7    A    
C14   H6    S    
C16   H8    S    
C12   C24   A    
C47   C67   A    
C13   C17   A    
C45   C49   A    
C23   H4    S    
C62   C66   A    
C82   H25   S    
O14   V2    S    
C91   H46   S    
C88   H38   S    
C73   H53   S    
C24   C28   A    
C58   C62   A    
C92   H43   S    
C62   H18   S    
C4    O14   A    
C90   C91   S    
C50   H66   S    
C58   H14   S    
C72   H52   S    
C63   H19   S    
O4    V2    S    
C28   C32   A    
C75   H55   S    
