data_mof_unit_47845.cif
_audit_creation_date              2012-12-10T17:18:54-0500
_audit_creation_method            fapswitch 2.2
_symmetry_space_group_name_H-M    P1
_symmetry_Int_Tables_number       1
_space_group_crystal_system       triclinic
_cell_length_a                    10.193436
_cell_length_b                    10.631999
_cell_length_c                    13.4288
_cell_angle_alpha                 92.192602
_cell_angle_beta                  99.260855
_cell_angle_gamma                 96.473622
_cell_volume                      1424.8770718

loop_
_atom_site_label
_atom_site_type_symbol
_atom_type_description
_atom_site_fract_x
_atom_site_fract_y
_atom_site_fract_z
_atom_type_partial_charge
C1    C     C_R   0.052398 0.733476 0.489946 0.899956
C2    C     C_2   0.979600 0.062601 0.437273 -0.210303
C3    C     C_2   0.430855 0.512368 0.508418 -0.102234
C4    C     C_2   0.569126 0.487870 0.491346 -0.120123
C5    C     C_R   0.092594 0.514296 0.686957 0.897260
C6    C     C_R   0.906895 0.482965 0.313481 0.891641
C7    C     C_R   0.139043 0.519817 0.796620 -0.122816
C8    C     C_R   0.855699 0.457837 0.205650 -0.109962
C9    C     C_R   0.129462 0.579454 0.971064 -0.180912
C10   C     C_R   0.840197 0.342151 0.044618 -0.178715
C11   C     C_R   0.069139 0.567797 0.869631 0.169850
C12   C     C_R   0.944390 0.265741 0.502291 0.909900
C13   C     C_R   0.909953 0.376546 0.141699 0.156852
C14   C     C_R   0.262394 0.477041 0.827999 -0.271315
C15   C     C_R   0.735625 0.503772 0.170444 -0.261922
C16   C     C_R   0.322294 0.484667 0.929245 0.086985
C17   C     C_R   0.655501 0.454493 0.080359 0.086013
C18   C     C_R   0.257755 0.543388 0.001376 0.078481
C19   C     C_R   0.711677 0.377408 0.013726 0.077246
C20   C     C_R   0.449811 0.443687 0.958316 0.047013
C21   C     C_R   0.520955 0.479981 0.055925 0.044970
C22   C     C_3   0.670368 0.070205 0.487430 -0.714003
C23   C     C_R   0.453955 0.536481 0.127366 -0.234630
C24   C     C_3   0.274022 0.940670 0.595406 -0.746142
C25   C     C_R   0.507799 0.366916 0.892914 -0.231225
C26   C     C_R   0.324454 0.567318 0.101229 0.165505
C27   C     C_R   0.636406 0.334259 0.919522 0.166632
C28   C     C_2   0.078402 0.866799 0.470675 0.073621
C29   C     C_2   0.906796 0.129317 0.490499 0.038510
C30   C     C_2   0.971175 0.926198 0.437145 -0.238221
H1    H     H_    0.704059 0.575603 0.217126 0.164986
H2    H     H_    0.421755 0.588067 0.562504 0.167112
H3    H     H_    0.664903 0.624713 0.589927 0.186556
H4    H     H_    0.335087 0.375227 0.410120 0.184113
H5    H     H_    0.822750 0.984881 0.569971 0.251876
H6    H     H_    0.597953 0.028723 0.534255 0.241604
H7    H     H_    0.656891 0.011937 0.415200 0.233581
H8    H     H_    0.648485 0.168123 0.471531 0.250097
H9    H     H_    0.230715 0.010705 0.452776 0.244601
H10   H     H_    0.378905 0.986105 0.602681 0.242409
H11   H     H_    0.275741 0.845692 0.626985 0.240679
H12   H     H_    0.315243 0.444562 0.770743 0.174401
H13   H     H_    0.218234 0.000220 0.639486 0.245745
H14   H     H_    0.075903 0.619832 0.025189 0.194659
H15   H     H_    0.884410 0.281465 0.996371 0.199092
H16   H     H_    0.498233 0.554693 0.205753 0.165464
H17   H     H_    0.453257 0.325478 0.821621 0.165888
H18   H     H_    0.055080 0.110525 0.398693 0.185609
H19   H     H_    0.870939 0.874747 0.422103 0.179448
H20   H     H_    0.578199 0.412358 0.437090 0.159205
I1    I     I_    0.244072 0.661165 0.216653 -0.352500
I2    I     I_    0.707990 0.220217 0.810704 -0.357843
I3    I     I_    0.087016 0.289560 0.184969 -0.366435
I4    I     I_    0.878076 0.633727 0.837295 -0.334253
N1    N     N_2   0.322180 0.446120 0.460900 -0.170617
N2    N     N_2   0.677820 0.553880 0.539100 -0.172319
N3    N     N_2   0.805184 0.071228 0.541457 -0.284687
N4    N     N_2   0.212459 0.929394 0.490113 -0.290340
O1    O     O_R   0.935190 0.693030 0.507870 -0.627087
O2    O     O_R   0.064810 0.306970 0.492130 -0.622517
O3    O     O_R   0.142080 0.658430 0.482770 -0.572356
O4    O     O_R   0.857920 0.341570 0.517230 -0.582991
O5    O     O_R   0.969700 0.527180 0.651960 -0.560219
O6    O     O_R   0.030300 0.472820 0.348040 -0.559164
O7    O     O_R   0.176600 0.492580 0.626860 -0.621486
O8    O     O_R   0.823400 0.507420 0.373140 -0.625396
Zn1   Zn    Zn3+2 0.861850 0.523100 0.516760 0.974912
Zn2   Zn    Zn3+2 0.138150 0.476900 0.483240 0.980260

loop_
_geom_bond_atom_site_label_1
_geom_bond_atom_site_label_2
_ccdc_geom_bond_type
C1    C28   S    
O5    Zn1   S    
C15   H1    S    
C8    C13   A    
C28   N4    S    
C12   C29   S    
C25   C27   A    
N2    Zn1   S    
C12   O4    A    
C25   H17   S    
C18   C26   A    
H5    N3    S    
C10   C19   A    
C16   C20   A    
O7    Zn2   S    
C2    H18   S    
C20   C21   A    
C10   H15   S    
C28   C30   D    
N1    Zn2   S    
H4    N1    S    
C23   H16   S    
C26   I1    S    
C4    N2    D    
C7    C11   A    
C24   H11   S    
C9    C11   A    
O3    Zn2   S    
C5    O5    A    
C11   I4    S    
O4    Zn1   S    
H3    N2    S    
C2    C29   D    
C14   H12   S    
O6    Zn2   S    
C22   N3    S    
C5    O7    A    
C19   C27   A    
C17   C19   A    
C30   H19   S    
C29   N3    S    
O8    Zn1   S    
C8    C15   A    
C13   I3    S    
C1    O1    A    
C21   C23   A    
C3    H2    S    
C14   C16   A    
C20   C25   A    
C1    O3    A    
C3    C4    S    
C22   H8    S    
C24   N4    S    
C9    C18   A    
C6    O8    A    
C22   H6    S    
C27   I2    S    
O2    Zn2   S    
C16   C18   A    
C23   C26   A    
C6    O6    A    
C5    C7    S    
C24   H13   S    
H9    N4    S    
C24   H10   S    
C2    C30   S    
C6    C8    S    
O1    Zn1   S    
C15   C17   A    
C22   H7    S    
C3    N1    D    
C7    C14   A    
C17   C21   A    
C4    H20   S    
C9    H14   S    
C10   C13   A    
C12   O2    A    
