data_mof_unit_48345.cif
_audit_creation_date              2012-10-26T19:18:48-0400
_audit_creation_method            fapswitch 2.2
_symmetry_space_group_name_H-M    P1
_symmetry_Int_Tables_number       1
_space_group_crystal_system       triclinic
_cell_length_a                    9.713204
_cell_length_b                    10.939986
_cell_length_c                    15.415779
_cell_angle_alpha                 88.989689
_cell_angle_beta                  74.516059
_cell_angle_gamma                 89.511563
_cell_volume                      1578.40365324

loop_
_atom_site_label
_atom_site_type_symbol
_atom_type_description
_atom_site_fract_x
_atom_site_fract_y
_atom_site_fract_z
_atom_type_partial_charge
C1    C     C_R   0.001203 0.265807 0.497124 0.647706
C2    C     C_R   0.232816 0.556302 0.041611 0.001416
C3    C     C_R   0.324722 0.508475 0.091266 0.025820
C4    C     C_R   0.917773 0.500826 0.672749 0.544940
C5    C     C_R   0.090473 0.584556 0.084323 -0.115295
C6    C     C_R   0.035659 0.569510 0.177304 0.248038
C7    C     C_R   0.265876 0.485175 0.183809 -0.149972
C8    C     C_2   0.884788 0.936392 0.511661 0.231679
C9    C     C_2   0.993273 0.864487 0.518806 -0.008337
C10   C     C_2   0.893932 0.067264 0.529771 0.156655
C11   C     C_2   0.004281 0.135740 0.481397 0.266983
C12   C     C_R   0.671062 0.495182 0.908590 0.024283
C13   C     C_2   0.405521 0.428522 0.551361 0.289112
C14   C     C_2   0.550752 0.453130 0.563808 -0.007503
C15   C     C_R   0.998092 0.734269 0.503588 0.584643
C16   C     C_R   0.081786 0.504904 0.327480 0.591472
C17   C     C_R   0.872854 0.497952 0.772635 0.004391
C18   C     C_R   0.124922 0.518062 0.228117 0.008629
C19   C     C_R   0.914167 0.455079 0.918673 -0.065149
C20   C     C_R   0.968666 0.478617 0.826735 0.248783
C21   C     C_R   0.726054 0.506846 0.814728 -0.153490
C22   C     C_R   0.767279 0.463103 0.959788 0.001127
C23   C     C_R   0.523306 0.512815 0.952629 0.050697
C24   C     C_R   0.472439 0.489001 0.047125 0.048438
C25   C     C_R   0.572169 0.451587 0.094687 -0.087270
C26   C     C_R   0.716611 0.440482 0.051822 -0.079309
C27   C     C_R   0.426061 0.558415 0.905909 -0.091974
C28   C     C_R   0.284157 0.579605 0.949757 -0.092105
Cu1   Cu    Cu3+1 0.138640 0.500020 0.499980 1.090338
Cu2   Cu    Cu3+1 0.861360 0.499980 0.500020 1.104042
H1    H     H_    0.789609 0.414324 0.091282 0.165876
H2    H     H_    0.655433 0.519282 0.772228 0.133982
H3    H     H_    0.543593 0.433536 0.166022 0.124600
H4    H     H_    0.456679 0.584115 0.835695 0.116050
H5    H     H_    0.701566 0.958708 0.486153 0.350482
H6    H     H_    0.720881 0.055753 0.628194 0.352027
H7    H     H_    0.274536 0.170668 0.266119 0.373298
H8    H     H_    0.443245 0.179497 0.486908 0.351413
H9    H     H_    0.654648 0.533978 0.278614 0.346819
H10   H     H_    0.139393 0.551438 0.752082 0.330429
H11   H     H_    0.023140 0.622856 0.044799 0.152984
H12   H     H_    0.082484 0.903319 0.538906 0.114548
H13   H     H_    0.400646 0.577726 0.476191 0.196184
H14   H     H_    0.575834 0.418160 0.624008 0.191304
H15   H     H_    0.629208 0.522422 0.441670 0.236626
H16   H     H_    0.328115 0.441991 0.223919 0.146725
H17   H     H_    0.214502 0.617452 0.911551 0.141755
H18   H     H_    0.987928 0.433459 0.958569 0.139097
N1    N     N_2   0.346430 0.498660 0.500980 -0.358559
N2    N     N_2   0.652550 0.498630 0.501000 -0.357946
O1    O     O_R   0.117050 0.321960 0.499980 -0.399497
O2    O     O_3   0.789717 0.120019 0.598538 -0.684237
O3    O     O_2   0.248689 0.012837 0.408123 -0.261857
O4    O     O_2   0.060800 0.004616 0.329225 -0.249183
O5    O     O_3   0.204697 0.205648 0.318929 -0.530642
O6    O     O_2   0.418273 0.235952 0.660897 -0.284206
O7    O     O_2   0.180487 0.299214 0.655999 -0.183536
O8    O     O_3   0.340326 0.186464 0.518345 -0.448695
O9    O     O_2   0.856949 0.708077 0.300918 -0.199190
O10   O     O_2   0.801480 0.688366 0.156125 -0.288305
O11   O     O_3   0.753449 0.501571 0.265786 -0.547001
O12   O     O_R   0.882890 0.321920 0.500020 -0.476107
O13   O     O_3   0.114796 0.479309 0.792837 -0.653538
O14   O     O_R   0.052910 0.500040 0.629810 -0.472560
O15   O     O_R   0.818750 0.499990 0.629840 -0.528566
O16   O     O_R   0.117110 0.678080 0.499980 -0.524600
O17   O     O_R   0.882950 0.678040 0.500020 -0.416835
O18   O     O_R   0.181250 0.500010 0.370160 -0.505853
O19   O     O_R   0.947090 0.499960 0.370190 -0.422443
O20   O     O_3   0.766304 0.889585 0.490414 -0.624887
S1    S     S_3+6 0.132010 0.084254 0.382815 0.026768
S2    S     S_3+6 0.332175 0.287020 0.600672 0.084003
S3    S     S_3+6 0.858689 0.622205 0.225571 0.024489

loop_
_geom_bond_atom_site_label_1
_geom_bond_atom_site_label_2
_ccdc_geom_bond_type
C23   C24   A    
C28   H17   S    
Cu1   Cu2   S    
C16   O18   A    
C13   S2    S    
C23   C27   A    
C17   C21   A    
Cu1   O18   S    
C4    O14   A    
C8    O20   S    
C19   C20   A    
H6    O2    S    
O9    S3    D    
C9    C15   S    
C7    C18   A    
C15   O17   A    
C1    O12   A    
C17   C20   A    
C20   O13   S    
C2    C3    A    
Cu2   N2    S    
Cu1   O14   S    
C10   O2    S    
C26   H1    S    
C27   H4    S    
Cu1   N1    S    
C13   C14   S    
C1    O1    A    
C12   C23   A    
O8    S2    S    
C9    H12   S    
C14   N2    D    
H10   O13   S    
H15   N2    S    
C13   N1    D    
C4    C17   S    
C14   H14   S    
C21   H2    S    
C3    C7    A    
Cu2   O12   S    
O7    S2    D    
Cu1   O1    S    
C5    C6    A    
H9    O11   S    
C6    C18   A    
C11   S1    S    
C2    C5    A    
C10   C11   D    
O4    S1    D    
H8    O8    S    
Cu1   O16   S    
Cu2   O15   S    
C7    H16   S    
C12   C22   A    
O10   S3    D    
Cu2   O19   S    
H7    O5    S    
C24   C25   A    
C6    S3    S    
C16   C18   S    
C19   C22   A    
C22   C26   A    
C25   H3    S    
C27   C28   A    
C5    H11   S    
C4    O15   A    
H13   N1    S    
C2    C28   A    
C1    C11   S    
O11   S3    S    
C25   C26   A    
C19   H18   S    
C15   O16   A    
C12   C21   A    
C8    C10   S    
O5    S1    S    
C16   O19   A    
Cu2   O17   S    
H5    O20   S    
C3    C24   A    
C8    C9    D    
O6    S2    D    
O3    S1    D    
