data_mof_unit_39516.cif
_audit_creation_date              2012-12-10T17:20:59-0500
_audit_creation_method            fapswitch 2.2
_symmetry_space_group_name_H-M    P1
_symmetry_Int_Tables_number       1
_space_group_crystal_system       triclinic
_cell_length_a                    18.291066
_cell_length_b                    25.991631
_cell_length_c                    18.238635
_cell_angle_alpha                 89.893639
_cell_angle_beta                  90.152368
_cell_angle_gamma                 90.592256
_cell_volume                      8670.40565838

loop_
_atom_site_label
_atom_site_type_symbol
_atom_type_description
_atom_site_fract_x
_atom_site_fract_y
_atom_site_fract_z
_atom_type_partial_charge
C1    C     C_R   0.389652 0.250487 0.139810 0.865110
C2    C     C_R   0.391668 0.134571 0.690005 -0.186725
C3    C     C_R   0.964271 0.379144 0.163222 -0.127102
C4    C     C_R   0.446428 0.629551 0.346818 -0.180963
C5    C     C_R   0.606679 0.368603 0.810119 -0.206654
C6    C     C_R   0.406348 0.168154 0.390167 -0.188690
C7    C     C_R   0.427639 0.649551 0.623345 -0.280281
C8    C     C_R   0.004458 0.159066 0.833496 -0.074701
C9    C     C_R   0.112031 0.829764 0.256073 -0.193684
C10   C     C_R   0.989933 0.671736 0.862248 -0.063998
C11   C     C_R   0.002465 0.334229 0.146835 -0.068997
C12   C     C_R   0.510053 0.657247 0.328319 -0.032205
C13   C     C_R   0.597159 0.331697 0.108433 -0.147743
C14   C     C_R   0.610073 0.331389 0.755155 -0.082858
C15   C     C_R   0.477044 0.185365 0.373323 -0.092747
C16   C     C_R   0.461972 0.697746 0.615019 -0.064223
C17   C     C_R   0.379418 0.049748 0.055894 -0.083486
C18   C     C_R   0.388999 0.954962 0.987412 -0.069886
C19   C     C_R   0.880639 0.548735 0.550410 -0.064109
C20   C     C_R   0.887533 0.454770 0.478995 -0.044580
C21   C     C_R   0.447084 0.026268 0.049071 -0.090992
C22   C     C_R   0.452210 0.979907 0.012008 -0.135376
C23   C     C_R   0.947937 0.525151 0.540729 -0.095979
C24   C     C_R   0.499694 0.891559 0.816417 -0.251227
C25   C     C_R   0.951657 0.479278 0.502119 -0.105031
C26   C     C_R   0.318678 0.975751 0.000372 0.102490
C27   C     C_R   0.315414 0.026708 0.026107 0.078619
C28   C     C_R   0.818019 0.475550 0.495318 0.094004
C29   C     C_R   0.815610 0.526252 0.522015 0.080751
C30   C     C_R   0.252100 0.948029 0.987745 -0.174826
C31   C     C_R   0.248524 0.053216 0.022121 -0.194452
C32   C     C_R   0.751371 0.447789 0.485233 -0.179926
C33   C     C_R   0.748615 0.552915 0.520143 -0.197325
C34   C     C_R   0.184703 0.974728 0.986787 0.064265
C35   C     C_R   0.055890 0.370255 0.650449 -0.210182
C36   C     C_R   0.182387 0.025194 0.014136 0.097068
C37   C     C_R   0.684000 0.474478 0.485299 0.081812
C38   C     C_R   0.682144 0.525058 0.512404 0.096497
C39   C     C_R   0.118909 0.952769 0.959149 -0.073282
C40   C     C_R   0.113625 0.045828 0.033157 -0.026120
C41   C     C_R   0.617908 0.452416 0.458576 -0.079596
C42   C     C_R   0.613450 0.545935 0.531401 -0.039944
C43   C     C_R   0.051692 0.975669 0.972551 -0.086415
C44   C     C_R   0.048892 0.020906 0.012823 -0.076739
C45   C     C_R   0.550906 0.475708 0.471654 -0.095415
C46   C     C_R   0.901829 0.627824 0.199143 -0.154825
C47   C     C_R   0.548515 0.521284 0.511131 -0.074354
C48   C     C_R   0.249544 0.109304 0.008709 0.836203
C49   C     C_R   0.250620 0.891217 0.993971 0.929463
C50   C     C_R   0.749574 0.609189 0.508202 0.847893
C51   C     C_R   0.750459 0.391098 0.493186 0.862556
C52   C     C_R   0.247295 0.391203 0.000144 0.907077
C53   C     C_R   0.247982 0.608799 0.999999 0.869908
C54   C     C_R   0.751602 0.891185 0.499830 0.876910
C55   C     C_R   0.753130 0.108825 0.499858 0.929115
C56   C     C_3   0.209430 0.470785 0.073138 -0.309579
C57   C     C_R   0.063853 0.864819 0.642510 -0.117661
C58   C     C_3   0.189438 0.529022 0.942431 -0.306933
C59   C     C_3   0.220857 0.530157 0.077698 -0.382114
C60   C     C_3   0.197541 0.469498 0.935162 -0.387630
C61   C     C_3   0.677751 0.970477 0.522796 -0.301782
C62   C     C_3   0.757247 0.029135 0.417389 -0.297256
C63   C     C_3   0.683051 0.029823 0.534752 -0.376907
C64   C     C_3   0.767374 0.969583 0.418523 -0.346560
C65   C     C_3   0.328721 0.470108 0.991973 0.597966
C66   C     C_3   0.327840 0.530917 0.982998 0.578067
C67   C     C_3   0.818868 0.969705 0.551664 0.577055
C68   C     C_R   0.043996 0.125783 0.344136 -0.118974
C69   C     C_3   0.825526 0.030568 0.544232 0.577732
C70   C     C_3   0.247492 0.448819 0.000424 -0.231877
C71   C     C_3   0.248181 0.551330 0.000018 -0.212076
C72   C     C_3   0.755061 0.948715 0.499617 -0.238345
C73   C     C_3   0.756718 0.051251 0.499674 -0.246699
C74   C     C_R   0.126617 0.307028 0.715247 -0.128350
C75   C     C_R   0.011579 0.666475 0.152320 -0.169928
C76   C     C_R   0.105733 0.829889 0.756797 -0.234761
C77   C     C_R   0.089624 0.162965 0.232478 -0.236009
C78   C     C_R   0.620829 0.814088 0.220579 -0.163079
C79   C     C_R   0.483102 0.845894 0.174614 0.369178
C80   C     C_R   0.504278 0.170724 0.645773 -0.164152
C81   C     C_R   0.637303 0.299612 0.225023 -0.231506
C82   C     C_R   0.586167 0.844600 0.743500 -0.212021
C83   C     C_R   0.123425 0.350745 0.670989 0.411509
C84   C     C_R   0.961005 0.626397 0.152203 0.398274
C85   C     C_R   0.109418 0.867771 0.703151 0.386784
C86   C     C_R   0.086398 0.122077 0.281572 0.415736
C87   C     C_R   0.613710 0.859503 0.180477 0.384217
C88   C     C_R   0.450122 0.132928 0.642309 0.429651
C89   C     C_R   0.651504 0.326613 0.160843 0.399519
C90   C     C_R   0.386898 0.173234 0.742600 0.309525
C91   C     C_R   0.569449 0.886918 0.787576 0.423130
C92   C     C_2   0.215241 0.442884 0.147186 1.052239
C93   C     C_2   0.172770 0.556256 0.869592 1.060045
C94   C     C_2   0.260263 0.548593 0.147361 1.065889
C95   C     C_2   0.213601 0.451022 0.857233 1.056890
C96   C     C_2   0.631853 0.940397 0.578002 0.977193
C97   C     C_2   0.799946 0.055457 0.355333 1.069045
C98   C     C_2   0.664902 0.048450 0.611936 1.075030
C99   C     C_2   0.835018 0.950290 0.377781 1.045106
C100  C     C_2   0.073233 0.129335 0.838698 0.991609
C101  C     C_R   0.528229 0.309277 0.118703 0.330631
C102  C     C_2   0.180715 0.831129 0.213323 0.949017
C103  C     C_2   0.026214 0.674279 0.934465 0.910158
C104  C     C_2   0.031126 0.331211 0.071142 0.913427
C105  C     C_2   0.580711 0.629869 0.332176 0.962394
C106  C     C_2   0.672993 0.337710 0.705646 0.918244
C107  C     C_2   0.537382 0.157553 0.408543 0.933813
C108  C     C_2   0.464269 0.721720 0.540802 1.007397
C109  C     C_R   0.389479 0.750277 0.859037 0.862837
C110  C     C_R   0.450154 0.850811 0.810618 0.359670
C111  C     C_R   0.991777 0.343213 0.667417 0.371796
C112  C     C_R   0.893285 0.668607 0.248004 0.307362
C113  C     C_R   0.012442 0.825010 0.635881 0.344509
C114  C     C_R   0.001499 0.169197 0.356554 0.313789
C115  C     C_R   0.491281 0.796559 0.207449 -0.029553
C116  C     C_R   0.443642 0.211831 0.748900 -0.003899
C117  C     C_R   0.513368 0.278730 0.182736 -0.019852
C118  C     C_R   0.473342 0.803201 0.781041 0.006860
C119  C     C_R   0.995601 0.294780 0.703733 -0.017416
C120  C     C_R   0.385796 0.753681 0.144288 0.924311
C121  C     C_R   0.947013 0.709414 0.251648 -0.013630
C122  C     C_R   0.003201 0.788060 0.693742 -0.024898
C123  C     C_R   0.997275 0.209031 0.302182 -0.039106
C124  C     C_R   0.061957 0.281291 0.737949 -0.036691
C125  C     C_R   0.005391 0.708749 0.200826 -0.009345
C126  C     C_R   0.053462 0.789233 0.752800 -0.027229
C127  C     C_R   0.045860 0.207221 0.242009 -0.018835
C128  C     C_R   0.558579 0.784592 0.241003 -0.040822
C129  C     C_R   0.501718 0.211103 0.697737 -0.049553
C130  C     C_R   0.568647 0.275302 0.237123 -0.024640
C131  C     C_R   0.390023 0.250690 0.860518 0.896286
C132  C     C_R   0.535843 0.802836 0.735684 -0.038511
C133  C     C_R   0.434643 0.759366 0.208960 -0.093469
C134  C     C_R   0.444700 0.250906 0.803168 -0.083908
C135  C     C_R   0.445644 0.252891 0.195924 -0.072660
C136  C     C_R   0.437764 0.755565 0.795430 -0.102837
C137  C     C_R   0.935903 0.259919 0.708097 -0.099044
C138  C     C_R   0.944957 0.750532 0.302961 -0.092240
C139  C     C_R   0.947652 0.749476 0.694196 -0.070765
C140  C     C_R   0.948676 0.251082 0.306663 -0.077991
C141  C     C_R   0.436531 0.719562 0.262251 -0.015338
C142  C     C_R   0.889873 0.749960 0.639654 0.868699
C143  C     C_R   0.499245 0.290220 0.804339 -0.016718
C144  C     C_R   0.431383 0.227134 0.262904 -0.006313
C145  C     C_R   0.445281 0.714872 0.744211 -0.028092
C146  C     C_R   0.935197 0.221887 0.763846 0.006801
C147  C     C_R   0.998468 0.790655 0.302852 0.009068
C148  C     C_R   0.946749 0.709424 0.747076 0.005829
C149  C     C_R   0.955015 0.294088 0.258939 0.003158
C150  C     C_R   0.001522 0.207695 0.797268 0.017059
C151  C     C_R   0.056451 0.790148 0.251328 0.004010
C152  C     C_R   0.997009 0.710451 0.806191 -0.003852
C153  C     C_R   0.889960 0.250531 0.360135 0.870616
C154  C     C_R   0.003596 0.292473 0.198709 0.006543
C155  C     C_R   0.503765 0.706701 0.294917 0.014072
C156  C     C_R   0.555949 0.290691 0.751392 0.012896
C157  C     C_R   0.488690 0.220024 0.313537 0.009794
C158  C     C_R   0.482735 0.725643 0.679072 0.021401
C159  C     C_R   0.061750 0.242362 0.792878 -0.071845
C160  C     C_R   0.056867 0.749927 0.198604 -0.079667
C161  C     C_R   0.051839 0.749694 0.806404 -0.061834
C162  C     C_R   0.051049 0.249665 0.193130 -0.052191
C163  C     C_R   0.561470 0.743524 0.292919 -0.074759
C164  C     C_R   0.886336 0.253599 0.643995 0.877687
C165  C     C_R   0.555895 0.250704 0.698015 -0.069603
C166  C     C_R   0.555099 0.247515 0.302582 -0.052749
C167  C     C_R   0.541486 0.761823 0.683388 -0.064485
C168  C     C_R   0.373038 0.692377 0.284640 -0.145010
C169  C     C_R   0.498015 0.329305 0.858558 -0.175128
C170  C     C_R   0.360823 0.207350 0.279900 -0.238984
C171  C     C_R   0.415133 0.664825 0.753039 -0.151501
C172  C     C_R   0.869930 0.197617 0.787557 -0.138050
C173  C     C_R   0.995990 0.830897 0.355262 -0.169602
C174  C     C_R   0.896172 0.667857 0.741436 -0.248600
C175  C     C_R   0.890020 0.750577 0.360343 0.901952
C176  C     C_R   0.913541 0.339144 0.270652 -0.227189
C177  C     C_R   0.378086 0.648512 0.328218 0.426826
C178  C     C_R   0.551789 0.367368 0.861796 0.483596
C179  C     C_R   0.348166 0.180226 0.344547 0.456046
C180  C     C_R   0.408568 0.631875 0.692879 0.448217
C181  C     C_R   0.871969 0.154830 0.833523 0.448487
C182  C     C_R   0.050335 0.868616 0.358572 0.447391
C183  C     C_R   0.895210 0.628213 0.792543 0.430206
C184  C     C_R   0.920899 0.381810 0.225223 0.474393
C185  C     C_R   0.113227 0.246773 0.856059 0.875350
C186  C     C_R   0.544594 0.876595 0.160819 -0.237375
C187  C     C_R   0.110764 0.750018 0.140296 0.801656
C188  C     C_R   0.109620 0.749478 0.860941 0.790778
C189  C     C_R   0.109666 0.249923 0.139468 0.795772
C190  C     C_R   0.613048 0.747093 0.356117 0.848756
C191  C     C_R   0.610732 0.250245 0.640401 0.805391
C192  C     C_R   0.609986 0.249166 0.360411 0.775999
C193  C     C_R   0.606491 0.753573 0.636529 0.819932
C194  C     C_R   0.938960 0.134278 0.853778 -0.201757
C195  C     C_R   0.107161 0.868300 0.308944 -0.185988
C196  C     C_R   0.941214 0.630411 0.852927 -0.130725
Cl1   Cl    Cl    0.790312 0.124213 0.860254 -0.499853
Cl2   Cl    Cl    0.358067 0.551292 0.893907 -0.370426
Cl3   Cl    Cl    0.396359 0.563401 0.037789 -0.448967
Cl4   Cl    Cl    0.375751 0.438636 0.917995 -0.407958
Cl5   Cl    Cl    0.806255 0.949705 0.645563 -0.335324
Cl6   Cl    Cl    0.908953 0.050741 0.500750 -0.356256
Cl7   Cl    Cl    0.838643 0.061519 0.632138 -0.405378
Cl8   Cl    Cl    0.903344 0.937957 0.532410 -0.414507
Cl9   Cl    Cl    0.204163 0.383009 0.645393 -0.534479
Cl10  Cl    Cl    0.971360 0.574481 0.091741 -0.547979
Cl11  Cl    Cl    0.174158 0.917852 0.710363 -0.474684
Cl12  Cl    Cl    0.050889 0.914964 0.428258 -0.448114
Cl13  Cl    Cl    0.138933 0.066962 0.266385 -0.521101
Cl14  Cl    Cl    0.691399 0.896676 0.158975 -0.499329
Cl15  Cl    Cl    0.454148 0.083656 0.576724 -0.498826
Cl16  Cl    Cl    0.737673 0.355183 0.146680 -0.522512
Cl17  Cl    Cl    0.634004 0.936249 0.802735 -0.450904
Cl18  Cl    Cl    0.396983 0.875046 0.163014 -0.534953
Cl19  Cl    Cl    0.304972 0.170484 0.793528 -0.621599
Cl20  Cl    Cl    0.463733 0.325842 0.050885 -0.562924
Cl21  Cl    Cl    0.356892 0.864826 0.824587 -0.609813
Cl22  Cl    Cl    0.908905 0.376561 0.655786 -0.572123
Cl23  Cl    Cl    0.833646 0.576449 0.782245 -0.537955
Cl24  Cl    Cl    0.811008 0.665306 0.298110 -0.620348
Cl25  Cl    Cl    0.970260 0.821168 0.549045 -0.580203
Cl26  Cl    Cl    0.964398 0.172933 0.445773 -0.501221
Cl27  Cl    Cl    0.872132 0.438092 0.244085 -0.526342
Cl28  Cl    Cl    0.298641 0.615128 0.354946 -0.534737
Cl29  Cl    Cl    0.552160 0.413664 0.931711 -0.408310
Cl30  Cl    Cl    0.259862 0.157759 0.365466 -0.519120
Cl31  Cl    Cl    0.369473 0.570368 0.703044 -0.460603
Cl32  Cl    Cl    0.384158 0.449808 0.067863 -0.326473
H1    H     H_    0.319025 0.705740 0.270735 0.204002
H2    H     H_    0.001708 0.957745 0.952878 0.170895
H3    H     H_    0.496424 0.538296 0.524414 0.159930
H4    H     H_    0.500743 0.457802 0.452406 0.163330
H5    H     H_    0.377471 0.085543 0.085966 0.155683
H6    H     H_    0.397067 0.920528 0.955893 0.191947
H7    H     H_    0.879869 0.584069 0.581642 0.159958
H8    H     H_    0.893626 0.420534 0.446213 0.168629
H9    H     H_    0.495773 0.044748 0.070862 0.168904
H10   H     H_    0.505182 0.962856 0.002970 0.168237
H11   H     H_    0.997384 0.543200 0.561510 0.165504
H12   H     H_    0.455266 0.330851 0.899103 0.205164
H13   H     H_    0.004205 0.462230 0.490933 0.161926
H14   H     H_    0.149665 0.466048 0.062411 0.195713
H15   H     H_    0.135905 0.533903 0.970626 0.189705
H16   H     H_    0.164946 0.546330 0.084900 0.178873
H17   H     H_    0.141846 0.453041 0.945358 0.171156
H18   H     H_    0.642592 0.966087 0.473114 0.171065
H19   H     H_    0.700288 0.035146 0.397516 0.142999
H20   H     H_    0.637958 0.046288 0.500905 0.166419
H21   H     H_    0.721313 0.953996 0.384595 0.188185
H22   H     H_    0.118703 0.918416 0.925818 0.166407
H23   H     H_    0.314488 0.213152 0.243996 0.155675
H24   H     H_    0.109152 0.080645 0.065115 0.158734
H25   H     H_    0.617334 0.417741 0.425938 0.160029
H26   H     H_    0.609040 0.580701 0.563440 0.156967
H27   H     H_    0.939777 0.098009 0.883148 0.202816
H28   H     H_    0.149732 0.897509 0.313440 0.210651
H29   H     H_    0.937091 0.600541 0.894355 0.218049
H30   H     H_    0.965051 0.411446 0.125512 0.215105
H31   H     H_    0.449828 0.592619 0.374220 0.189292
H32   H     H_    0.648038 0.398741 0.813474 0.204428
H33   H     H_    0.397091 0.142760 0.436501 0.222545
H34   H     H_    0.397213 0.650501 0.805659 0.225794
H35   H     H_    0.414235 0.626155 0.575984 0.209115
H36   H     H_    0.180084 0.292712 0.729529 0.214812
H37   H     H_    0.056298 0.663527 0.114389 0.162431
H38   H     H_    0.144400 0.833029 0.801574 0.174652
H39   H     H_    0.126608 0.159112 0.186772 0.160982
H40   H     H_    0.675617 0.801561 0.232960 0.222406
H41   H     H_    0.548685 0.167884 0.607498 0.232403
H42   H     H_    0.681190 0.297597 0.264770 0.159619
H43   H     H_    0.638186 0.846627 0.716863 0.249485
H44   H     H_    0.538570 0.913901 0.135074 0.197827
H45   H     H_    0.816955 0.212428 0.772330 0.211683
H46   H     H_    0.348906 0.105555 0.685674 0.227421
H47   H     H_    0.608339 0.354162 0.059620 0.238159
H48   H     H_    0.483582 0.927183 0.842175 0.193019
H49   H     H_    0.053127 0.406715 0.621762 0.196616
H50   H     H_    0.861580 0.596964 0.197214 0.229294
H51   H     H_    0.069836 0.893018 0.599069 0.256632
H52   H     H_    0.045548 0.095172 0.384499 0.253023
H53   H     H_    0.277514 0.414334 0.228889 0.352590
H54   H     H_    0.207954 0.590288 0.776413 0.358385
H55   H     H_    0.347468 0.545563 0.215159 0.368521
H56   H     H_    0.952463 0.833267 0.394975 0.197118
H57   H     H_    0.273086 0.457350 0.764572 0.398450
H58   H     H_    0.537481 0.901839 0.597749 0.360474
H59   H     H_    0.878457 0.104783 0.321298 0.340996
H60   H     H_    0.678723 0.043077 0.721427 0.394095
H61   H     H_    0.939088 0.962898 0.345916 0.374264
H62   H     H_    0.171932 0.114163 0.796028 0.386112
H63   H     H_    0.224743 0.772795 0.270620 0.308693
H64   H     H_    0.100276 0.643486 0.003230 0.302414
H65   H     H_    0.088781 0.365454 0.990386 0.322328
H66   H     H_    0.677472 0.616139 0.284712 0.388552
H67   H     H_    0.857434 0.664984 0.696695 0.142380
H68   H     H_    0.773585 0.315422 0.677651 0.337116
H69   H     H_    0.619781 0.107711 0.395988 0.333642
H70   H     H_    0.476768 0.786283 0.480232 0.346449
H71   H     H_    0.876029 0.342575 0.315982 0.151721
H72   H     H_    0.996653 0.037631 0.026214 0.160409
O1    O     O_3   0.249990 0.250010 0.000000 -0.515886
O2    O     O_R   0.835430 0.219350 0.353840 -0.612263
O3    O     O_R   0.835430 0.219350 0.646160 -0.619494
O4    O     O_R   0.835430 0.780650 0.353840 -0.595602
O5    O     O_R   0.164550 0.280640 0.853840 -0.631033
O6    O     O_R   0.164550 0.719360 0.146160 -0.630081
O7    O     O_R   0.164550 0.719360 0.853840 -0.625526
O8    O     O_R   0.164550 0.280640 0.146160 -0.633360
O9    O     O_R   0.664550 0.780640 0.353840 -0.639986
O10   O     O_R   0.664550 0.219360 0.646160 -0.599087
O11   O     O_R   0.664550 0.219360 0.353840 -0.618176
O12   O     O_3   0.249990 0.749990 0.000000 -0.518428
O13   O     O_R   0.664550 0.780640 0.646160 -0.659682
O14   O     O_R   0.396160 0.219380 0.914560 -0.592932
O15   O     O_R   0.396160 0.780620 0.085440 -0.612604
O16   O     O_R   0.396160 0.780620 0.914560 -0.621137
O17   O     O_R   0.396160 0.219380 0.085440 -0.634831
O18   O     O_R   0.896160 0.719380 0.414560 -0.587095
O19   O     O_R   0.896160 0.280620 0.585440 -0.592535
O20   O     O_R   0.896160 0.280620 0.414560 -0.631522
O21   O     O_R   0.896160 0.719380 0.585440 -0.634078
O22   O     O_R   0.103840 0.219370 0.085450 -0.625822
O23   O     O_3   0.749990 0.750010 0.500000 -0.514073
O24   O     O_R   0.103840 0.780630 0.914550 -0.620028
O25   O     O_R   0.103840 0.780630 0.085450 -0.584578
O26   O     O_R   0.103840 0.219370 0.914550 -0.623398
O27   O     O_R   0.603840 0.719370 0.585450 -0.661694
O28   O     O_R   0.603840 0.280630 0.414550 -0.640461
O29   O     O_R   0.603840 0.280630 0.585450 -0.614466
O30   O     O_R   0.603840 0.719370 0.414550 -0.629689
O31   O     O_R   0.310730 0.133160 0.000000 -0.630855
O32   O     O_R   0.310730 0.866840 0.000000 -0.605267
O33   O     O_R   0.810730 0.633160 0.500000 -0.633176
O34   O     O_3   0.749990 0.249990 0.500000 -0.519460
O35   O     O_R   0.810730 0.366840 0.500000 -0.639335
O36   O     O_R   0.249970 0.366860 0.060720 -0.590085
O37   O     O_R   0.249970 0.633140 0.939280 -0.585874
O38   O     O_R   0.249970 0.633140 0.060720 -0.632223
O39   O     O_R   0.249970 0.366860 0.939280 -0.612441
O40   O     O_R   0.749970 0.866860 0.560720 -0.570477
O41   O     O_R   0.749970 0.133140 0.439280 -0.630852
O42   O     O_R   0.749970 0.133140 0.560720 -0.583769
O43   O     O_R   0.749970 0.866860 0.439280 -0.626394
O44   O     O_R   0.189290 0.133150 0.000000 -0.637239
O45   O     O_R   0.335430 0.280650 0.146160 -0.609381
O46   O     O_R   0.189290 0.866850 0.000000 -0.635277
O47   O     O_R   0.689290 0.633150 0.500000 -0.627573
O48   O     O_R   0.689290 0.366850 0.500000 -0.623945
O49   O     O_2   0.159224 0.428398 0.177907 -0.602623
O50   O     O_R   0.282527 0.433300 0.180508 -0.679125
O51   O     O_2   0.108945 0.561030 0.850627 -0.598389
O52   O     O_R   0.227809 0.573576 0.822523 -0.656250
O53   O     O_2   0.228998 0.578271 0.188515 -0.564157
O54   O     O_R   0.328999 0.530393 0.167310 -0.672759
O55   O     O_2   0.173817 0.418220 0.829522 -0.597242
O56   O     O_R   0.335430 0.719350 0.853840 -0.638721
O57   O     O_R   0.269844 0.472742 0.815468 -0.650614
O58   O     O_2   0.654307 0.931751 0.639603 -0.503010
O59   O     O_R   0.562895 0.921698 0.557063 -0.782635
O60   O     O_2   0.783522 0.045002 0.291944 -0.597913
O61   O     O_R   0.856411 0.090807 0.368314 -0.690702
O62   O     O_2   0.620852 0.083045 0.619307 -0.604811
O63   O     O_R   0.696133 0.026604 0.674334 -0.639278
O64   O     O_2   0.829201 0.913412 0.336484 -0.563962
O65   O     O_R   0.901690 0.976812 0.381433 -0.691772
O66   O     O_2   0.078836 0.094548 0.883435 -0.623681
O67   O     O_R   0.335430 0.719350 0.146160 -0.629805
O68   O     O_R   0.130339 0.139267 0.789809 -0.760979
O69   O     O_2   0.189666 0.864148 0.166443 -0.540683
O70   O     O_R   0.237306 0.797130 0.228941 -0.770864
O71   O     O_2   0.010205 0.708213 0.977684 -0.613167
O72   O     O_R   0.076655 0.636749 0.953945 -0.781150
O73   O     O_2   0.013300 0.295198 0.031693 -0.601955
O74   O     O_R   0.074190 0.371370 0.043268 -0.811372
O75   O     O_2   0.589693 0.595542 0.377105 -0.617670
O76   O     O_R   0.635481 0.641130 0.281266 -0.768998
O77   O     O_2   0.673400 0.372573 0.660550 -0.579559
O78   O     O_R   0.335430 0.280650 0.853840 -0.600853
O79   O     O_R   0.733724 0.306183 0.713843 -0.796053
O80   O     O_2   0.546637 0.160327 0.474633 -0.652732
O81   O     O_R   0.582392 0.126744 0.365652 -0.756307
O82   O     O_2   0.454135 0.695399 0.486189 -0.632157
O83   O     O_R   0.476295 0.774718 0.533360 -0.799435
O84   O     O_R   0.835430 0.780650 0.646160 -0.595996
Zn1   Zn    Zn3+2 0.249990 0.293780 0.913250 1.099092
Zn2   Zn    Zn3+2 0.336760 0.793760 0.000000 1.076842
Zn3   Zn    Zn3+2 0.836760 0.706240 0.500000 1.055914
Zn4   Zn    Zn3+2 0.836760 0.293760 0.500000 1.046638
Zn5   Zn    Zn3+2 0.163250 0.206230 0.000000 1.034439
Zn6   Zn    Zn3+2 0.163250 0.793770 0.000000 1.068651
Zn7   Zn    Zn3+2 0.663250 0.706230 0.500000 1.024199
Zn8   Zn    Zn3+2 0.663250 0.293770 0.500000 1.024630
Zn9   Zn    Zn3+2 0.249990 0.706220 0.086750 1.060645
Zn10  Zn    Zn3+2 0.249990 0.706220 0.913250 1.052199
Zn11  Zn    Zn3+2 0.249990 0.293780 0.086750 1.066055
Zn12  Zn    Zn3+2 0.749990 0.793780 0.413250 1.085996
Zn13  Zn    Zn3+2 0.749990 0.206220 0.586750 1.112543
Zn14  Zn    Zn3+2 0.749990 0.206220 0.413250 1.058523
Zn15  Zn    Zn3+2 0.749990 0.793780 0.586750 1.071926
Zn16  Zn    Zn3+2 0.336760 0.206240 0.000000 1.048649

loop_
_geom_bond_atom_site_label_1
_geom_bond_atom_site_label_2
_ccdc_geom_bond_type
C52   O39   A    
C103  O71   D    
C53   C71   S    
O1    Zn1   S    
O25   Zn6   S    
C46   C112  A    
C6    C179  A    
C4    C177  A    
C110  C118  A    
C172  H45   S    
C173  H56   S    
C122  C139  A    
C100  O68   S    
O38   Zn9   S    
C192  O28   A    
O27   Zn7   S    
C139  C142  S    
O28   Zn8   S    
C42   H26   S    
C58   C60   S    
C29   C33   A    
C194  H27   S    
C120  C133  S    
C2    C90   A    
C62   C64   S    
C11   C154  A    
C134  C143  A    
C146  C150  A    
C153  O2    A    
C9    C151  A    
H65   O74   S    
O45   Zn11  S    
C1    O17   A    
C111  Cl22  S    
C90   C116  A    
C4    C12   A    
C3    C184  A    
C74   C83   A    
O23   Zn15  S    
H53   O50   S    
C102  O69   D    
C195  H28   S    
O48   Zn8   S    
C92   O49   D    
O21   Zn3   S    
C158  C167  A    
C89   Cl16  S    
C45   C47   A    
C174  H67   S    
O13   Zn15  S    
C16   C158  A    
C137  C146  A    
C28   C32   A    
C142  O84   A    
C30   C34   A    
C20   C28   A    
C33   C50   S    
C52   O36   A    
O5    Zn1   S    
C5    H32   S    
C17   C21   A    
C82   C91   A    
C19   C23   A    
C43   C44   A    
C37   C38   A    
C2    H46   S    
O22   Zn5   S    
O12   Zn10  S    
C49   O46   A    
C54   O40   A    
C183  C196  A    
C18   H6    S    
C181  C194  A    
C113  Cl25  S    
O56   Zn10  S    
H70   O83   S    
C46   C84   A    
C109  O56   A    
C173  C182  A    
C31   C48   S    
C87   Cl14  S    
C117  C135  A    
C118  C136  A    
C75   H37   S    
C176  C184  A    
H68   O79   S    
C56   H14   S    
C10   C103  S    
C141  C168  A    
C183  Cl23  S    
C14   C156  A    
C133  C141  A    
C142  O21   A    
C48   O44   A    
C68   H52   S    
C63   C98   S    
C180  Cl31  S    
C33   C38   A    
C56   C59   S    
C155  C163  A    
C179  Cl30  S    
O34   Zn14  S    
C97   O61   S    
C80   C88   A    
C190  O9    A    
C77   H39   S    
C187  O25   A    
O35   Zn4   S    
O24   Zn6   S    
C81   H42   S    
C57   C85   A    
C163  C190  S    
C182  Cl12  S    
C177  Cl28  S    
C196  H29   S    
O84   Zn15  S    
C3    C11   A    
O31   Zn16  S    
C13   H47   S    
C60   C95   S    
C84   Cl10  S    
C91   Cl17  S    
C41   C45   A    
C31   C36   A    
C82   H43   S    
C76   C85   A    
C98   O63   S    
C78   C87   A    
C55   O41   A    
C21   H9    S    
C131  O14   A    
H55   O54   S    
C145  C158  A    
C79   C115  A    
O9    Zn12  S    
C86   Cl13  S    
C181  Cl1   S    
C61   C96   S    
C99   O64   D    
C156  C165  A    
O44   Zn5   S    
C161  C188  S    
O46   Zn6   S    
C75   C84   A    
C65   C70   S    
C41   H25   S    
H63   O70   S    
C111  C119  A    
C67   C72   S    
C1    O45   A    
C46   H50   S    
C172  C181  A    
C64   C99   S    
C169  H12   S    
O26   Zn5   S    
C44   H72   S    
C62   C73   S    
C7    H35   S    
C104  O74   S    
C152  C161  A    
C77   C127  A    
C175  O18   A    
C69   Cl6   S    
O11   Zn14  S    
C185  O5    A    
C167  C193  S    
C193  O13   A    
O37   Zn10  S    
C139  C148  A    
C97   O60   D    
C113  C122  A    
C34   C39   A    
C17   C27   A    
H69   O81   S    
C189  O8    A    
C96   O59   S    
O16   Zn2   S    
C105  O75   D    
C57   C113  A    
O40   Zn15  S    
C20   H8    S    
C61   H18   S    
O19   Zn4   S    
C115  C128  A    
C59   H16   S    
C147  C151  A    
C121  C125  A    
C67   Cl5   S    
C10   C196  A    
C62   C97   S    
C123  C127  A    
C112  Cl24  S    
C32   C37   A    
C69   C73   S    
O23   Zn12  S    
C66   Cl2   S    
C114  C123  A    
C59   C94   S    
C26   C30   A    
C127  C162  A    
C109  O16   A    
C54   O43   A    
C95   O55   D    
H61   O65   S    
C120  O67   A    
C85   Cl11  S    
C24   H48   S    
C80   C129  A    
C191  O29   A    
C18   C22   A    
C154  C162  A    
O23   Zn3   S    
C148  C152  A    
C153  O20   A    
C106  O79   S    
O12   Zn6   S    
C25   H13   S    
O36   Zn11  S    
O3    Zn13  S    
C170  C179  A    
C159  C185  S    
C8    C100  S    
C112  C121  A    
C83   Cl9   S    
C48   O31   A    
C39   H22   S    
C7    C180  A    
C34   C36   A    
C37   C41   A    
C5    C178  A    
C118  C132  A    
C55   C73   S    
C40   C44   A    
O10   Zn13  S    
C138  C175  S    
C182  C195  A    
C94   O53   D    
C144  C157  A    
C21   C22   A    
O34   Zn8   S    
C140  C149  A    
C53   O38   A    
C74   H36   S    
C184  Cl27  S    
C74   C124  A    
C102  O70   S    
C79   C186  A    
C51   O48   A    
C76   C126  A    
O6    Zn9   S    
C18   C26   A    
C132  C167  A    
O43   Zn12  S    
C131  C134  S    
C78   C128  A    
C92   O50   S    
C49   O32   A    
O15   Zn2   S    
C26   C27   A    
C28   C29   A    
C58   C93   S    
O39   Zn1   S    
C76   H38   S    
C12   C105  S    
C40   H24   S    
C58   C71   S    
C116  C134  A    
C20   C25   A    
C168  C177  A    
C176  H71   S    
C50   O33   A    
C144  C170  A    
O1    Zn11  S    
H62   O68   S    
C188  O24   A    
C80   H41   S    
C15   C107  S    
C110  Cl21  S    
C190  O30   A    
C178  Cl29  S    
C10   C152  A    
C168  H1    S    
C79   Cl18  S    
C9    C102  S    
C8    C194  A    
C11   C104  S    
C45   H4    S    
C87   C186  A    
C126  C161  A    
C140  C153  S    
C81   C89   A    
C103  O72   S    
H59   O61   S    
C106  O77   D    
C90   Cl19  S    
C108  O83   S    
C43   H2    S    
O4    Zn12  S    
C150  C159  A    
O34   Zn13  S    
C35   C83   A    
C141  C155  A    
C115  C133  A    
C27   C31   A    
C189  O22   A    
C75   C125  A    
O41   Zn14  S    
C149  C154  A    
C32   C51   S    
C96   O58   D    
C185  O26   A    
C164  O19   A    
C23   H11   S    
C130  C166  A    
O17   Zn16  S    
C66   C71   S    
C131  O78   A    
C24   C110  A    
C114  Cl26  S    
C5    C14   A    
C61   C72   S    
C7    C16   A    
C4    H31   S    
C82   C132  A    
C19   C29   A    
O67   Zn9   S    
C187  O6    A    
C19   H7    S    
C174  C183  A    
C147  C173  A    
C15   C157  A    
C17   H5    S    
C93   O52   S    
C63   C73   S    
O1    Zn5   S    
C129  C165  A    
C149  C176  A    
C101  C117  A    
C93   O51   D    
C9    C195  A    
O12   Zn9   S    
C81   C130  A    
C107  O80   D    
C165  C191  S    
C166  C192  S    
C58   H15   S    
C148  C174  A    
C64   H21   S    
O7    Zn10  S    
C186  H44   S    
C14   C106  S    
C162  C189  S    
O12   Zn2   S    
O42   Zn13  S    
C22   H10   S    
C145  C171  A    
C146  C172  A    
C68   C86   A    
O23   Zn7   S    
C62   H19   S    
O2    Zn14  S    
C119  C124  A    
C63   H20   S    
C38   C42   A    
C47   H3    S    
C101  Cl20  S    
C65   Cl4   S    
C124  C159  A    
O8    Zn11  S    
C104  O73   D    
O33   Zn3   S    
O34   Zn4   S    
C8    C150  A    
C67   Cl8   S    
C6    C15   A    
O32   Zn2   S    
C116  C129  A    
O20   Zn4   S    
H60   O63   S    
H58   O59   S    
O1    Zn16  S    
C2    C88   A    
O78   Zn1   S    
C66   Cl3   S    
C98   O62   D    
H66   O76   S    
C55   O42   A    
C23   C25   A    
C191  O10   A    
C109  C136  S    
H54   O52   S    
C51   O35   A    
C119  C137  A    
C120  O15   A    
C50   O47   A    
C36   C40   A    
C143  C169  A    
C164  O3    A    
C39   C43   A    
C108  O82   D    
C123  C140  A    
C88   Cl15  S    
C128  C163  A    
C95   O57   S    
C65   Cl32  S    
C67   C69   S    
C78   H40   S    
C121  C138  A    
C122  C126  A    
C171  H34   S    
C100  O66   D    
C125  C160  A    
O29   Zn8   S    
C60   C70   S    
C138  C147  A    
O30   Zn7   S    
C61   C63   S    
H57   O57   S    
C188  O7    A    
C117  C130  A    
C57   H51   S    
C135  C144  A    
C77   C86   A    
C69   Cl7   S    
C56   C70   S    
C171  C180  A    
C94   O54   S    
C12   C155  A    
C13   C101  A    
H64   O72   S    
C24   C91   A    
C169  C178  A    
C35   C111  A    
C53   O37   A    
C35   H49   S    
C13   C89   A    
C193  O27   A    
C192  O11   A    
O18   Zn3   S    
C30   C49   S    
C136  C145  A    
C157  C166  A    
C137  C164  S    
C105  O76   S    
C3    H30   S    
C175  O4    A    
C160  C187  S    
C151  C160  A    
C1    C135  S    
C143  C156  A    
C170  H23   S    
C6    H33   S    
C42   C47   A    
C64   C72   S    
C52   C70   S    
C16   C108  S    
O14   Zn16  S    
C60   H17   S    
C54   C72   S    
C107  O81   S    
C65   C66   S    
C68   C114  A    
O47   Zn7   S    
C56   C92   S    
C59   C71   S    
C99   O65   S    
