data_mof_unit_32295.cif
_audit_creation_date              2012-12-10T20:24:40-0500
_audit_creation_method            fapswitch 2.2
_symmetry_space_group_name_H-M    P1
_symmetry_Int_Tables_number       1
_space_group_crystal_system       triclinic
_cell_length_a                    10.755294
_cell_length_b                    19.273698
_cell_length_c                    18.507445
_cell_angle_alpha                 90.283278
_cell_angle_beta                  91.220801
_cell_angle_gamma                 89.958161
_cell_volume                      3835.56918655

loop_
_atom_site_label
_atom_site_type_symbol
_atom_type_description
_atom_site_fract_x
_atom_site_fract_y
_atom_site_fract_z
_atom_type_partial_charge
C1    C     C_R   0.501730 0.365516 0.499736 0.961750
C2    C     C_R   0.494120 0.634268 0.499729 0.931312
C3    C     C_R   0.872636 0.508973 0.503734 -0.084370
C4    C     C_R   0.127645 0.508947 0.498360 -0.100037
C5    C     C_R   0.942835 0.496689 0.567744 0.004356
C6    C     C_R   0.058554 0.530291 0.436619 0.025112
C7    C     C_R   0.525033 0.743935 0.437370 -0.396907
C8    C     C_R   0.458685 0.256649 0.434805 -0.393237
C9    C     C_R   0.508339 0.814939 0.429322 0.564378
C10   C     C_R   0.452118 0.184854 0.431157 0.546130
C11   C     C_R   0.450498 0.852181 0.484406 -0.145888
C12   C     C_R   0.482216 0.146015 0.492835 -0.139506
C13   C     C_R   0.394468 0.818024 0.542183 0.370527
C14   C     C_R   0.528338 0.178001 0.556314 0.382515
C15   C     C_R   0.401949 0.745504 0.546459 0.404231
C16   C     C_R   0.543217 0.250332 0.557898 0.448173
C17   C     C_R   0.475433 0.709094 0.496393 -0.297784
C18   C     C_R   0.502357 0.289856 0.497875 -0.299967
C19   C     C_R   0.349087 0.966829 0.478043 -0.346864
C20   C     C_R   0.580801 0.031545 0.493994 -0.366398
C21   C     C_R   0.355056 0.038903 0.482672 0.600949
C22   C     C_R   0.574311 0.959637 0.494002 0.602376
C23   C     C_R   0.259899 0.502381 0.499124 0.854663
C24   C     C_R   0.740233 0.502384 0.501130 0.850523
C25   C     C_R   0.471886 0.070956 0.489769 0.042333
C26   C     C_R   0.457936 0.927433 0.484709 0.048813
C27   C     C_R   0.467539 0.556644 0.729586 0.663082
C28   C     C_R   0.406524 0.468708 0.271882 0.681731
C29   C     C_R   0.458982 0.551878 0.804979 -0.509629
C30   C     C_R   0.406733 0.471329 0.195571 -0.472877
C31   C     C_R   0.497472 0.492006 0.841676 0.038659
C32   C     C_R   0.508564 0.499113 0.159141 0.050482
C33   C     C_R   0.537544 0.434773 0.800193 0.536617
C34   C     C_R   0.609558 0.526049 0.200781 0.523598
C35   C     C_R   0.537194 0.440591 0.723522 -0.272689
C36   C     C_R   0.600310 0.527180 0.277268 -0.285308
C37   C     C_R   0.456342 0.436569 0.964264 0.605767
C38   C     C_R   0.546113 0.556280 0.037208 0.619893
C39   C     C_R   0.464986 0.438743 0.040124 -0.405125
C40   C     C_R   0.544002 0.551975 0.960501 -0.420585
C41   C     C_R   0.508301 0.498071 0.077609 0.029526
C42   C     C_R   0.501103 0.492461 0.923185 0.056280
C43   C     C_R   0.242789 0.643628 0.310269 -0.263544
C44   C     C_R   0.878390 0.423936 0.752531 -0.204197
C45   C     C_R   0.193195 0.616104 0.373094 -0.168502
C46   C     C_R   0.908949 0.427631 0.679640 -0.313155
C47   C     C_R   0.114048 0.558299 0.369798 0.166755
C48   C     C_R   0.892404 0.489637 0.641307 0.182663
C49   C     C_R   0.081338 0.530122 0.302015 -0.202181
C50   C     C_R   0.845957 0.548159 0.677117 -0.175766
C51   C     C_R   0.129547 0.558048 0.238963 -0.205483
C52   C     C_R   0.816149 0.544655 0.750176 -0.304806
C53   C     C_R   0.212045 0.614309 0.241696 0.603227
C54   C     C_R   0.835777 0.482738 0.789201 0.643277
C55   C     C_R   0.930595 0.527700 0.439736 -0.257725
C56   C     C_R   0.069538 0.494096 0.563113 -0.259025
H1    H     H_    0.426081 0.596487 0.834843 0.190847
H2    H     H_    0.327651 0.451896 0.164608 0.176692
H3    H     H_    0.303480 0.688040 0.316408 0.130476
H4    H     H_    0.891224 0.375576 0.781262 0.160867
H5    H     H_    0.018896 0.486143 0.297932 0.156074
H6    H     H_    0.835486 0.596872 0.648699 0.130824
H7    H     H_    0.103280 0.535244 0.187273 0.157449
H8    H     H_    0.778628 0.590252 0.776048 0.128509
N1    N     N_R   0.500020 0.499980 0.689440 -0.150492
N2    N     N_R   0.499980 0.500020 0.310560 -0.143120
O1    O     O_R   0.500010 0.398180 0.560840 -0.592552
O2    O     O_R   0.499990 0.601820 0.439160 -0.637448
O3    O     O_R   0.499950 0.398180 0.439210 -0.603893
O4    O     O_R   0.500050 0.601820 0.560790 -0.547207
O5    O     O_R   0.316790 0.500010 0.560810 -0.626064
O6    O     O_R   0.683210 0.499990 0.439190 -0.634216
O7    O     O_R   0.316730 0.500000 0.439190 -0.554648
O8    O     O_R   0.683270 0.500000 0.560810 -0.625426
Zn1   Zn    Zn3+2 0.500040 0.500000 0.581210 0.989510
Zn2   Zn    Zn3+2 0.499960 0.500000 0.418790 0.978578
O9    O     O_3   0.254105 0.638511 0.175576 -0.619760
C57   C     C_3   0.354965 0.684946 0.182126 -0.290096
H9    H     H_    0.433507 0.661988 0.214060 0.166762
H10   H     H_    0.324564 0.735398 0.205122 0.139273
H11   H     H_    0.389269 0.695840 0.127290 0.234056
O10   O     O_3   0.806545 0.476080 0.861510 -0.583841
C58   C     C_3   0.859335 0.530542 0.903113 -0.331731
H12   H     H_    0.803358 0.578677 0.897417 0.149394
H13   H     H_    0.958180 0.540266 0.889412 0.151223
H14   H     H_    0.857763 0.515567 0.960888 0.210958
O11   O     O_3   0.344209 0.712298 0.602538 -0.542811
C59   C     C_3   0.232688 0.681817 0.576594 -0.230191
H15   H     H_    0.174815 0.668563 0.623456 0.190099
H16   H     H_    0.252589 0.633058 0.547729 0.153613
H17   H     H_    0.176964 0.716988 0.540950 0.096524
O12   O     O_3   0.593008 0.281535 0.619268 -0.601682
C60   C     C_3   0.718113 0.299495 0.606558 -0.393916
H18   H     H_    0.723794 0.350039 0.578388 0.197134
H19   H     H_    0.769184 0.259334 0.575379 0.141589
H20   H     H_    0.767169 0.304882 0.659494 0.186228
H21   H     H_    0.259867 0.941743 0.469722 0.172187
H22   H     H_    0.670824 0.056579 0.497594 0.168002
O13   O     O_3   0.247885 0.078201 0.476222 -0.571564
C61   C     C_3   0.189751 0.079573 0.543749 -0.315532
H23   H     H_    0.252469 0.101566 0.586709 0.180267
H24   H     H_    0.157331 0.027002 0.559223 0.153268
H25   H     H_    0.106741 0.113624 0.539567 0.188805
O14   O     O_3   0.682153 0.920700 0.499035 -0.573925
C62   C     C_3   0.718532 0.916111 0.572471 -0.337672
H26   H     H_    0.644380 0.892102 0.605199 0.176927
H27   H     H_    0.744564 0.967876 0.594924 0.154370
H28   H     H_    0.801840 0.882308 0.576890 0.186918
O15   O     O_3   0.443824 0.619305 0.696719 -0.540542
C63   C     C_3   0.546339 0.663695 0.710919 -0.205821
H29   H     H_    0.525940 0.715790 0.688663 0.218188
H30   H     H_    0.630695 0.644091 0.683870 0.137916
H31   H     H_    0.565431 0.671158 0.769783 0.105536
O16   O     O_3   0.310442 0.438617 0.309478 -0.572846
C64   C     C_3   0.276499 0.373470 0.280035 -0.337866
H32   H     H_    0.358664 0.342091 0.264084 0.151302
H33   H     H_    0.210422 0.380033 0.233647 0.164505
H34   H     H_    0.227380 0.343793 0.321956 0.205004
O17   O     O_3   0.590244 0.378316 0.836038 -0.562584
C65   C     C_3   0.555868 0.314703 0.803249 -0.191572
H35   H     H_    0.621583 0.301315 0.760057 0.177074
H36   H     H_    0.457989 0.314569 0.782178 0.162287
H37   H     H_    0.563350 0.273341 0.844569 0.194590
O18   O     O_3   0.718454 0.543245 0.165361 -0.588333
C66   C     C_3   0.785892 0.596974 0.200408 -0.296939
H38   H     H_    0.841419 0.576297 0.246708 0.151408
H39   H     H_    0.724367 0.640233 0.217705 0.159697
H40   H     H_    0.852773 0.618693 0.161736 0.192073
H41   H     H_    0.571645 0.398563 0.691109 0.220858
H42   H     H_    0.674764 0.547471 0.311049 0.167165
O19   O     O_3   0.403800 0.379010 0.931072 -0.580147
C67   C     C_3   0.275222 0.391051 0.921441 -0.354751
H43   H     H_    0.256870 0.436568 0.885962 0.159733
H44   H     H_    0.229059 0.398152 0.974252 0.168162
H45   H     H_    0.232883 0.345007 0.894483 0.199888
O20   O     O_3   0.570426 0.618026 0.074495 -0.602711
C68   C     C_3   0.660140 0.659717 0.041009 -0.326243
H46   H     H_    0.696751 0.697588 0.081431 0.185492
H47   H     H_    0.616858 0.690234 0.996369 0.155194
H48   H     H_    0.740628 0.628738 0.022017 0.168169
H49   H     H_    0.434580 0.393824 0.069910 0.186048
H50   H     H_    0.573363 0.595768 0.928966 0.163172
H51   H     H_    0.216411 0.640248 0.424368 0.111207
H52   H     H_    0.948258 0.382601 0.653353 0.150416
H53   H     H_    0.875929 0.542195 0.392249 0.151387
H54   H     H_    0.123084 0.481174 0.611580 0.182715
H55   H     H_    0.579088 0.716149 0.397805 0.197683
H56   H     H_    0.427907 0.286289 0.388192 0.209928
O21   O     O_3   0.560820 0.849667 0.372183 -0.557525
C69   C     C_3   0.496262 0.831542 0.307691 -0.334763
H57   H     H_    0.394117 0.839614 0.312304 0.151062
H58   H     H_    0.516410 0.777121 0.291558 0.147437
H59   H     H_    0.528674 0.865626 0.263813 0.200674
O22   O     O_3   0.407052 0.152702 0.368997 -0.561832
C70   C     C_3   0.503902 0.148947 0.319007 -0.311356
H60   H     H_    0.585219 0.119743 0.341495 0.163248
H61   H     H_    0.532871 0.201556 0.301465 0.154752
H62   H     H_    0.469475 0.120496 0.270338 0.200201
O23   O     O_3   0.347925 0.856633 0.598943 -0.581254
C71   C     C_3   0.216647 0.855035 0.596999 -0.266626
H63   H     H_    0.182924 0.813631 0.633067 0.199796
H64   H     H_    0.175127 0.848432 0.541645 0.118374
H65   H     H_    0.182023 0.905087 0.618521 0.168371
O24   O     O_3   0.543559 0.138706 0.618523 -0.583119
C72   C     C_3   0.670721 0.132608 0.638001 -0.262465
H66   H     H_    0.685468 0.081398 0.663879 0.168167
H67   H     H_    0.696397 0.172723 0.678813 0.199125
H68   H     H_    0.734342 0.135164 0.591332 0.113513

loop_
_geom_bond_atom_site_label_1
_geom_bond_atom_site_label_2
_ccdc_geom_bond_type
C30   C32   A    
O11   C59   S    
C60   H18   S    
C31   C42   S    
C40   H50   S    
C70   H61   S    
C11   C13   A    
C5    C56   A    
C53   O9    S    
C6    C55   A    
O6    Zn2   S    
C10   O22   S    
O16   C64   S    
C19   H21   S    
C39   C41   A    
O9    C57   S    
C68   H47   S    
C9    O21   S    
C1    C18   S    
C72   H66   S    
C58   H12   S    
O24   C72   S    
C19   C21   A    
C2    O2    A    
C21   O13   S    
C36   N2    A    
C55   H53   S    
C27   C29   A    
C20   C25   A    
C35   N1    A    
C64   H32   S    
C22   O14   S    
O3    Zn2   S    
C15   C17   A    
C37   C42   A    
C19   C26   A    
C63   H29   S    
C61   H23   S    
C63   H30   S    
C1    O1    A    
C3    C55   A    
C43   C53   A    
C39   H49   S    
C44   C46   A    
C67   H43   S    
C64   H33   S    
C69   H59   S    
C66   H40   S    
C50   C52   A    
C32   C41   S    
C31   C33   A    
C14   C16   A    
C38   O20   S    
C35   H41   S    
C65   H37   S    
C43   H3    S    
C52   C54   A    
C40   C42   A    
C72   H67   S    
C38   C40   A    
C4    C56   A    
C70   H62   S    
C56   H54   S    
C3    C24   S    
C8    H56   S    
C23   O7    A    
C10   C12   A    
O14   C62   S    
C5    C48   S    
C65   H36   S    
C7    H55   S    
C45   C47   A    
C68   H48   S    
C46   C48   A    
C49   H5    S    
O8    Zn1   S    
C71   H65   S    
C23   O5    A    
C51   H7    S    
C38   C41   A    
C47   C49   A    
C6    C47   S    
C4    C23   S    
C57   H9    S    
C46   H52   S    
C11   C26   S    
C49   C51   A    
C61   H25   S    
C1    O3    A    
C37   O19   S    
C51   C53   A    
C71   H64   S    
C28   N2    A    
C27   N1    A    
C36   H42   S    
C62   H27   S    
O23   C71   S    
C59   H17   S    
C29   C31   A    
C64   H34   S    
N2    Zn2   S    
C61   H24   S    
C57   H10   S    
C16   C18   A    
C62   H28   S    
C43   C45   A    
C9    C11   A    
C63   H31   S    
O22   C70   S    
C28   O16   S    
C4    C6    A    
C58   H13   S    
C29   H1    S    
C33   O17   S    
C60   H20   S    
C45   H51   S    
C13   C15   A    
C52   H8    S    
C66   H38   S    
C50   H6    S    
O7    Zn2   S    
C69   H58   S    
O1    Zn1   S    
C20   C22   A    
O19   C67   S    
C54   O10   S    
C65   H35   S    
C24   O6    A    
C15   O11   S    
C62   H26   S    
C7    C9    A    
C21   C25   A    
C34   O18   S    
C8    C10   A    
C59   H16   S    
O20   C68   S    
C3    C5    A    
C7    C17   A    
O17   C65   S    
C16   O12   S    
C72   H68   S    
C68   H46   S    
N1    Zn1   S    
O13   C61   S    
C12   C25   S    
C71   H63   S    
C28   C30   A    
C12   C14   A    
C37   C39   A    
C2    O4    A    
O21   C69   S    
O5    Zn1   S    
O2    Zn2   S    
C57   H11   S    
C24   O8    A    
C60   H19   S    
C44   H4    S    
C67   H45   S    
C30   H2    S    
C48   C50   A    
O12   C60   S    
C33   C35   A    
C34   C36   A    
C14   O24   S    
C8    C18   A    
C44   C54   A    
C58   H14   S    
C20   H22   S    
C59   H15   S    
C27   O15   S    
C67   H44   S    
O10   C58   S    
C22   C26   A    
C70   H60   S    
C66   H39   S    
C69   H57   S    
O4    Zn1   S    
O15   C63   S    
C13   O23   S    
C32   C34   A    
O18   C66   S    
C2    C17   S    
