data_mof_unit_65753.cif
_audit_creation_date              2012-12-11T19:02:41-0500
_audit_creation_method            fapswitch 2.2
_symmetry_space_group_name_H-M    P1
_symmetry_Int_Tables_number       1
_space_group_crystal_system       triclinic
_cell_length_a                    8.180466
_cell_length_b                    15.055079
_cell_length_c                    18.784009
_cell_angle_alpha                 98.945779
_cell_angle_beta                  92.754059
_cell_angle_gamma                 98.662357
_cell_volume                      2253.12667244

loop_
_atom_site_label
_atom_site_type_symbol
_atom_type_description
_atom_site_fract_x
_atom_site_fract_y
_atom_site_fract_z
_atom_type_partial_charge
Ba1   Ba    Ba6+2 0.852310 0.543020 0.467250 1.636523
Ba2   Ba    Ba6+2 0.337530 0.457060 0.532760 1.633979
C1    C     C_3   0.658191 0.863548 0.286801 -0.379534
C2    C     C_3   0.444603 0.510001 0.244843 -0.011789
C3    C     C_2   0.383684 0.516841 0.168282 -0.117949
C4    C     C_3   0.161816 0.735339 0.278144 0.302077
C5    C     C_2   0.219221 0.496043 0.146713 -0.080671
C6    C     C_2   0.100501 0.471795 0.202473 -0.130509
C7    C     C_1   0.155689 0.475485 0.271063 0.068205
C8    C     C_R   0.048165 0.493300 0.928866 0.459325
C9    C     C_R   0.158264 0.496131 0.069669 0.458587
C10   C     C_R   0.090621 0.528018 0.801483 -0.126388
C11   C     C_R   0.034086 0.520309 0.728074 0.065203
C12   C     C_3   0.657763 0.772128 0.311658 0.342082
C13   C     C_R   0.770160 0.438751 0.752877 0.011999
C14   C     C_R   0.825212 0.445884 0.825831 -0.143175
C15   C     C_R   0.987873 0.489109 0.851201 -0.073852
C16   C     C_3   0.146285 0.755722 0.201611 -0.343796
C17   C     C_R   0.876794 0.472768 0.704356 -0.281527
C18   C     C_R   0.337865 0.823764 0.453232 -0.005852
C19   C     C_R   0.579442 0.791184 0.517379 0.069431
C20   C     C_R   0.763312 0.229849 0.523154 -0.288871
C21   C     C_R   0.858959 0.171543 0.549291 0.018684
C22   C     C_R   0.798088 0.078372 0.541562 -0.145570
C23   C     C_3   0.439498 0.310390 0.309915 0.309312
C24   C     C_R   0.639784 0.041750 0.505592 0.010723
C25   C     C_R   0.549211 0.102027 0.474651 -0.015626
C26   C     C_R   0.569821 0.947325 0.497626 0.006931
C27   C     C_R   0.410831 0.916052 0.459792 -0.019938
C28   C     C_3   0.248087 0.736847 0.627525 0.308812
C29   C     C_R   0.328174 0.977176 0.429062 -0.103848
C30   C     C_R   0.396890 0.067594 0.435329 -0.050082
C31   C     C_R   0.650296 0.883047 0.527243 -0.128590
C32   C     C_R   0.425925 0.761848 0.479495 -0.291674
C33   C     C_R   0.613482 0.195782 0.483290 0.021100
C34   C     C_3   0.395922 0.274256 0.229960 -0.384702
C35   C     C_3   0.277776 0.839970 0.649615 -0.384342
C36   C     C_3   0.948881 0.263755 0.374891 0.306713
C37   C     C_3   0.918093 0.160569 0.353267 -0.392711
C38   C     C_3   0.738601 0.663689 0.685964 0.307788
C39   C     C_3   0.762381 0.690560 0.767717 -0.378550
C40   C     C_1   0.970221 0.160778 0.806203 0.304361
C41   C     C_3   0.068393 0.267988 0.724835 0.339080
C42   C     C_3   0.083820 0.244345 0.800718 -0.245519
C43   C     C_3   0.534555 0.215755 0.683581 0.347861
C44   C     C_3   0.493502 0.121269 0.703623 -0.353304
C45   C     C_2   0.306421 0.516209 0.294990 -0.268077
H1    H     H_    0.781946 0.771414 0.337577 0.118385
H2    H     H_    0.854904 0.644713 0.665413 0.008590
H3    H     H_    0.637134 0.604583 0.672703 0.065526
H4    H     H_    0.688190 0.919333 0.333907 0.081409
H5    H     H_    0.867257 0.747690 0.782538 0.132557
H6    H     H_    0.789637 0.632139 0.792955 0.064520
H7    H     H_    0.647674 0.712095 0.789069 0.132597
H8    H     H_    0.563776 0.765227 0.351753 -0.020534
H9    H     H_    0.534187 0.866786 0.261477 0.117033
H10   H     H_    0.325609 0.328398 0.334318 0.027658
H11   H     H_    0.535934 0.371987 0.315879 0.033754
H12   H     H_    0.376141 0.860589 0.694527 0.130866
H13   H     H_    0.305215 0.210209 0.223246 0.132759
H14   H     H_    0.339556 0.324575 0.203769 0.065185
H15   H     H_    0.509399 0.260480 0.202908 0.124955
H16   H     H_    0.752751 0.873085 0.246997 0.136350
H17   H     H_    0.202572 0.705818 0.164545 0.089524
H18   H     H_    0.152311 0.333051 0.724262 0.088626
H19   H     H_    0.938873 0.277809 0.712528 -0.077563
H20   H     H_    0.053510 0.300942 0.840574 0.042790
H21   H     H_    0.212911 0.234585 0.814122 0.127103
H22   H     H_    0.669296 0.229218 0.676437 -0.058439
H23   H     H_    0.317340 0.873569 0.603462 0.061051
H24   H     H_    0.464030 0.216037 0.631663 0.093466
H25   H     H_    0.530041 0.069852 0.660848 0.072533
H26   H     H_    0.358371 0.104322 0.709168 0.150398
H27   H     H_    0.095833 0.665268 0.278020 0.080090
H28   H     H_    0.561687 0.118702 0.755600 0.136407
H29   H     H_    0.474807 0.532567 0.130045 0.110291
H30   H     H_    0.969473 0.450643 0.186499 0.116679
H31   H     H_    0.213336 0.564785 0.819642 0.111542
H32   H     H_    0.741196 0.417582 0.862326 0.108011
H33   H     H_    0.329544 0.555595 0.349088 0.062109
H34   H     H_    0.161680 0.863360 0.667542 0.131829
H35   H     H_    0.833319 0.466978 0.648261 0.068316
H36   H     H_    0.371175 0.690833 0.473601 0.070278
H37   H     H_    0.208895 0.956261 0.399222 0.108447
H38   H     H_    0.766894 0.902057 0.559083 0.085541
H39   H     H_    0.295326 0.738995 0.294193 -0.022065
H40   H     H_    0.811597 0.301811 0.529162 0.065534
H41   H     H_    0.878388 0.036706 0.562719 0.082067
H42   H     H_    0.325863 0.110034 0.409435 0.101910
H43   H     H_    0.013458 0.750710 0.183474 0.138477
H44   H     H_    0.211593 0.825427 0.199609 0.116298
H45   H     H_    0.835054 0.286925 0.394227 0.008335
H46   H     H_    0.365330 0.714255 0.612021 0.006692
H47   H     H_    0.153904 0.718368 0.580957 0.067833
H48   H     H_    0.048875 0.282531 0.418907 0.075959
H49   H     H_    0.811614 0.139461 0.312084 0.133652
H50   H     H_    0.890129 0.127279 0.400805 0.063928
H51   H     H_    0.030232 0.137302 0.330551 0.118229
N1    N     N_R   0.209872 0.523783 0.952274 -0.237956
N2    N     N_R   0.263500 0.525073 0.020883 -0.240420
N3    N     N_R   0.996477 0.466113 0.046359 -0.241737
N4    N     N_R   0.942970 0.464561 0.977714 -0.241985
N5    N     N_1   0.880923 0.094793 0.810494 -0.294666
O1    O     O_2   0.865610 0.448460 0.327050 -0.467742
O2    O     O_2   0.198794 0.176251 0.541803 -0.490534
O3    O     O_3   0.114606 0.198261 0.674731 -0.602850
O4    O     O_3   0.118280 0.449990 0.414480 -0.494059
O5    O     O_3   0.581860 0.610690 0.539360 -0.491613
O6    O     O_2   0.335900 0.275750 0.458650 -0.472422
O7    O     O_3   0.500050 0.242542 0.341802 -0.645560
O8    O     O_2   0.432350 0.448357 0.752570 -0.484438
O9    O     O_3   0.490031 0.280562 0.738445 -0.597529
O10   O     O_3   0.656850 0.615600 0.375450 -0.490239
O11   O     O_2   0.791681 0.570217 0.252157 -0.487925
O12   O     O_3   0.699461 0.738281 0.656465 -0.630917
O13   O     O_3   0.992803 0.302563 0.314256 -0.634838
O14   O     O_3   0.619014 0.701637 0.252122 -0.606877
O15   O     O_2   0.853800 0.724280 0.541390 -0.465077
O16   O     O_3   0.080770 0.663020 0.412300 -0.485002
O17   O     O_2   0.994369 0.824286 0.456530 -0.493481
O18   O     O_3   0.090674 0.798915 0.324659 -0.613610
O19   O     O_2   0.324100 0.551570 0.673000 -0.462291
O20   O     O_3   0.071440 0.550090 0.585530 -0.498170
O21   O     O_3   0.532860 0.384470 0.624560 -0.484905
O22   O     O_3   0.194044 0.697448 0.686570 -0.632955
O23   O     O_3   0.607860 0.389390 0.460650 -0.473742
O24   O     O_3   0.108950 0.337050 0.587710 -0.488391
P1    P     P_3+3 0.033450 0.421470 0.337090 0.982527
P2    P     P_3+3 0.679030 0.710970 0.562060 0.985799
P3    P     P_3+3 0.125353 0.779473 0.413206 0.927496
P4    P     P_3+3 0.156260 0.578610 0.662920 0.983422
P5    P     P_3+3 0.070387 0.219600 0.587552 0.950373
P6    P     P_3+3 0.628853 0.597044 0.281042 0.962313
P7    P     P_3+3 0.517490 0.274924 0.435738 0.937143
P8    P     P_3+3 0.556435 0.389349 0.718238 0.953037

loop_
_geom_bond_atom_site_label_1
_geom_bond_atom_site_label_2
_ccdc_geom_bond_type
Ba2   O6    S    
N3    N4    A    
C43   H24   S    
O19   P4    D    
Ba1   P1    S    
O18   P3    S    
O14   P6    S    
C40   N5    T    
C43   O9    S    
C5    C6    S    
C43   C44   S    
O3    P5    S    
C20   C33   A    
C24   C25   A    
Ba1   O10   S    
O17   P3    D    
C16   H44   S    
C26   C27   A    
C22   C24   A    
O4    P1    S    
C28   H46   S    
Ba1   P2    S    
C36   C37   S    
C37   H50   S    
C38   O12   S    
C19   C31   A    
C8    C15   S    
C13   C14   A    
C36   H45   S    
Ba2   O4    S    
O16   P3    S    
Ba1   Ba2   S    
Ba1   O16   S    
C31   H38   S    
O24   P5    S    
C29   C30   A    
C14   C15   A    
C10   H31   S    
C36   H48   S    
C21   C22   A    
C17   H35   S    
C39   H5    S    
C44   H25   S    
C18   C32   A    
Ba2   O24   S    
C12   H8    S    
O6    P7    D    
C28   O22   S    
O10   P6    S    
C35   H23   S    
C35   H34   S    
C40   C42   S    
C45   H33   S    
C34   H15   S    
C33   P7    S    
C44   H28   S    
C4    H27   S    
O2    P5    D    
C18   C27   A    
Ba2   O19   S    
C4    C16   S    
C7    P1    S    
C11   C17   A    
C43   H22   S    
C16   H43   S    
C8    N4    A    
Ba1   O23   S    
C3    C5    D    
C1    H4    S    
C6    C7    D    
C37   H51   S    
C12   H1    S    
C19   C32   A    
C23   C34   S    
C25   C33   A    
Ba2   O20   S    
C29   H37   S    
C28   C35   S    
C9    N2    A    
C41   O3    S    
C10   C15   A    
C13   C17   A    
C41   C42   S    
Ba1   O20   S    
C36   O13   S    
C1    H9    S    
O22   P4    S    
C5    C9    S    
C30   H42   S    
O1    P1    D    
C41   H18   S    
C12   O14   S    
C39   H6    S    
Ba2   P4    S    
C11   P4    S    
C9    N3    A    
C20   H40   S    
C16   H17   S    
C22   H41   S    
Ba1   O1    S    
C19   P2    S    
O5    P2    S    
C35   H12   S    
C1    C12   S    
C23   O7    S    
Ba1   O4    S    
Ba2   O23   S    
C38   C39   S    
C26   C31   A    
C7    C45   D    
C1    H16   S    
O13   P1    S    
C6    H30   S    
O7    P7    S    
C32   H36   S    
O9    P8    S    
C34   H14   S    
C23   H10   S    
O12   P2    S    
O21   P8    S    
O20   P4    S    
C25   C30   A    
C18   P3    S    
C2    C3    S    
C34   H13   S    
Ba2   O21   S    
C37   H49   S    
C24   C26   A    
C4    H39   S    
N1    N2    A    
C14   H32   S    
C3    H29   S    
C28   H47   S    
O15   P2    D    
O8    P8    D    
C41   H19   S    
C38   H3    S    
Ba2   O5    S    
O11   P6    D    
C21   P5    S    
Ba1   O15   S    
C8    N1    A    
C39   H7    S    
C42   H21   S    
Ba1   O5    S    
C13   P8    S    
C10   C11   A    
O23   P7    S    
C27   C29   A    
C23   H11   S    
C20   C21   A    
C42   H20   S    
C4    O18   S    
C44   H26   S    
C38   H2    S    
C2    P6    S    
C2    C45   S    
