data_mof_unit_59795.cif
_audit_creation_date              2012-12-10T19:12:25-0500
_audit_creation_method            fapswitch 2.2
_symmetry_space_group_name_H-M    P1
_symmetry_Int_Tables_number       1
_space_group_crystal_system       triclinic
_cell_length_a                    15.55403
_cell_length_b                    11.148976
_cell_length_c                    10.28144
_cell_angle_alpha                 94.953518
_cell_angle_beta                  91.0412
_cell_angle_gamma                 89.338699
_cell_volume                      1775.87864602

loop_
_atom_site_label
_atom_site_type_symbol
_atom_type_description
_atom_site_fract_x
_atom_site_fract_y
_atom_site_fract_z
_atom_type_partial_charge
C1    C     C_R   0.501788 0.258414 0.497080 1.090365
C2    C     C_3   0.083845 0.537497 0.500512 -0.094135
C3    C     C_3   0.970652 0.632867 0.569950 0.347157
C4    C     C_3   0.916161 0.531754 0.502131 -0.144680
C5    C     C_3   0.025324 0.634131 0.445945 -0.190792
C6    C     C_3   0.969414 0.531607 0.377629 -0.222774
C7    C     C_1   0.175120 0.531842 0.498659 0.139518
C8    C     C_1   0.824985 0.524496 0.502517 0.159528
C9    C     C_3   0.524953 0.084839 0.641756 0.100411
C10   C     C_3   0.529254 0.945659 0.650647 0.212115
C11   C     C_3   0.416101 0.064648 0.455886 0.065695
C12   C     C_R   0.339602 0.507108 0.499519 0.902335
C13   C     C_3   0.578812 0.058582 0.408421 0.713009
C14   C     C_3   0.505959 0.120412 0.499153 -0.417992
C15   C     C_3   0.509989 0.879193 0.512412 -0.407297
C16   C     C_3   0.419866 0.923580 0.455626 0.591200
C17   C     C_3   0.583739 0.920056 0.425544 0.128311
C18   C     C_3   0.485258 0.373444 0.063379 0.646727
C19   C     C_3   0.487980 0.374119 0.904970 0.063110
C20   C     C_3   0.431368 0.578522 0.088271 -0.476277
C21   C     C_3   0.583988 0.543598 0.085678 0.585785
C22   C     C_3   0.420778 0.566028 0.932505 0.695715
C23   C     C_R   0.504839 0.741124 0.505173 0.904575
C24   C     C_3   0.583537 0.542605 0.925320 0.438549
C25   C     C_R   0.660415 0.506174 0.501296 0.942656
C26   C     C_3   0.975728 0.437009 0.555782 0.345625
C27   C     C_3   0.029831 0.435304 0.431781 -0.209390
C28   C     C_1   0.250627 0.521185 0.498360 -0.017443
C29   C     C_1   0.749504 0.516045 0.502612 0.043512
C30   C     C_3   0.030524 0.537811 0.624087 0.301976
H1    H     H_    0.055953 0.353846 0.375592 0.221044
H2    H     H_    0.476183 0.926080 0.713511 0.148987
H3    H     H_    0.572833 0.873270 0.331124 0.232711
H4    H     H_    0.403521 0.088002 0.354466 0.206411
H5    H     H_    0.541520 0.321348 0.863157 0.219075
H6    H     H_    0.369387 0.559897 0.134429 0.231653
H7    H     H_    0.442665 0.671583 0.128433 0.274917
H8    H     H_    0.942300 0.528707 0.276772 0.209788
H9    H     H_    0.047793 0.715380 0.401852 0.221491
H10   H     H_    0.471250 0.119432 0.703657 0.192251
N1    N     N_3   0.498170 0.499750 0.138610 -0.228044
N2    N     N_3   0.498850 0.496730 0.861320 -0.223100
O1    O     O_R   0.499980 0.314910 0.616040 -0.547136
O2    O     O_R   0.500040 0.314680 0.383960 -0.521941
O3    O     O_R   0.376750 0.500100 0.616020 -0.603901
O4    O     O_R   0.376810 0.499870 0.383940 -0.618525
O5    O     O_R   0.499960 0.685320 0.616040 -0.578730
O6    O     O_R   0.500020 0.685090 0.383960 -0.571615
O7    O     O_R   0.623190 0.500130 0.616060 -0.522386
O8    O     O_R   0.623250 0.499900 0.383980 -0.567528
Zn1   Zn    Zn3+2 0.499960 0.500150 0.654960 1.136851
Zn2   Zn    Zn3+2 0.500040 0.499850 0.345040 1.106016
S1    S     S_3+6 0.320670 0.132148 0.533397 0.072862
O9    O     O_2   0.314913 0.262216 0.508987 -0.320406
O10   O     O_2   0.242878 0.070466 0.471216 -0.166031
O11   O     O_3   0.318416 0.119892 0.695103 -0.556503
H11   H     H_    0.265307 0.163013 0.724790 0.430718
O12   O     O_3   0.351146 0.879840 0.525923 -0.726652
H12   H     H_    0.355436 0.912894 0.617850 0.371301
O13   O     O_3   0.555798 0.071313 0.278793 -0.694030
H13   H     H_    0.509166 0.016346 0.247345 0.361116
S2    S     S_3+6 0.685474 0.128732 0.426196 0.240744
O14   O     O_2   0.677718 0.261617 0.457211 -0.317290
O15   O     O_2   0.743246 0.081938 0.528499 -0.062691
O16   O     O_3   0.735222 0.102121 0.282373 -0.450427
H14   H     H_    0.782010 0.161846 0.284725 0.392856
O17   O     O_3   0.666625 0.885675 0.465605 -0.580754
H15   H     H_    0.667015 0.799915 0.481607 0.391097
O18   O     O_3   0.410293 0.876973 0.323699 -0.731507
H16   H     H_    0.369474 0.808776 0.317108 0.402139
O19   O     O_3   0.408212 0.325018 0.106365 -0.680338
H17   H     H_    0.357899 0.362686 0.066232 0.384413
S3    S     S_3+6 0.941953 0.304123 0.624030 0.133567
O20   O     O_2   0.882281 0.337329 0.734949 -0.167056
O21   O     O_2   0.896143 0.224867 0.520069 -0.239979
O22   O     O_3   0.028484 0.230606 0.678617 -0.473487
H18   H     H_    0.005074 0.158580 0.715000 0.395548
S4    S     S_3+6 0.564928 0.255239 0.089148 0.115720
O23   O     O_2   0.605044 0.270966 0.221634 -0.136393
O24   O     O_2   0.518101 0.138262 0.063943 -0.246039
O25   O     O_3   0.648775 0.245362 0.988563 -0.505190
H19   H     H_    0.681194 0.172482 0.010210 0.411075
O26   O     O_3   0.416851 0.315142 0.843198 -0.662711
H20   H     H_    0.415144 0.233590 0.874690 0.387077
O27   O     O_3   0.343333 0.501566 0.911256 -0.707331
H21   H     H_    0.325363 0.499081 0.819020 0.432051
S5    S     S_3+6 0.622409 0.692878 0.150320 0.024290
O28   O     O_2   0.643049 0.691991 0.291096 -0.338350
O29   O     O_2   0.707754 0.717002 0.091453 -0.307695
O30   O     O_3   0.553609 0.803894 0.117670 -0.507460
H22   H     H_    0.589651 0.876443 0.120340 0.417073
O31   O     O_3   0.647752 0.464167 0.126478 -0.669086
H23   H     H_    0.697133 0.502914 0.175105 0.394635
S6    S     S_3+6 0.687124 0.467254 0.860893 0.147422
O32   O     O_2   0.671220 0.356017 0.771357 -0.169536
O33   O     O_2   0.735554 0.553831 0.785697 -0.255895
O34   O     O_3   0.760912 0.426290 0.971283 -0.425985
H24   H     H_    0.798085 0.497306 0.991612 0.390408
O35   O     O_3   0.586557 0.660171 0.889910 -0.624883
H25   H     H_    0.645678 0.689627 0.895875 0.436867
S7    S     S_3+6 0.389257 0.715153 0.887435 0.134886
O36   O     O_2   0.337507 0.776519 0.996579 -0.198260
O37   O     O_2   0.462971 0.794625 0.867477 -0.199290
O38   O     O_3   0.322591 0.705945 0.756525 -0.503723
H26   H     H_    0.357542 0.724376 0.682468 0.366196
S8    S     S_3+6 0.927953 0.764476 0.657798 0.136187
O39   O     O_2   0.866591 0.826630 0.570472 -0.200601
O40   O     O_2   0.881258 0.729588 0.775276 -0.191235
O41   O     O_3   0.008870 0.857637 0.705694 -0.475173
H27   H     H_    0.980959 0.926977 0.755596 0.393937
S9    S     S_3+6 0.074170 0.542397 0.786251 0.137553
O42   O     O_2   0.135203 0.438062 0.796673 -0.234484
O43   O     O_2   0.121629 0.658311 0.816934 -0.182700
O44   O     O_3   0.993811 0.533790 0.892088 -0.476718
H28   H     H_    0.022408 0.536338 0.979137 0.382405
O45   O     O_3   0.599703 0.141961 0.691377 -0.600560
H29   H     H_    0.597978 0.140473 0.787329 0.392379
S10   S     S_3+6 0.626297 0.897089 0.737652 0.140526
O46   O     O_2   0.647596 0.767885 0.698952 -0.260235
O47   O     O_2   0.705119 0.967490 0.714513 -0.134346
O48   O     O_3   0.608200 0.917990 0.898012 -0.480930
H30   H     H_    0.665674 0.931025 0.939636 0.389525

loop_
_geom_bond_atom_site_label_1
_geom_bond_atom_site_label_2
_ccdc_geom_bond_type
S5    O28   D    
C21   S5    S    
S7    O36   D    
O4    Zn2   S    
C24   O35   S    
C24   N2    S    
S3    O20   D    
S9    O42   D    
C4    C8    S    
O44   H28   S    
C13   O13   S    
S1    O9    D    
O11   H11   S    
C26   C27   S    
C22   S7    S    
C12   C28   S    
O26   H20   S    
C8    C29   T    
C10   C15   S    
C5    C6    S    
C11   C14   S    
S4    O24   D    
S8    O39   D    
O3    Zn1   S    
C15   C16   S    
O34   H24   S    
C26   S3    S    
O45   H29   S    
C18   C19   S    
C22   O27   S    
S10   O46   D    
S2    O15   D    
C25   O8    A    
C1    O1    A    
C13   S2    S    
C2    C7    S    
O7    Zn1   S    
O8    Zn2   S    
C6    H8    S    
C2    C27   S    
C9    C10   S    
N1    Zn2   S    
C11   S1    S    
C19   N2    S    
N2    Zn1   S    
O2    Zn2   S    
C15   C23   S    
S7    O37   D    
C13   C14   S    
S3    O21   D    
O18   H16   S    
C17   H3    S    
C19   O26   S    
O38   H26   S    
O25   H19   S    
C25   O7    A    
S1    O10   D    
C3    S8    S    
C25   C29   S    
C17   O17   S    
C23   O5    A    
C27   H1    S    
O17   H15   S    
O22   H18   S    
C12   O4    A    
C18   N1    S    
S4    O23   D    
O5    Zn1   S    
S6    O34   S    
O12   H12   S    
O27   H21   S    
C9    H10   S    
C7    C28   T    
O13   H13   S    
S10   O48   S    
C3    C30   S    
C9    C14   S    
S2    O14   D    
C10   S10   S    
C24   S6    S    
C11   C16   S    
C1    O2    A    
C6    C27   S    
C18   S4    S    
S9    O43   D    
C16   O12   S    
S6    O33   D    
O48   H30   S    
C21   N1    S    
C4    C6    S    
C20   C22   S    
C26   C30   S    
S7    O38   S    
C5    H9    S    
S3    O22   S    
C21   C24   S    
C2    C5    S    
C3    C4    S    
S1    O11   S    
C18   O19   S    
C15   C17   S    
C23   O6    A    
S2    O16   S    
C9    O45   S    
C11   H4    S    
C16   O18   S    
C12   O3    A    
C3    C5    S    
C4    C26   S    
O35   H25   S    
C13   C17   S    
C30   S9    S    
C2    C30   S    
S5    O29   D    
O19   H17   S    
C19   H5    S    
O41   H27   S    
C20   H7    S    
S4    O25   S    
O1    Zn1   S    
O30   H22   S    
C22   N2    S    
S8    O40   D    
O31   H23   S    
S9    O44   S    
S6    O32   D    
S10   O47   D    
C20   H6    S    
C10   H2    S    
O6    Zn2   S    
O16   H14   S    
S5    O30   S    
C1    C14   S    
S8    O41   S    
C20   N1    S    
C21   O31   S    
