data_mof_unit_49124.cif
_audit_creation_date              2013-03-05T16:48:43-0500
_audit_creation_method            fapswitch 2.2
_symmetry_space_group_name_H-M    P1
_symmetry_Int_Tables_number       1
_space_group_crystal_system       triclinic
_cell_length_a                    27.770249
_cell_length_b                    8.916242
_cell_length_c                    8.097888
_cell_angle_alpha                 90.022454
_cell_angle_beta                  89.999985
_cell_angle_gamma                 90.000035
_cell_volume                      2005.08761153

loop_
_atom_site_label
_atom_site_type_symbol
_atom_site_description
_atom_site_fract_x
_atom_site_fract_y
_atom_site_fract_z
_atom_type_partial_charge
O1    O     O_R   0.500000 0.285350 0.636850 -0.613875
O2    O     O_R   0.500000 0.714650 0.363150 -0.613875
O3    O     O_R   0.500000 0.714650 0.636850 -0.613731
O4    O     O_R   0.500000 0.285350 0.363150 -0.613731
C1    C     C_R   0.500000 0.217994 0.499980 0.946770
C2    C     C_R   0.500000 0.782006 0.500020 0.946771
O5    O     O_R   0.428760 0.500000 0.636860 -0.623821
O6    O     O_R   0.571240 0.500000 0.363140 -0.623821
O7    O     O_R   0.571240 0.500000 0.636860 -0.623821
O8    O     O_R   0.428760 0.500000 0.363140 -0.623821
C3    C     C_R   0.405755 0.500000 0.500000 0.871961
C4    C     C_R   0.594245 0.500000 0.500000 0.871963
Zn1   Zn    Zn3+2 0.500000 0.500000 0.682780 0.996737
Zn2   Zn    Zn3+2 0.500000 0.500000 0.317220 0.996737
C5    C     C_R   0.177792 0.368912 0.529345 0.506518
C6    C     C_R   0.822211 0.631090 0.470669 0.506502
C7    C     C_R   0.177792 0.631090 0.470656 0.506517
C8    C     C_R   0.822211 0.368907 0.529329 0.506502
O9    O     O_2   0.202828 0.241580 0.557071 -0.533953
O10   O     O_2   0.797176 0.758430 0.442972 -0.533982
O11   O     O_2   0.202828 0.758423 0.442930 -0.533953
O12   O     O_2   0.797176 0.241567 0.557026 -0.533982
N1    N     N_R   0.201647 0.500001 0.500000 -0.361073
N2    N     N_R   0.798355 0.499998 0.499999 -0.361051
C9    C     C_R   0.277804 0.495984 0.649872 -0.096771
C10   C     C_R   0.722195 0.504475 0.350143 -0.096712
C11   C     C_R   0.277805 0.504018 0.350128 -0.096771
C12   C     C_R   0.722195 0.495522 0.649856 -0.096713
C13   C     C_R   0.327826 0.496157 0.650111 -0.205187
C14   C     C_R   0.672173 0.504299 0.349904 -0.205232
C15   C     C_R   0.327826 0.503845 0.349889 -0.205186
C16   C     C_R   0.672173 0.495699 0.650096 -0.205233
C17   C     C_R   0.252888 0.500002 0.500000 0.320869
C18   C     C_R   0.747113 0.499998 0.499999 0.320737
C19   C     C_R   0.101806 0.500001 0.500000 -0.050144
C20   C     C_R   0.898198 0.499999 0.499999 -0.050148
C21   C     C_R   0.127433 0.366401 0.529878 -0.021364
C22   C     C_R   0.872570 0.633600 0.470132 -0.021349
C23   C     C_R   0.127433 0.633600 0.470122 -0.021364
C24   C     C_R   0.872570 0.366398 0.529866 -0.021349
C25   C     C_R   0.102487 0.233540 0.559394 -0.137838
C26   C     C_R   0.897516 0.766463 0.440625 -0.137835
C27   C     C_R   0.102487 0.766461 0.440607 -0.137838
C28   C     C_R   0.897516 0.233535 0.559373 -0.137835
C29   C     C_R   0.353159 0.500000 0.500000 -0.040893
C30   C     C_R   0.646840 0.500000 0.500000 -0.040886
C31   C     C_R   0.974462 0.363895 0.530284 0.048441
C32   C     C_R   0.025542 0.636104 0.469711 0.048440
C33   C     C_R   0.974462 0.636104 0.469715 0.048441
C34   C     C_R   0.025542 0.363896 0.530288 0.048440
C35   C     C_R   0.949277 0.499999 0.499999 0.070432
C36   C     C_R   0.050726 0.500000 0.500000 0.070435
C37   C     C_R   0.947381 0.231913 0.559694 -0.220285
C38   C     C_R   0.052623 0.768084 0.440288 -0.220284
C39   C     C_R   0.947380 0.768086 0.440304 -0.220285
C40   C     C_R   0.052623 0.231917 0.559712 -0.220284
C41   C     C_1   0.500000 0.065221 0.499971 -0.182715
C42   C     C_1   0.500000 0.934779 0.500029 -0.182715
N3    N     N_1   0.500000 0.500000 0.073640 -0.035340
N4    N     N_1   0.500000 0.500000 0.926360 -0.035340
H1    H     H_    0.346576 0.506823 0.232607 0.164235
H2    H     H_    0.653423 0.492352 0.767365 0.164238
H3    H     H_    0.346576 0.493178 0.767393 0.164235
H4    H     H_    0.653423 0.507647 0.232635 0.164238
H5    H     H_    0.258332 0.506909 0.234247 0.137587
H6    H     H_    0.741666 0.492273 0.765727 0.137658
H7    H     H_    0.258332 0.493094 0.765753 0.137587
H8    H     H_    0.741666 0.507723 0.234271 0.137658
H9    H     H_    0.121449 0.129455 0.582735 0.191335
H10   H     H_    0.878555 0.870549 0.417293 0.191336
H11   H     H_    0.121448 0.870546 0.417266 0.191335
H12   H     H_    0.878555 0.129449 0.582705 0.191336
H13   H     H_    0.963276 0.124246 0.583905 0.136597
H14   H     H_    0.036727 0.875749 0.416067 0.136602
H15   H     H_    0.963276 0.875753 0.416093 0.136597
H16   H     H_    0.036728 0.124251 0.583933 0.136602

loop_
_geom_bond_atom_site_label_1
_geom_bond_atom_site_label_2
_geom_bond_distance
_ccdc_geom_bond_type
C13   H3    1.083437 S    
C5    O9    1.350172 S    
C40   H16   1.074718 S    
C15   H1    1.083437 S    
C14   H4    1.083440 S    
C2    C42   1.362165 S    
C19   C23   1.408621 A    
C9    H7    1.083360 S    
O3    C2    1.260525 A    
Zn1   N4    1.972484 S    
C11   C17   1.397508 A    
C32   C38   1.416802 A    
Zn2   N3    1.972484 S    
C7    N1    1.364443 A    
O1    C1    1.260403 A    
C19   C21   1.408621 A    
C22   C26   1.393052 A    
C32   C36   1.422039 A    
C26   H10   1.083690 S    
C7    C23   1.398662 A    
C8    C24   1.398665 A    
C5    C21   1.398665 A    
C20   C24   1.408616 A    
O7    Zn1   2.012994 S    
C38   H14   1.074718 S    
C28   C37   1.384825 A    
C10   C18   1.397530 A    
N1    C17   1.422964 S    
C34   C36   1.422040 A    
O3    Zn1   1.949819 S    
O6    C4    1.279223 A    
C31   C37   1.416800 A    
C39   H15   1.074718 S    
C5    N1    1.364442 A    
C12   C18   1.397532 A    
N3    N4    1.192656 T    
C6    N2    1.364458 A    
C21   C25   1.393050 A    
O2    C2    1.260403 A    
O5    C3    1.279224 A    
C31   C34   1.418507 A    
C9    C13   1.389112 A    
C11   C15   1.389109 A    
C12   C16   1.389109 A    
C4    C30   1.460590 S    
O8    Zn2   2.012997 S    
C23   C27   1.393049 A    
O6    Zn2   2.012994 S    
C33   C35   1.422039 A    
C33   C39   1.416800 A    
N2    C18   1.423003 S    
C13   C29   1.404911 A    
C12   H6    1.083362 S    
C25   C40   1.384825 A    
C11   H5    1.083360 S    
C26   C39   1.384825 A    
C27   C38   1.384825 A    
C24   C28   1.393052 A    
C6    O10   1.350173 S    
C20   C35   1.418496 A    
C32   C33   1.418507 A    
C10   C14   1.389109 A    
C8    N2    1.364458 A    
C3    C29   1.460596 S    
O1    Zn1   1.949534 S    
C25   H9    1.083691 S    
C27   H11   1.083692 S    
C8    O12   1.350173 S    
C16   C30   1.404907 A    
C14   C30   1.404908 A    
C37   H13   1.074717 S    
O4    C1    1.260525 A    
C31   C35   1.422038 A    
C1    C41   1.362165 S    
C10   H8    1.083364 S    
C20   C22   1.408616 A    
C16   H2    1.083441 S    
C41   C42   1.163052 T    
C28   H12   1.083691 S    
O4    Zn2   1.949820 S    
O2    Zn2   1.949533 S    
O7    C4    1.279223 A    
C34   C40   1.416802 A    
O8    C3    1.279225 A    
O5    Zn1   2.012997 S    
C15   C29   1.404913 A    
C6    C22   1.398665 A    
C19   C36   1.418493 A    
C9    C17   1.397508 A    
C7    O11   1.350174 S    
