data_mof_unit_19524.cif
_audit_creation_date              2012-12-10T17:34:57-0500
_audit_creation_method            fapswitch 2.2
_symmetry_space_group_name_H-M    P1
_symmetry_Int_Tables_number       1
_space_group_crystal_system       triclinic
_cell_length_a                    12.416958
_cell_length_b                    13.328702
_cell_length_c                    13.865136
_cell_angle_alpha                 106.42022
_cell_angle_beta                  73.009663
_cell_angle_gamma                 117.302185
_cell_volume                      1920.01420676

loop_
_atom_site_label
_atom_site_type_symbol
_atom_type_description
_atom_site_fract_x
_atom_site_fract_y
_atom_site_fract_z
_atom_type_partial_charge
C1    C     C_R   0.144651 0.712148 0.502022 0.797892
C2    C     C_1   0.972881 0.508056 0.792709 -0.122071
C3    C     C_R   0.741829 0.960894 0.415830 0.110723
C4    C     C_R   0.774789 0.162055 0.473139 -0.048539
C5    C     C_R   0.183229 0.919638 0.529495 0.430157
C6    C     C_R   0.259169 0.028669 0.574290 0.079479
C7    C     C_R   0.383869 0.056251 0.565710 -0.269634
C8    C     C_R   0.437056 0.980510 0.502208 0.094753
C9    C     C_R   0.357694 0.867614 0.466682 -0.040906
C10   C     C_R   0.566211 0.013313 0.474515 0.028392
C11   C     C_R   0.614840 0.929835 0.422453 0.000770
C12   C     C_R   0.983609 0.504663 0.686617 0.807952
C13   C     C_R   0.534459 0.820340 0.377902 0.416203
C14   C     C_R   0.408491 0.793160 0.398571 -0.222274
C15   C     C_R   0.647986 0.128809 0.492554 -0.261412
C16   C     C_R   0.821483 0.077287 0.440999 0.107881
C17   C     C_R   0.228422 0.833621 0.494789 -0.216417
C18   C     C_R   0.648802 0.687815 0.659119 0.209156
C19   C     C_R   0.257205 0.347415 0.364294 0.601381
C20   C     C_R   0.341790 0.302109 0.355714 -0.264152
C21   C     C_R   0.433090 0.356347 0.413000 -0.293563
C22   C     C_R   0.443580 0.458921 0.480559 0.064625
C23   C     C_R   0.855761 0.285937 0.486684 0.846082
C24   C     C_R   0.344660 0.494235 0.500119 0.238139
C25   C     C_R   0.547761 0.525284 0.530842 -0.023740
C26   C     C_R   0.547708 0.621975 0.607053 0.028833
C27   C     C_R   0.445156 0.649491 0.630619 -0.172757
C28   C     C_R   0.347430 0.587982 0.578575 -0.181313
C29   C     C_R   0.654043 0.500877 0.505607 0.000196
C30   C     C_R   0.746492 0.652035 0.635110 0.291018
C31   C     C_R   0.016707 0.495998 0.313501 0.832163
C32   C     C_1   0.027423 0.494138 0.207839 -0.020472
C33   C     C_2   0.037534 0.492932 0.014911 -0.285543
C34   C     C_2   0.954907 0.513575 0.988253 0.445259
C35   C     C_1   0.964155 0.510810 0.881950 -0.016619
C36   C     C_1   0.033679 0.493272 0.119548 0.165385
Cu1   Cu    Cu3+1 0.899780 0.525060 0.522890 1.028339
Cu2   Cu    Cu3+1 0.100220 0.474940 0.477110 1.023660
H1    H     H_    0.349844 0.714234 0.357226 0.218234
H2    H     H_    0.437588 0.719552 0.690188 0.231908
H3    H     H_    0.664362 0.433517 0.444083 0.147723
H4    H     H_    0.495849 0.316891 0.400981 0.171788
H5    H     H_    0.343182 0.227569 0.299200 0.234810
H6    H     H_    0.274903 0.616641 0.603628 0.202214
H7    H     H_    0.109962 0.474854 0.956809 0.151678
H8    H     H_    0.614384 0.195293 0.517422 0.162525
H9    H     H_    0.437382 0.139279 0.605444 0.159083
N1    N     N_R   0.748810 0.563010 0.557590 -0.188283
N2    N     N_R   0.250540 0.437620 0.443020 -0.264574
O1    O     O_R   0.025040 0.682470 0.528790 -0.511541
O2    O     O_R   0.194310 0.640150 0.490130 -0.620957
O3    O     O_R   0.903380 0.524130 0.659910 -0.543171
O4    O     O_R   0.072660 0.481800 0.621240 -0.609079
O5    O     O_R   0.805690 0.359850 0.509870 -0.615122
O6    O     O_R   0.974960 0.317530 0.471210 -0.517356
O7    O     O_R   0.927340 0.518200 0.378760 -0.550681
O8    O     O_R   0.096620 0.475870 0.340090 -0.509023
S1    S     S_3+6 0.834505 0.543498 0.078577 0.053323
O9    O     O_2   0.755297 0.444684 0.135074 -0.299238
O10   O     O_2   0.888938 0.650268 0.153766 -0.227748
O11   O     O_3   0.747876 0.562848 0.018145 -0.483020
H10   H     H_    0.675119 0.565143 0.071072 0.413380
N3    N     N_3   0.843419 0.705394 0.692522 -0.488069
H11   H     H_    0.896817 0.789558 0.680345 0.286538
H12   H     H_    0.805218 0.703078 0.770194 0.256397
S2    S     S_3+6 0.651441 0.813074 0.752653 0.031048
O12   O     O_2   0.546319 0.776603 0.840927 -0.226940
O13   O     O_2   0.769006 0.879982 0.793736 -0.247330
O14   O     O_3   0.630950 0.900785 0.699896 -0.505775
H13   H     H_    0.700135 0.918827 0.640619 0.353265
S3    S     S_3+6 0.186534 0.298341 0.254850 0.038701
O15   O     O_2   0.049018 0.258936 0.280855 -0.296832
O16   O     O_2   0.242394 0.394033 0.194522 -0.254175
O17   O     O_3   0.216413 0.187268 0.178787 -0.529644
H14   H     H_    0.183431 0.171583 0.116578 0.392610
N4    N     N_3   0.949702 0.109775 0.434984 -0.530437
H15   H     H_    0.957534 0.076320 0.490584 0.279160
H16   H     H_    0.987387 0.077695 0.361913 0.294737
S4    S     S_3+6 0.585343 0.720445 0.284012 0.041333
O18   O     O_2   0.484454 0.634359 0.226821 -0.275861
O19   O     O_2   0.695230 0.782688 0.208673 -0.220419
O20   O     O_3   0.624269 0.650042 0.341891 -0.507941
H17   H     H_    0.635441 0.586502 0.288280 0.403917
N5    N     N_3   0.787695 0.874171 0.392627 -0.445375
H18   H     H_    0.815840 0.875958 0.457132 0.274418
H19   H     H_    0.862707 0.890174 0.331435 0.300849
S5    S     S_3+6 0.058623 0.908787 0.484039 -0.012631
O21   O     O_2   0.989606 0.791348 0.428266 -0.234774
O22   O     O_2   0.971151 0.943501 0.572365 -0.337643
O23   O     O_3   0.118999 0.998997 0.399745 -0.528540
H20   H     H_    0.163598 0.075783 0.437848 0.343796
N6    N     N_3   0.210781 0.113234 0.625317 -0.525030
H21   H     H_    0.224235 0.137674 0.700948 0.243787
H22   H     H_    0.262246 0.185385 0.589902 0.210958

loop_
_geom_bond_atom_site_label_1
_geom_bond_atom_site_label_2
_ccdc_geom_bond_type
C2    C35   T    
S2    O13   D    
S5    O21   D    
C13   S4    S    
C33   H7    S    
C19   S3    S    
C19   C20   A    
C18   C26   A    
C2    C12   S    
N3    H12   S    
C7    C8    A    
Cu2   N2    S    
C26   C27   A    
C32   C36   T    
C30   N1    A    
N4    H16   S    
C10   C15   A    
C5    C6    A    
S2    O14   S    
C5    C17   A    
S1    O10   D    
C33   C36   S    
C34   C35   S    
C14   H1    S    
Cu1   O7    S    
Cu2   O6    S    
C8    C9    A    
C22   C25   A    
C18   C30   A    
C13   C14   A    
C31   O7    A    
C1    O1    A    
C12   O4    A    
S1    O11   S    
S2    O12   D    
C21   C22   A    
O11   H10   S    
C12   O3    A    
C25   C29   A    
O17   H14   S    
C29   N1    A    
N5    H18   S    
S4    O19   D    
C4    C23   S    
Cu2   O2    S    
C25   C26   A    
C28   H6    S    
C21   H4    S    
C7    H9    S    
C4    C16   A    
C9    C14   A    
Cu1   Cu2   S    
S3    O17   S    
Cu2   O8    S    
C19   N2    A    
C31   C32   S    
C27   H2    S    
N6    H22   S    
C33   C34   D    
N4    H15   S    
Cu1   N1    S    
C1    O2    A    
Cu1   O5    S    
C9    C17   A    
S5    O22   D    
C22   C24   A    
S4    O18   D    
C3    N5    S    
C20   H5    S    
C23   O5    A    
S3    O16   D    
C24   N2    A    
Cu1   O3    S    
C29   H3    S    
C16   N4    S    
C24   C28   A    
N5    H19   S    
S4    O20   S    
C23   O6    A    
C6    C7    A    
C18   S2    S    
C1    C17   S    
C31   O8    A    
C4    C15   A    
S1    O9    D    
S3    O15   D    
Cu1   O1    S    
C11   C13   A    
O23   H20   S    
Cu2   O4    S    
C6    N6    S    
N6    H21   S    
O14   H13   S    
C3    C11   A    
C10   C11   A    
N3    H11   S    
C5    S5    S    
C20   C21   A    
C8    C10   A    
O20   H17   S    
S5    O23   S    
C27   C28   A    
C34   S1    S    
C15   H8    S    
C30   N3    S    
C3    C16   A    
