data_mof_unit_32549.cif
_audit_creation_date              2012-10-26T17:10:25-0400
_audit_creation_method            fapswitch 2.2
_symmetry_space_group_name_H-M    P1
_symmetry_Int_Tables_number       1
_space_group_crystal_system       triclinic
_cell_length_a                    16.984894
_cell_length_b                    16.984893
_cell_length_c                    16.984893
_cell_angle_alpha                 66.596123
_cell_angle_beta                  66.596119
_cell_angle_gamma                 66.596122
_cell_volume                      3956.54903542

loop_
_atom_site_label
_atom_site_type_symbol
_atom_type_description
_atom_site_fract_x
_atom_site_fract_y
_atom_site_fract_z
_atom_type_partial_charge
C1    C     C_R   0.596396 0.020747 0.599812 0.040432
C2    C     C_R   0.168910 0.431055 0.981877 0.560601
C3    C     C_R   0.565314 0.027803 0.829304 0.546858
C4    C     C_R   0.431055 0.981877 0.168910 0.560601
C5    C     C_R   0.434686 0.170695 0.972197 0.546858
C6    C     C_R   0.568944 0.831090 0.018123 0.560601
C7    C     C_R   0.972197 0.434686 0.170695 0.546858
C8    C     C_R   0.018123 0.568944 0.831090 0.560601
C9    C     C_R   0.170695 0.972197 0.434686 0.546858
C10   C     C_R   0.831090 0.018123 0.568944 0.560601
C11   C     C_R   0.545047 0.010948 0.549793 0.075277
C12   C     C_R   0.400188 0.979252 0.403604 0.040432
C13   C     C_R   0.450207 0.989052 0.454953 0.075277
C14   C     C_R   0.010948 0.549793 0.545047 0.075277
C15   C     C_R   0.989052 0.454953 0.450207 0.075277
C16   C     C_R   0.549793 0.545047 0.010948 0.075277
C17   C     C_R   0.454953 0.450207 0.989052 0.075277
C18   C     C_R   0.581836 0.013864 0.457854 0.080338
C19   C     C_R   0.407407 0.002941 0.541190 0.082527
C20   C     C_R   0.013865 0.457854 0.581836 0.080338
C21   C     C_R   0.002941 0.541191 0.407407 0.082528
C22   C     C_R   0.457854 0.581836 0.013864 0.080338
C23   C     C_R   0.020748 0.599812 0.596395 0.040432
C24   C     C_R   0.541190 0.407407 0.002942 0.082527
C25   C     C_R   0.542146 0.986135 0.418164 0.080338
C26   C     C_R   0.458810 0.997059 0.592593 0.082528
C27   C     C_R   0.418164 0.542146 0.986135 0.080338
C28   C     C_R   0.592593 0.458809 0.997059 0.082528
C29   C     C_R   0.986136 0.418164 0.542146 0.080338
C30   C     C_R   0.997058 0.592593 0.458810 0.082528
C31   C     C_R   0.553586 0.043955 0.681197 -0.095110
C32   C     C_R   0.431426 0.995909 0.309586 -0.092417
C33   C     C_R   0.043955 0.681197 0.553586 -0.095110
C34   C     C_R   0.979253 0.403605 0.400188 0.040431
C35   C     C_R   0.995909 0.309586 0.431426 -0.092417
C36   C     C_R   0.681197 0.553586 0.043955 -0.095110
C37   C     C_R   0.309586 0.431426 0.995909 -0.092417
C38   C     C_R   0.318803 0.956045 0.446414 -0.095110
C39   C     C_R   0.690414 0.004091 0.568574 -0.092417
C40   C     C_R   0.446414 0.318803 0.956045 -0.095110
C41   C     C_R   0.568574 0.690414 0.004091 -0.092417
C42   C     C_R   0.956045 0.446414 0.318803 -0.095111
C43   C     C_R   0.004091 0.568574 0.690414 -0.092417
C44   C     C_R   0.603711 0.038699 0.732889 -0.026598
C45   C     C_R   0.599812 0.596395 0.020747 0.040431
C46   C     C_R   0.389896 0.978995 0.263430 -0.023460
C47   C     C_R   0.038699 0.732889 0.603711 -0.026597
C48   C     C_R   0.978995 0.263430 0.389896 -0.023460
C49   C     C_R   0.732889 0.603711 0.038699 -0.026598
C50   C     C_R   0.263430 0.389897 0.978995 -0.023460
C51   C     C_R   0.267111 0.961301 0.396289 -0.026598
C52   C     C_R   0.736570 0.021005 0.610103 -0.023460
C53   C     C_R   0.396289 0.267111 0.961301 -0.026597
C54   C     C_R   0.610103 0.736570 0.021005 -0.023460
C55   C     C_R   0.961301 0.396289 0.267111 -0.026598
C56   C     C_R   0.403604 0.400188 0.979252 0.040432
C57   C     C_R   0.021005 0.610103 0.736570 -0.023460
C58   C     C_R   0.693584 0.034603 0.694095 -0.140951
C59   C     C_R   0.305905 0.965397 0.306416 -0.140951
C60   C     C_R   0.034603 0.694095 0.693584 -0.140951
C61   C     C_R   0.965397 0.306416 0.305905 -0.140951
C62   C     C_R   0.694095 0.693584 0.034603 -0.140951
C63   C     C_R   0.306416 0.305905 0.965397 -0.140951
C64   C     C_R   0.027803 0.829304 0.565314 0.546857
C65   C     C_R   0.981877 0.168910 0.431055 0.560601
C66   C     C_R   0.829304 0.565314 0.027803 0.546858
Cu1   Cu    Cu3+1 0.995180 0.995180 0.424630 0.933233
Cu2   Cu    Cu3+1 0.004820 0.004820 0.575370 0.933233
Cu3   Cu    Cu3+1 0.995180 0.424630 0.995180 0.933233
Cu4   Cu    Cu3+1 0.004820 0.575370 0.004820 0.933232
Cu5   Cu    Cu3+1 0.424630 0.995180 0.995180 0.933233
Cu6   Cu    Cu3+1 0.575370 0.004820 0.004820 0.933232
H1    H     H_    0.481910 0.064275 0.707103 0.164011
H2    H     H_    0.513438 0.729677 0.975927 0.165428
H3    H     H_    0.935724 0.518090 0.292897 0.164011
H4    H     H_    0.975928 0.513438 0.729677 0.165428
H5    H     H_    0.731034 0.038016 0.730939 0.158387
H6    H     H_    0.269061 0.961984 0.268966 0.158387
H7    H     H_    0.038015 0.730939 0.731034 0.158388
H8    H     H_    0.961984 0.268966 0.269061 0.158388
H9    H     H_    0.730939 0.731034 0.038015 0.158387
H10   H     H_    0.268966 0.269061 0.961984 0.158387
H11   H     H_    0.363866 0.020565 0.706763 0.222646
H12   H     H_    0.486562 0.024073 0.270323 0.165428
H13   H     H_    0.411284 0.910912 0.709863 0.235357
H14   H     H_    0.624819 0.999944 0.290985 0.223139
H15   H     H_    0.649632 0.896360 0.362918 0.236719
H16   H     H_    0.020564 0.706764 0.363866 0.222646
H17   H     H_    0.910910 0.709863 0.411286 0.235357
H18   H     H_    0.999946 0.290985 0.624818 0.223139
H19   H     H_    0.896362 0.362917 0.649632 0.236719
H20   H     H_    0.706763 0.363865 0.020567 0.222646
H21   H     H_    0.709863 0.411283 0.910913 0.235357
H22   H     H_    0.290986 0.624819 0.999943 0.223139
H23   H     H_    0.064275 0.707103 0.481910 0.164011
H24   H     H_    0.362918 0.649632 0.896359 0.236719
H25   H     H_    0.293237 0.979434 0.636134 0.222646
H26   H     H_    0.290137 0.089088 0.588716 0.235357
H27   H     H_    0.709015 0.000055 0.375182 0.223139
H28   H     H_    0.637082 0.103640 0.350368 0.236718
H29   H     H_    0.636134 0.293236 0.979436 0.222646
H30   H     H_    0.588714 0.290137 0.089089 0.235357
H31   H     H_    0.375182 0.709015 0.000055 0.223139
H32   H     H_    0.350368 0.637083 0.103639 0.236719
H33   H     H_    0.979433 0.636135 0.293237 0.222646
H34   H     H_    0.024073 0.270323 0.486562 0.165428
H35   H     H_    0.089087 0.588717 0.290137 0.235357
H36   H     H_    0.000058 0.375181 0.709014 0.223139
H37   H     H_    0.103642 0.350368 0.637081 0.236719
H38   H     H_    0.707103 0.481910 0.064276 0.164011
H39   H     H_    0.270323 0.486562 0.024072 0.165428
H40   H     H_    0.292897 0.935724 0.518090 0.164011
H41   H     H_    0.729677 0.975927 0.513438 0.165428
H42   H     H_    0.518090 0.292897 0.935725 0.164011
N1    N     N_3   0.424043 0.972663 0.688247 -0.655220
N2    N     N_3   0.402645 0.656568 0.049050 -0.653067
N3    N     N_3   0.027336 0.575958 0.311753 -0.655220
N4    N     N_3   0.049052 0.402645 0.656567 -0.653067
N5    N     N_3   0.597355 0.950949 0.343432 -0.653067
N6    N     N_3   0.972662 0.688247 0.424043 -0.655219
N7    N     N_3   0.950950 0.343432 0.597355 -0.653067
N8    N     N_3   0.688247 0.424042 0.972664 -0.655220
N9    N     N_3   0.343433 0.597355 0.950948 -0.653066
N10   N     N_3   0.311753 0.027337 0.575958 -0.655220
N11   N     N_3   0.656568 0.049051 0.402645 -0.653066
N12   N     N_3   0.575957 0.311753 0.027338 -0.655219
O1    O     O_R   0.124540 0.978640 0.385460 -0.516119
O2    O     O_R   0.124540 0.385460 0.978640 -0.509239
O3    O     O_R   0.021360 0.875460 0.614540 -0.516119
O4    O     O_R   0.978640 0.124540 0.385460 -0.509239
O5    O     O_R   0.013780 0.867370 0.487190 -0.508513
O6    O     O_R   0.986220 0.132630 0.512810 -0.504260
O7    O     O_R   0.867370 0.487190 0.013780 -0.508513
O8    O     O_R   0.132630 0.512810 0.986220 -0.504260
O9    O     O_R   0.487190 0.013780 0.867370 -0.508513
O10   O     O_R   0.512810 0.986220 0.132630 -0.504260
O11   O     O_R   0.512810 0.132630 0.986220 -0.508513
O12   O     O_R   0.875460 0.021360 0.614540 -0.509239
O13   O     O_R   0.487190 0.867370 0.013780 -0.504260
O14   O     O_R   0.986220 0.512810 0.132630 -0.508513
O15   O     O_R   0.013780 0.487190 0.867370 -0.504260
O16   O     O_R   0.132630 0.986220 0.512810 -0.508513
O17   O     O_R   0.867370 0.013780 0.487190 -0.504260
O18   O     O_R   0.978640 0.385460 0.124540 -0.516119
O19   O     O_R   0.021360 0.614540 0.875460 -0.509240
O20   O     O_R   0.385460 0.124540 0.978640 -0.516119
O21   O     O_R   0.614540 0.875460 0.021360 -0.509239
O22   O     O_R   0.614540 0.021360 0.875460 -0.516119
O23   O     O_R   0.385460 0.978640 0.124540 -0.509239
O24   O     O_R   0.875460 0.614540 0.021360 -0.516119

loop_
_geom_bond_atom_site_label_1
_geom_bond_atom_site_label_2
_ccdc_geom_bond_type
C16   C28   A    
C11   C18   A    
Cu4   O14   S    
C6    O21   A    
C46   C59   A    
C40   C56   A    
Cu2   O12   S    
C8    O19   A    
Cu4   O24   S    
C7    C55   S    
C10   C52   S    
C20   N4    S    
C65   O4    A    
C60   H7    S    
C4    C46   S    
Cu3   O18   S    
H26   N10   S    
C4    O23   A    
C42   H3    S    
C2    O8    A    
C5    C53   S    
C6    C54   S    
C66   O24   A    
H25   N10   S    
Cu1   O1    S    
C18   N11   S    
Cu5   O9    S    
C7    O14   A    
C8    C57   S    
C28   N8    S    
C31   H1    S    
H11   N1    S    
C61   H8    S    
Cu3   O15   S    
C25   N5    S    
C1    C31   A    
C23   C43   A    
C34   C35   A    
C6    O13   A    
Cu2   O6    S    
C19   C26   A    
C26   N1    S    
C21   N3    S    
C2    C50   S    
C58   H5    S    
C47   C60   A    
H32   N2    S    
C37   C56   A    
C40   H42   S    
Cu3   O2    S    
C44   C58   A    
C34   C42   A    
C39   H41   S    
C29   N7    S    
C16   C22   A    
H17   N6    S    
H30   N12   S    
Cu2   O16   S    
C8    O15   A    
C5    O20   A    
C48   C65   S    
H16   N6    S    
C15   C34   S    
C4    O10   A    
H22   N9    S    
C22   N2    S    
C39   C52   A    
C41   H2    S    
Cu1   O17   S    
C3    O22   A    
C12   C32   A    
C24   N12   S    
C50   C63   A    
H33   N3    S    
Cu2   O3    S    
C18   C25   A    
C14   C30   A    
C35   C48   A    
C33   H23   S    
C59   H6    S    
C7    O18   A    
H37   N4    S    
C15   C29   A    
C20   C29   A    
C32   H12   S    
C3    C44   S    
C17   C24   A    
C49   C66   S    
C13   C19   A    
C63   H10   S    
H28   N11   S    
C17   C27   A    
C14   C20   A    
H13   N1    S    
H21   N8    S    
H27   N11   S    
C31   C44   A    
C47   C64   S    
C27   N9    S    
C57   C60   A    
Cu5   O13   S    
C38   C51   A    
C54   C62   A    
C11   C26   A    
C23   C33   A    
Cu6   O22   S    
H36   N4    S    
Cu1   Cu2   S    
C14   C23   S    
H15   N5    S    
H20   N8    S    
C42   C55   A    
C66   O7    A    
C1    C39   A    
C64   O5    A    
H29   N12   S    
C36   C45   A    
Cu4   O19   S    
C9    O1    A    
C64   O3    A    
C17   C56   S    
H14   N5    S    
C52   C58   A    
Cu6   O11   S    
C62   H9    S    
C22   C27   A    
C36   H38   S    
C33   C47   A    
H18   N7    S    
Cu1   O4    S    
C51   C59   A    
C38   H40   S    
C65   O6    A    
C43   H4    S    
Cu3   O7    S    
C49   C62   A    
H24   N9    S    
C32   C46   A    
Cu1   O5    S    
C24   C28   A    
C13   C25   A    
C16   C45   S    
C9    O16   A    
C5    O11   A    
Cu6   O21   S    
C21   C30   A    
C9    C51   S    
H31   N2    S    
Cu5   Cu6   S    
C35   H34   S    
C37   C50   A    
C53   C63   A    
C48   C61   A    
Cu5   O23   S    
C30   N6    S    
C55   C61   A    
C3    O9    A    
C10   O17   A    
C12   C38   A    
Cu3   Cu4   S    
C19   N10   S    
C41   C54   A    
C37   H39   S    
Cu6   O10   S    
C43   C57   A    
C15   C21   A    
Cu5   O20   S    
C12   C13   S    
C40   C53   A    
H19   N7    S    
Cu4   O8    S    
C41   C45   A    
C1    C11   S    
C10   O12   A    
H35   N3    S    
C36   C49   A    
C2    O2    A    
