data_mof_unit_59900.cif
_audit_creation_date              2012-12-10T20:40:01-0500
_audit_creation_method            fapswitch 2.2
_symmetry_space_group_name_H-M    P1
_symmetry_Int_Tables_number       1
_space_group_crystal_system       triclinic
_cell_length_a                    23.362137
_cell_length_b                    10.605615
_cell_length_c                    9.902891
_cell_angle_alpha                 89.035897
_cell_angle_beta                  88.806456
_cell_angle_gamma                 90.524438
_cell_volume                      2452.64715366

loop_
_atom_site_label
_atom_site_type_symbol
_atom_type_description
_atom_site_fract_x
_atom_site_fract_y
_atom_site_fract_z
_atom_type_partial_charge
C1    C     C_R   0.498518 0.260648 0.500949 0.918022
C2    C     C_R   0.972405 0.369259 0.325371 -0.136897
C3    C     C_R   0.031901 0.371833 0.319842 0.460937
C4    C     C_R   0.062079 0.460982 0.397359 -0.136015
C5    C     C_R   0.031232 0.555601 0.466249 -0.062577
C6    C     C_R   0.060474 0.648237 0.539103 -0.109596
C7    C     C_R   0.029924 0.744507 0.602370 -0.126086
C8    C     C_R   0.970483 0.749063 0.596895 0.459778
C9    C     C_R   0.121621 0.456197 0.414000 0.571878
C10   C     C_R   0.119959 0.642170 0.547183 0.613116
C11   C     C_R   0.243994 0.608276 0.408911 0.493203
C12   C     C_R   0.389480 0.499243 0.501184 0.925676
C13   C     C_R   0.303107 0.592398 0.411040 -0.348187
C14   C     C_R   0.327405 0.507256 0.502266 -0.293861
C15   C     C_R   0.292267 0.435524 0.593450 0.411958
C16   C     C_R   0.233161 0.453914 0.594798 0.437445
C17   C     C_R   0.209212 0.538837 0.500222 0.043545
C18   C     C_R   0.763737 0.503771 0.607283 -0.065948
C19   C     C_R   0.704386 0.492458 0.612349 -0.225443
C20   C     C_R   0.673044 0.510066 0.494248 -0.057561
C21   C     C_R   0.701644 0.539852 0.371638 -0.180541
C22   C     C_R   0.760733 0.552494 0.367184 -0.089774
C23   C     C_R   0.499804 0.739314 0.498813 0.978797
C24   C     C_R   0.791865 0.534027 0.484664 0.292746
C25   C     C_R   0.545199 0.065555 0.532209 0.008058
C26   C     C_R   0.495421 0.128580 0.500789 -0.166623
C27   C     C_R   0.447776 0.064579 0.446700 0.050474
C28   C     C_R   0.449890 0.931743 0.441411 0.453276
C29   C     C_R   0.497896 0.871116 0.494211 -0.219558
C30   C     C_R   0.546296 0.937408 0.529698 -0.056601
C31   C     C_3   0.582016 0.926736 0.652860 0.266486
C32   C     C_3   0.580884 0.070851 0.656056 -0.060068
C33   C     C_R   0.452342 0.464064 0.074820 0.111981
C34   C     C_R   0.610695 0.501456 0.498557 0.848085
C35   C     C_R   0.543960 0.553903 0.067091 0.453226
C36   C     C_R   0.544314 0.550577 0.923891 -0.138718
C37   C     C_R   0.452403 0.462150 0.933144 0.184502
C38   C     C_3   0.420175 0.337836 0.937903 -0.064535
C39   C     C_3   0.420283 0.343618 0.091773 -0.473771
C40   C     C_R   0.879901 0.638317 0.542608 0.525151
C41   C     C_R   0.882155 0.454649 0.405900 0.542111
C42   C     C_R   0.941755 0.459202 0.398442 -0.084175
C43   C     C_R   0.970957 0.555698 0.465451 -0.055964
C44   C     C_R   0.939998 0.649999 0.534560 -0.127345
H1    H     H_    0.950257 0.297410 0.269397 0.217335
H2    H     H_    0.683158 0.469337 0.707976 0.167221
H3    H     H_    0.678472 0.554660 0.279358 0.209186
H4    H     H_    0.782517 0.576000 0.272345 0.156970
H5    H     H_    0.559869 0.879701 0.741092 0.092059
H6    H     H_    0.556943 0.107128 0.745149 0.134347
H7    H     H_    0.580140 0.590950 0.866649 0.175260
H8    H     H_    0.376286 0.346091 0.897891 0.227190
H9    H     H_    0.376997 0.357782 0.137417 0.205236
H10   H     H_    0.446058 0.269913 0.142837 0.228658
H11   H     H_    0.052170 0.818648 0.654711 0.221414
H12   H     H_    0.330342 0.647029 0.341561 0.211170
H13   H     H_    0.787934 0.488521 0.698107 0.156388
N1    N     N_R   0.852795 0.542572 0.477926 -0.356256
N2    N     N_R   0.148697 0.546140 0.487133 -0.333021
N3    N     N_R   0.499610 0.499140 0.142800 -0.159316
N4    N     N_R   0.499610 0.499180 0.857150 -0.142401
O1    O     O_R   0.500010 0.316790 0.614690 -0.631813
O2    O     O_2   0.853542 0.361629 0.343773 -0.546822
O3    O     O_2   0.152433 0.360922 0.361930 -0.504063
O4    O     O_2   0.148974 0.729991 0.616126 -0.516129
O5    O     O_R   0.500000 0.316760 0.385350 -0.607641
O6    O     O_R   0.416160 0.499980 0.614700 -0.604320
O7    O     O_R   0.416150 0.499940 0.385360 -0.604960
O8    O     O_R   0.500000 0.683240 0.614650 -0.635504
O9    O     O_R   0.499990 0.683210 0.385310 -0.611950
O10   O     O_R   0.583850 0.500060 0.614640 -0.636545
O11   O     O_R   0.583840 0.500020 0.385300 -0.612733
O12   O     O_2   0.848554 0.719400 0.616328 -0.515006
Zn1   Zn    Zn3+2 0.500000 0.500020 0.653130 0.945892
Zn2   Zn    Zn3+2 0.500000 0.499980 0.346870 0.973568
C45   C     C_3   0.394216 0.134022 0.405871 -0.888789
H14   H     H_    0.387147 0.122345 0.296293 0.241634
H15   H     H_    0.356701 0.095778 0.464414 0.268143
H16   H     H_    0.396030 0.236343 0.425297 0.228986
O13   O     O_3   0.405394 0.857772 0.395434 -0.775621
H17   H     H_    0.377362 0.910178 0.347418 0.349022
O14   O     O_3   0.636173 0.877415 0.622328 -0.706051
H18   H     H_    0.630844 0.784548 0.619864 0.334989
C46   C     C_3   0.638222 0.138963 0.629315 -0.668491
H19   H     H_    0.659316 0.106970 0.534413 0.275790
H20   H     H_    0.630880 0.241956 0.620463 0.200699
H21   H     H_    0.667076 0.121190 0.715083 0.251802
O15   O     O_3   0.588482 0.615621 0.126387 -0.777650
H22   H     H_    0.573312 0.651265 0.211012 0.371815
O16   O     O_3   0.058594 0.286345 0.237190 -0.689597
H23   H     H_    0.088570 0.333177 0.184201 0.374679
C47   C     C_3   0.452540 0.223429 0.884703 -0.793345
H24   H     H_    0.499564 0.236473 0.892570 0.242136
H25   H     H_    0.439425 0.137365 0.943344 0.236285
H26   H     H_    0.440695 0.206682 0.778890 0.254796
O17   O     O_3   0.944165 0.851910 0.652935 -0.694718
H27   H     H_    0.916281 0.883353 0.586570 0.373322
O18   O     O_3   0.218801 0.689307 0.317586 -0.709123
H28   H     H_    0.249105 0.730652 0.260379 0.344082
O19   O     O_3   0.313370 0.344225 0.679712 -0.707856
H29   H     H_    0.351478 0.317302 0.646487 0.317897
O20   O     O_3   0.200116 0.383648 0.686419 -0.663560
H30   H     H_    0.159885 0.411766 0.684063 0.334707

loop_
_geom_bond_atom_site_label_1
_geom_bond_atom_site_label_2
_ccdc_geom_bond_type
C22   H4    S    
C9    O3    S    
C41   C42   A    
C23   O8    A    
C19   C20   A    
C8    O17   S    
C45   H16   S    
C7    H11   S    
C15   O19   S    
C1    O1    A    
C19   H2    S    
C7    C8    A    
C39   H9    S    
O7    Zn2   S    
C12   O7    A    
C26   C27   A    
C33   C39   S    
C31   O14   S    
C11   O18   S    
C18   C24   A    
C23   C29   S    
C28   C29   A    
C45   H15   S    
C41   N1    A    
C5    C6    A    
C39   H10   S    
C38   H8    S    
C15   C16   A    
C38   C47   S    
C40   O12   S    
C18   C19   A    
C47   H24   S    
C35   C36   A    
C16   C17   A    
C46   H21   S    
C29   C30   A    
C13   H12   S    
C20   C34   S    
C25   C32   S    
C5    C43   A    
C21   C22   A    
C23   O9    A    
C31   H5    S    
O11   Zn2   S    
C2    H1    S    
C32   C46   S    
C12   O6    A    
C40   N1    A    
C45   H14   S    
O13   H17   S    
C25   C26   A    
C47   H26   S    
C33   C37   A    
C3    C4    A    
C35   N3    A    
C9    N2    A    
C43   C44   A    
C37   C38   S    
C35   O15   S    
C18   H13   S    
C31   C32   S    
C30   C31   S    
O17   H27   S    
C20   C21   A    
C47   H25   S    
C1    O5    A    
O8    Zn1   S    
O6    Zn1   S    
C46   H19   S    
C32   H6    S    
C36   H7    S    
C17   N2    S    
C16   O20   S    
C12   C14   S    
O18   H28   S    
C33   N3    A    
C3    O16   S    
C1    C26   S    
C22   C24   A    
C42   C43   A    
C41   O2    S    
C27   C45   S    
C34   O11   A    
O9    Zn2   S    
C10   O4    S    
C25   C30   A    
C11   C17   A    
C8    C44   A    
C46   H20   S    
C4    C5    A    
C6    C10   A    
O10   Zn1   S    
C37   N4    A    
C6    C7    A    
N4    Zn1   S    
N3    Zn2   S    
C2    C3    A    
C11   C13   A    
O16   H23   S    
C38   C39   S    
C2    C42   A    
O5    Zn2   S    
O19   H29   S    
C10   N2    A    
O20   H30   S    
C28   O13   S    
C40   C44   A    
O15   H22   S    
C24   N1    S    
O14   H18   S    
C27   C28   A    
C14   C15   A    
O1    Zn1   S    
C4    C9    A    
C13   C14   A    
C34   O10   A    
C36   N4    A    
C21   H3    S    
