data_mof_unit_16960.cif
_audit_creation_date              2012-12-11T14:29:30-0500
_audit_creation_method            fapswitch 2.2
_symmetry_space_group_name_H-M    P1
_symmetry_Int_Tables_number       1
_space_group_crystal_system       triclinic
_cell_length_a                    6.939162
_cell_length_b                    14.749782
_cell_length_c                    16.239601
_cell_angle_alpha                 90.473731
_cell_angle_beta                  89.924997
_cell_angle_gamma                 89.931139
_cell_volume                      1662.08200044

loop_
_atom_site_label
_atom_site_type_symbol
_atom_type_description
_atom_site_fract_x
_atom_site_fract_y
_atom_site_fract_z
_atom_type_partial_charge
O1    O     O_R   0.494400 0.416610 0.413880 -0.532996
O2    O     O_R   0.823920 0.406790 0.585520 -0.546508
O3    O     O_R   0.994250 0.583390 0.586120 -0.540470
C1    C     C_R   0.654622 0.384851 0.613367 0.741204
O4    O     O_R   0.824110 0.405730 0.414490 -0.542980
O5    O     O_R   0.994440 0.582310 0.413870 -0.541334
C2    C     C_R   0.654947 0.382454 0.387623 0.752223
O6    O     O_R   0.494210 0.417690 0.586130 -0.541240
O7    O     O_3   0.660810 0.557940 0.500000 -0.372644
V1    V     V_3+5 0.935650 0.489250 0.500000 1.485672
O8    O     O_R   0.324160 0.593210 0.414480 -0.537134
C3    C     C_R   0.155264 0.616198 0.387609 0.739945
O9    O     O_R   0.323970 0.594270 0.585510 -0.542574
C4    C     C_R   0.154954 0.615968 0.614085 0.677419
V2    V     V_3+5 0.435660 0.510750 0.500000 1.503274
O10   O     O_3   0.160630 0.442060 0.500000 -0.371240
C5    C     C_R   0.026919 0.566006 0.777650 -0.318639
C6    C     C_R   0.964959 0.539444 0.855573 0.352299
C7    C     C_R   0.954173 0.602723 0.919498 0.693204
C8    C     C_R   0.005116 0.692664 0.905848 -0.291203
C9    C     C_R   0.066702 0.721811 0.827297 -0.022398
C10   C     C_R   0.078174 0.657113 0.761762 0.014693
C11   C     C_R   0.120718 0.813261 0.814032 -0.074218
C12   C     C_R   0.187380 0.839786 0.735104 0.013127
C13   C     C_R   0.198824 0.775185 0.669562 0.011281
C14   C     C_R   0.144162 0.683705 0.682710 -0.078464
C15   C     C_R   0.239984 0.930734 0.719540 -0.286188
C16   C     C_R   0.304115 0.957559 0.642040 0.402842
C17   C     C_R   0.314641 0.894249 0.577686 0.411812
C18   C     C_R   0.261584 0.804379 0.591220 -0.272940
H1    H     H_    0.036029 0.514173 0.730291 0.163655
H2    H     H_    0.997315 0.738715 0.957918 0.162721
H3    H     H_    0.230858 0.982390 0.767052 0.150979
H4    H     H_    0.269076 0.758103 0.539302 0.150173
C19   C     C_2   0.990807 0.709254 0.281808 -0.031931
C20   C     C_2   0.149514 0.688716 0.325526 -0.229473
H5    H     H_    0.856367 0.674512 0.294741 0.156798
H6    H     H_    0.280426 0.727714 0.317294 0.192795
C21   C     C_2   0.984296 0.783899 0.220637 -0.149671
C22   C     C_2   0.127137 0.803980 0.167064 0.242986
H7    H     H_    0.851235 0.822672 0.218425 0.135169
C23   C     C_2   0.778823 0.205871 0.779526 -0.035311
C24   C     C_2   0.614023 0.179026 0.816141 -0.224152
H8    H     H_    0.914750 0.176992 0.799629 0.140071
H9    H     H_    0.476135 0.206176 0.797333 0.148592
C25   C     C_2   0.790803 0.274053 0.712317 -0.040768
C26   C     C_2   0.638012 0.317021 0.679493 -0.233951
H10   H     H_    0.934223 0.289434 0.689540 0.145274
H11   H     H_    0.493345 0.302862 0.700735 0.147158
C27   C     C_2   0.768449 0.205724 0.217584 -0.160362
C28   C     C_2   0.614374 0.191806 0.168015 0.242164
H12   H     H_    0.892374 0.161043 0.211834 0.130176
C29   C     C_2   0.786652 0.280829 0.278750 -0.041121
C30   C     C_2   0.638929 0.308991 0.326081 -0.229871
H13   H     H_    0.929101 0.309453 0.288272 0.161896
H14   H     H_    0.499638 0.276197 0.320918 0.184735
O11   O     O_R   0.770210 0.079270 0.910680 -0.544006
O12   O     O_R   0.440150 0.091160 0.082270 -0.515824
O13   O     O_R   0.269970 0.914530 0.082860 -0.516004
C31   C     C_R   0.608754 0.115179 0.108780 0.697410
O14   O     O_R   0.440480 0.090100 0.911240 -0.543436
O15   O     O_R   0.270310 0.913460 0.910610 -0.539910
C32   C     C_R   0.609132 0.111541 0.882942 0.748205
O16   O     O_R   0.769870 0.080340 0.082930 -0.554233
O17   O     O_3   0.603660 0.938980 0.996790 -0.363683
V3    V     V_3+5 0.328750 0.007610 0.996740 1.562034
O18   O     O_R   0.940600 0.902510 0.911180 -0.544733
C33   C     C_R   0.109668 0.880931 0.882617 0.677560
O19   O     O_R   0.940270 0.903570 0.082200 -0.553951
C34   C     C_R   0.109910 0.879942 0.108571 0.674813
V4    V     V_3+5 0.828770 0.986010 0.996670 1.509311
O20   O     O_3   0.103730 0.054750 0.996710 -0.365967
Cl1   Cl    Cl    0.392398 0.925745 0.478801 -0.571809
Cl2   Cl    Cl    0.335729 0.735540 0.156487 -0.584307
Cl3   Cl    Cl    0.420169 0.269621 0.162751 -0.579536
Cl4   Cl    Cl    0.903248 0.425802 0.873055 -0.557736
F1    F     F_    0.895737 0.577121 0.995606 -0.585959
Cl5   Cl    Cl    0.368941 0.071623 0.627280 -0.612795

loop_
_geom_bond_atom_site_label_1
_geom_bond_atom_site_label_2
_ccdc_geom_bond_type
O2    C1    A    
C7    C8    A    
C12   C15   A    
C1    O6    A    
C24   C32   S    
C21   H7    S    
C29   C30   D    
C15   H3    S    
C22   C34   S    
C16   C17   A    
C19   H5    S    
C28   Cl3   S    
O13   V3    S    
O5    C3    A    
C17   Cl1   S    
O12   C31   A    
V2    O10   S    
C7    F1    S    
C6    C7    A    
C23   C25   S    
O16   V4    S    
O19   V4    S    
O8    V2    S    
O14   V3    S    
O12   V3    S    
V3    O20   S    
C19   C20   D    
C27   H12   S    
C11   C12   A    
O11   C32   A    
O1    V2    S    
C3    C20   S    
C16   Cl5   S    
O7    V1    S    
O9    C4    A    
C23   H8    S    
C5    C6    A    
C25   H10   S    
C29   H13   S    
C30   H14   S    
C27   C29   S    
C18   H4    S    
O18   C33   A    
C12   C13   A    
C26   H11   S    
C21   C22   D    
O4    C2    A    
O15   V3    S    
C13   C14   A    
O17   V4    S    
O11   V4    S    
C11   C33   S    
C19   C21   S    
C17   C18   A    
O9    V2    S    
O14   C32   A    
C27   C28   D    
C4    C14   S    
C24   H9    S    
O3    C4    A    
O6    V2    S    
C9    C11   A    
C5    H1    S    
C23   C24   D    
O2    V1    S    
C8    H2    S    
C13   C18   A    
C25   C26   D    
C6    Cl4   S    
O1    C2    A    
O5    V1    S    
O8    C3    A    
C5    C10   A    
O15   C33   A    
C31   O16   A    
C20   H6    S    
O7    V2    S    
O4    V1    S    
O3    V1    S    
V1    O10   S    
C22   Cl2   S    
O18   V4    S    
O19   C34   A    
O13   C34   A    
V4    O20   S    
C8    C9    A    
O17   V3    S    
C10   C14   A    
C15   C16   A    
C28   C31   S    
C2    C30   S    
C9    C10   A    
C1    C26   S    
