data_mof_unit_58106.cif
_audit_creation_date              2012-12-10T21:29:41-0500
_audit_creation_method            fapswitch 2.2
_symmetry_space_group_name_H-M    P1
_symmetry_Int_Tables_number       1
_space_group_crystal_system       triclinic
_cell_length_a                    10.608206
_cell_length_b                    16.06291
_cell_length_c                    16.683422
_cell_angle_alpha                 89.499392
_cell_angle_beta                  89.81379
_cell_angle_gamma                 92.291348
_cell_volume                      2840.43286647

loop_
_atom_site_label
_atom_site_type_symbol
_atom_type_description
_atom_site_fract_x
_atom_site_fract_y
_atom_site_fract_z
_atom_type_partial_charge
C1    C     C_R   0.504785 0.490215 0.653447 0.901237
C2    C     C_R   0.434740 0.500741 0.095446 0.177784
C3    C     C_R   0.607423 0.429278 0.863168 -0.042155
C4    C     C_R   0.392574 0.570721 0.136832 -0.042156
C5    C     C_R   0.591630 0.425073 0.779102 0.095783
C6    C     C_R   0.408368 0.574927 0.220898 0.095783
C7    C     C_R   0.423479 0.758371 0.471303 -0.035557
C8    C     C_R   0.576521 0.241629 0.528697 -0.035557
C9    C     C_R   0.419128 0.845815 0.474586 0.114225
C10   C     C_R   0.580872 0.154185 0.525414 0.114225
C11   C     C_R   0.514477 0.890826 0.518094 0.316792
C12   C     C_R   0.495215 0.509784 0.346553 0.901236
C13   C     C_R   0.485523 0.109174 0.481906 0.316792
C14   C     C_R   0.606496 0.845573 0.557662 -0.335321
C15   C     C_R   0.393504 0.154427 0.442338 -0.335321
C16   C     C_R   0.739811 0.500415 0.487479 0.891292
C17   C     C_R   0.260188 0.499585 0.512521 0.891292
C18   C     C_R   0.605964 0.758640 0.552477 -0.012754
C19   C     C_R   0.394036 0.241360 0.447523 -0.012754
C20   C     C_R   0.881150 0.347689 0.453534 -0.178458
C21   C     C_R   0.118850 0.652311 0.546466 -0.178458
C22   C     C_R   0.932629 0.271922 0.473829 -0.175019
C23   C     C_R   0.524786 0.488446 0.740074 -0.081190
C24   C     C_R   0.067371 0.728078 0.526171 -0.175019
C25   C     C_R   0.040091 0.270445 0.521688 0.234164
C26   C     C_R   0.959909 0.729555 0.478312 0.234164
C27   C     C_R   0.100787 0.345917 0.543429 -0.130294
C28   C     C_R   0.899213 0.654083 0.456571 -0.130294
C29   C     C_R   0.054529 0.423138 0.517414 0.038113
C30   C     C_R   0.945471 0.576862 0.482586 0.038113
C31   C     C_R   0.936194 0.423858 0.481158 0.084817
C32   C     C_R   0.063807 0.576141 0.518842 0.084817
C33   C     C_R   0.124118 0.499486 0.525390 -0.225700
C34   C     C_R   0.475213 0.511553 0.259926 -0.081190
C35   C     C_R   0.875882 0.500514 0.474610 -0.225700
C36   C     C_3   0.909379 0.811515 0.452644 -0.920960
C37   C     C_3   0.090621 0.188485 0.547357 -0.920959
C38   C     C_3   0.689884 0.112611 0.564736 -0.904693
C39   C     C_3   0.310115 0.887389 0.435264 -0.904694
C40   C     C_2   0.501837 0.351448 0.097293 0.969832
C41   C     C_2   0.498160 0.648551 0.902707 0.969832
C42   C     C_2   0.662597 0.359940 0.909156 0.946164
C43   C     C_2   0.337399 0.640059 0.090844 0.946163
C44   C     C_3   0.653179 0.358184 0.730666 -0.789084
C45   C     C_R   0.491292 0.559364 0.782098 -0.306063
C46   C     C_3   0.346819 0.641815 0.269335 -0.789084
C47   C     C_R   0.508707 0.440635 0.217902 -0.306062
C48   C     C_R   0.517953 0.567713 0.862794 -0.041384
C49   C     C_R   0.482045 0.432287 0.137206 -0.041384
C50   C     C_R   0.565257 0.499258 0.904554 0.177784
H1    H     H_    0.678659 0.877843 0.592703 0.165367
H2    H     H_    0.816633 0.655881 0.418701 0.158826
H3    H     H_    0.552093 0.389672 0.249038 0.205606
H4    H     H_    0.447907 0.610328 0.750962 0.205605
H5    H     H_    0.648186 0.277304 0.561003 0.152686
H6    H     H_    0.351814 0.722696 0.438997 0.152686
H7    H     H_    0.981331 0.846632 0.415917 0.248632
H8    H     H_    0.822097 0.802935 0.416534 0.249572
H9    H     H_    0.887193 0.848661 0.506319 0.242501
H10   H     H_    0.018669 0.153368 0.584083 0.248632
H11   H     H_    0.112807 0.151338 0.493681 0.242501
H12   H     H_    0.321341 0.122156 0.407297 0.165367
H13   H     H_    0.177903 0.197065 0.583467 0.249572
H14   H     H_    0.655843 0.074100 0.616550 0.265177
H15   H     H_    0.737864 0.073114 0.520686 0.251794
H16   H     H_    0.761052 0.158986 0.587751 0.232147
H17   H     H_    0.344157 0.925900 0.383450 0.265178
H18   H     H_    0.238948 0.841014 0.412249 0.232147
H19   H     H_    0.262136 0.926886 0.479314 0.251794
H20   H     H_    0.448193 0.271194 0.010295 0.362658
H21   H     H_    0.551803 0.728806 0.989706 0.362658
H22   H     H_    0.671050 0.235929 0.927215 0.355248
H23   H     H_    0.677259 0.724366 0.583299 0.159108
H24   H     H_    0.328944 0.764070 0.072786 0.355247
H25   H     H_    0.702505 0.386481 0.677658 0.224438
H26   H     H_    0.727298 0.326196 0.764254 0.246150
H27   H     H_    0.580657 0.311104 0.710894 0.261812
H28   H     H_    0.297494 0.613518 0.322343 0.224438
H29   H     H_    0.419341 0.688896 0.289106 0.261812
H30   H     H_    0.272699 0.673803 0.235746 0.246150
H31   H     H_    0.322741 0.275633 0.416701 0.159108
H32   H     H_    0.798887 0.346161 0.415306 0.173338
H33   H     H_    0.201114 0.653839 0.584694 0.173338
H34   H     H_    0.887187 0.214352 0.453494 0.161152
H35   H     H_    0.112813 0.785648 0.546506 0.161152
H36   H     H_    0.183367 0.344119 0.581299 0.158826
N1    N     N_2   0.555331 0.495409 0.988601 -0.108622
N2    N     N_2   0.444666 0.504590 0.011399 -0.108622
N3    N     N_R   0.515300 0.716920 0.509720 -0.111006
N4    N     N_R   0.484700 0.283080 0.490280 -0.111006
N5    N     N_2   0.516910 0.979176 0.529572 -0.167340
N6    N     N_2   0.483090 0.020824 0.470428 -0.167340
O1    O     O_R   0.494530 0.422540 0.612660 -0.616234
O2    O     O_R   0.429747 0.328862 0.030306 -0.780464
O3    O     O_2   0.421989 0.696595 0.875757 -0.606400
O4    O     O_R   0.570250 0.671138 0.969694 -0.780464
O5    O     O_2   0.737014 0.375214 0.963421 -0.582508
O6    O     O_R   0.627764 0.277266 0.891408 -0.799498
O7    O     O_2   0.262982 0.624785 0.036579 -0.582508
O8    O     O_R   0.372231 0.722733 0.108593 -0.799498
O9    O     O_R   0.505470 0.577460 0.387340 -0.616233
O10   O     O_R   0.504350 0.561840 0.618900 -0.621053
O11   O     O_R   0.495650 0.438160 0.381100 -0.621053
O12   O     O_R   0.678310 0.430340 0.496890 -0.630787
O13   O     O_R   0.321690 0.569660 0.503110 -0.630786
O14   O     O_R   0.688140 0.569650 0.503130 -0.618608
O15   O     O_R   0.311860 0.430350 0.496870 -0.618608
O16   O     O_2   0.578008 0.303404 0.124243 -0.606401
Zn1   Zn    Zn3+2 0.493440 0.406980 0.495830 0.934738
Zn2   Zn    Zn3+2 0.506560 0.593020 0.504170 0.934738

loop_
_geom_bond_atom_site_label_1
_geom_bond_atom_site_label_2
_ccdc_geom_bond_type
C46   H30   S    
O13   Zn2   S    
C3    C42   S    
C23   C45   A    
C20   H32   S    
C27   C29   A    
C39   H18   S    
C14   C18   A    
N1    N2    D    
C36   H9    S    
C47   C49   A    
H22   O6    S    
C15   C19   A    
C30   C35   A    
C44   H27   S    
H20   O2    S    
C43   O7    D    
C36   H8    S    
C17   O15   A    
C16   C35   S    
C46   H29   S    
C11   C14   A    
C41   O4    S    
C40   C49   S    
C7    N3    A    
C29   C33   A    
C9    C39   S    
C44   H26   S    
C25   C37   S    
C16   O12   A    
C38   H16   S    
C22   C25   A    
C2    N2    S    
C24   H35   S    
C16   O14   A    
C40   O16   D    
C48   C50   A    
O11   Zn1   S    
O15   Zn1   S    
C17   C33   S    
C7    H6    S    
C8    H5    S    
C37   H13   S    
C3    C50   A    
C38   H14   S    
C21   C32   A    
C21   H33   S    
C43   O8    S    
C12   O11   A    
C4    C6    A    
C36   H7    S    
C42   O5    D    
C40   O2    S    
N5    N6    D    
C46   H28   S    
H24   O8    S    
H21   O4    S    
O9    Zn2   S    
N3    Zn2   S    
C6    C34   A    
C22   H34   S    
C44   H25   S    
C2    C4    A    
C2    C49   A    
C17   O13   A    
C14   H1    S    
C5    C23   A    
C38   H15   S    
C39   H19   S    
C9    C11   A    
C50   N1    S    
C26   C36   S    
C5    C44   S    
C20   C22   A    
C45   H4    S    
C1    C23   S    
C18   H23   S    
C13   C15   A    
C13   N6    S    
C41   C48   S    
C27   H36   S    
C31   C35   A    
O10   Zn2   S    
C8    N4    A    
C12   C34   S    
O14   Zn2   S    
C45   C48   A    
C7    C9    A    
C6    C46   S    
C18   N3    A    
C39   H17   S    
C8    C10   A    
C24   C26   A    
C3    C5    A    
C10   C13   A    
C37   H11   S    
C4    C43   S    
C25   C27   A    
C26   C28   A    
C47   H3    S    
C10   C38   S    
C32   C33   A    
C42   O6    S    
C12   O9    A    
C29   C31   A    
C19   N4    A    
C30   C32   A    
C28   H2    S    
C41   O3    D    
C28   C30   A    
C15   H12   S    
C37   H10   S    
C11   N5    S    
C1    O1    A    
C21   C24   A    
O12   Zn1   S    
C34   C47   A    
N4    Zn1   S    
C19   H31   S    
C1    O10   A    
O1    Zn1   S    
C20   C31   A    
