data_mof_unit_17881.cif
_audit_creation_date              2013-03-05T16:02:45-0500
_audit_creation_method            fapswitch 2.2
_symmetry_space_group_name_H-M    P1
_symmetry_Int_Tables_number       1
_space_group_crystal_system       triclinic
_cell_length_a                    23.118888
_cell_length_b                    11.717562
_cell_length_c                    10.469525
_cell_angle_alpha                 90.007977
_cell_angle_beta                  90.008518
_cell_angle_gamma                 89.927329
_cell_volume                      2836.16061065

loop_
_atom_site_label
_atom_site_type_symbol
_atom_site_description
_atom_site_fract_x
_atom_site_fract_y
_atom_site_fract_z
_atom_type_partial_charge
O1    O     O_R   0.500000 0.337200 0.605810 -0.571956
O2    O     O_R   0.500000 0.662800 0.394190 -0.565813
O3    O     O_R   0.500000 0.662800 0.605810 -0.572014
O4    O     O_R   0.500000 0.337200 0.394190 -0.566353
C1    C     C_R   0.499941 0.283327 0.499971 0.824837
C2    C     C_R   0.500070 0.716673 0.499984 0.824446
O5    O     O_R   0.417880 0.500000 0.605840 -0.577726
O6    O     O_R   0.582120 0.500000 0.394160 -0.570917
O7    O     O_R   0.582120 0.500000 0.605840 -0.577798
O8    O     O_R   0.417880 0.500000 0.394160 -0.571119
C3    C     C_R   0.390328 0.499934 0.500078 0.830192
C4    C     C_R   0.609669 0.499949 0.500101 0.830022
Cu1   Cu    Cu3+1 0.500000 0.500000 0.625300 0.966884
Cu2   Cu    Cu3+1 0.500000 0.500000 0.374700 0.965533
C5    C     C_R   0.877271 0.597361 0.391301 0.583490
C6    C     C_R   0.122687 0.402487 0.391837 0.583537
C7    C     C_R   0.878345 0.398493 0.389606 0.588873
C8    C     C_R   0.121615 0.601348 0.388866 0.588856
N1    N     N_R   0.851117 0.497124 0.427580 -0.449375
N2    N     N_R   0.148854 0.502922 0.427437 -0.449390
C9    C     C_R   0.939285 0.394766 0.380845 -0.148873
C10   C     C_R   0.060671 0.605033 0.380169 -0.148794
C11   C     C_R   0.938126 0.602755 0.378426 -0.151134
C12   C     C_R   0.061831 0.397033 0.378977 -0.151215
C13   C     C_R   0.969453 0.499348 0.382671 -0.079667
C14   C     C_R   0.030504 0.500461 0.382638 -0.079671
C15   C     C_R   0.970623 0.291150 0.370507 0.238131
C16   C     C_R   0.029328 0.708602 0.369291 0.238069
C17   C     C_R   0.968459 0.707245 0.366496 0.238122
C18   C     C_R   0.031492 0.292488 0.367642 0.238036
O9    O     O_2   0.844642 0.689436 0.363830 -0.494050
O10   O     O_2   0.155307 0.310239 0.365050 -0.493784
O11   O     O_2   0.846775 0.307313 0.354042 -0.494814
O12   O     O_2   0.153170 0.692328 0.352648 -0.494935
C19   C     C_R   0.236013 0.606962 0.518839 0.156537
C20   C     C_R   0.764056 0.393493 0.519893 0.156659
C21   C     C_R   0.234656 0.403710 0.531106 0.166050
C22   C     C_R   0.765258 0.596839 0.530436 0.166186
C23   C     C_R   0.297130 0.607666 0.507974 0.080493
C24   C     C_R   0.702940 0.392525 0.509006 0.080812
C25   C     C_R   0.295807 0.398645 0.521539 0.082436
C26   C     C_R   0.704104 0.601622 0.520894 0.082010
C27   C     C_R   0.326731 0.501671 0.501948 -0.142803
C28   C     C_R   0.673263 0.498387 0.502067 -0.143016
C29   C     C_R   0.206304 0.504489 0.489429 0.130799
C30   C     C_R   0.793687 0.495851 0.489633 0.130770
C31   C     C_1   0.499976 0.161974 0.499881 -0.184132
C32   C     C_1   0.500047 0.838026 0.499912 -0.184308
C33   C     C_1   0.500003 0.059733 0.499800 -0.002061
C34   C     C_1   0.500026 0.940267 0.499815 -0.001849
N3    N     N_1   0.500000 0.500000 0.186410 -0.143268
N4    N     N_1   0.500000 0.500000 0.813590 -0.139400
C35   C     C_1   0.500000 0.500000 0.072068 0.087020
C36   C     C_1   0.500000 0.500000 0.927935 0.089389
N5    N     N_R   0.941604 0.183039 0.371555 0.198179
O13   O     O_R   0.916432 0.147710 0.475391 -0.285322
O14   O     O_R   0.947211 0.113570 0.275418 -0.207512
N6    N     N_R   0.058345 0.816721 0.369795 0.198173
O15   O     O_R   0.083593 0.852426 0.473406 -0.284840
O16   O     O_R   0.052667 0.885845 0.273385 -0.208078
N7    N     N_R   0.938207 0.813882 0.361572 0.194674
O17   O     O_R   0.936483 0.879227 0.461938 -0.248063
O18   O     O_R   0.918797 0.851794 0.252923 -0.231095
N8    N     N_R   0.061738 0.185824 0.363153 0.194640
O19   O     O_R   0.063300 0.120646 0.463649 -0.248368
O20   O     O_R   0.081241 0.147659 0.254698 -0.230582
C37   C     C_3   0.204881 0.701135 0.592353 -0.317570
C38   C     C_3   0.224954 0.706429 0.731534 -0.848790
H1    H     H_    0.216206 0.623804 0.779730 0.255854
H2    H     H_    0.271802 0.725322 0.739062 0.248893
H3    H     H_    0.200783 0.774615 0.782402 0.275822
H4    H     H_    0.210752 0.785116 0.545104 0.251956
H5    H     H_    0.157713 0.684915 0.597364 0.232948
C39   C     C_3   0.795288 0.299859 0.594049 -0.317893
C40   C     C_3   0.775232 0.295279 0.733257 -0.848677
H6    H     H_    0.783869 0.378232 0.780874 0.255849
H7    H     H_    0.728410 0.276179 0.740894 0.248956
H8    H     H_    0.799497 0.227520 0.784612 0.275790
H9    H     H_    0.789497 0.215587 0.547378 0.251994
H10   H     H_    0.842442 0.316294 0.598938 0.232679
C41   C     C_3   0.201577 0.316518 0.610745 -0.334081
C42   C     C_3   0.220076 0.320182 0.751020 -0.841467
H11   H     H_    0.266658 0.300190 0.762719 0.249414
H12   H     H_    0.211549 0.406216 0.791429 0.255747
H13   H     H_    0.194750 0.256633 0.806255 0.275002
H14   H     H_    0.154547 0.335168 0.611354 0.222527
H15   H     H_    0.206909 0.229190 0.571366 0.247417
C43   C     C_3   0.798245 0.684706 0.609368 -0.333525
C44   C     C_3   0.779897 0.681617 0.749744 -0.841557
H16   H     H_    0.733251 0.700977 0.761516 0.249365
H17   H     H_    0.788790 0.595950 0.790729 0.255779
H18   H     H_    0.805040 0.745865 0.804415 0.275062
H19   H     H_    0.845313 0.666463 0.609916 0.222896
H20   H     H_    0.792675 0.771778 0.569450 0.247355
C45   C     C_3   0.330383 0.719792 0.500846 -0.413856
C46   C     C_3   0.341976 0.753038 0.362313 -0.765804
H21   H     H_    0.367709 0.686389 0.312938 0.262656
H22   H     H_    0.300427 0.765207 0.310716 0.275807
H23   H     H_    0.366581 0.834342 0.359506 0.235317
H24   H     H_    0.306874 0.791382 0.546129 0.217021
H25   H     H_    0.371882 0.713672 0.553685 0.193453
C47   C     C_3   0.669762 0.280267 0.502772 -0.414172
C48   C     C_3   0.657952 0.246308 0.364524 -0.766621
H26   H     H_    0.632042 0.312586 0.314985 0.262489
H27   H     H_    0.699419 0.234091 0.312644 0.275994
H28   H     H_    0.633444 0.164871 0.362381 0.235348
H29   H     H_    0.693409 0.208958 0.548250 0.217204
H30   H     H_    0.628351 0.286537 0.555911 0.193820
C49   C     C_3   0.327756 0.284842 0.528377 -0.417893
C50   C     C_3   0.341590 0.240340 0.394813 -0.774181
H31   H     H_    0.300965 0.227192 0.340088 0.279638
H32   H     H_    0.369590 0.301048 0.342216 0.259251
H33   H     H_    0.364671 0.157422 0.402258 0.235740
H34   H     H_    0.368266 0.293288 0.584472 0.199848
H35   H     H_    0.302532 0.218030 0.577801 0.219162
C51   C     C_3   0.672080 0.715380 0.526596 -0.417617
C52   C     C_3   0.659033 0.759519 0.392522 -0.772761
H36   H     H_    0.700004 0.773150 0.339222 0.279695
H37   H     H_    0.631631 0.698286 0.339036 0.259339
H38   H     H_    0.635616 0.842124 0.399002 0.235630
H39   H     H_    0.631217 0.707027 0.581432 0.199288
H40   H     H_    0.696954 0.782283 0.576814 0.218701

loop_
_geom_bond_atom_site_label_1
_geom_bond_atom_site_label_2
_geom_bond_distance
_ccdc_geom_bond_type
O5    Cu1   1.909396 S    
N5    O13   1.301067 A    
C18   N8    1.432145 S    
C45   C46   1.525686 S    
O3    C2    1.275240 A    
C41   C42   1.530162 S    
N1    C30   1.478316 S    
C31   C33   1.198015 T    
C35   C36   1.509001 S    
C5    N1    1.375278 A    
C1    C31   1.421963 S    
C51   H40   1.105716 S    
O1    C1    1.275204 A    
C11   C17   1.417278 A    
C16   C17   1.407645 A    
C12   C14   1.411572 A    
C22   C26   1.418358 A    
C52   H37   1.109341 S    
C15   N5    1.434274 S    
N6    O16   1.300775 A    
C46   H23   1.110612 S    
C51   C52   1.525949 S    
C37   H4    1.109948 S    
N7    O18   1.300808 A    
O7    Cu1   1.909454 S    
C50   H31   1.110988 S    
C38   H1    1.110637 S    
C46   H22   1.111017 S    
C47   H30   1.109696 S    
C37   H5    1.108413 S    
C44   H17   1.110670 S    
N2    C29   1.478322 S    
O3    Cu1   1.918530 S    
O6    C4    1.278926 A    
N7    O17   1.300666 A    
C5    C11   1.414855 A    
C9    C15   1.417220 A    
C6    C12   1.414869 A    
C39   H10   1.108444 S    
Cu1   Cu2   2.623663 S    
C15   C18   1.407644 A    
O4    Cu2   1.918530 S    
C25   C27   1.418745 A    
C21   C41   1.525214 S    
O2    C2    1.274793 A    
C26   C28   1.418663 A    
C40   H8    1.110442 S    
N4    C36   1.197140 T    
O5    C3    1.277338 A    
C43   H20   1.109941 S    
C17   N7    1.432103 S    
C3    C27   1.470538 S    
C51   H39   1.109991 S    
C37   C38   1.530478 S    
C20   C24   1.417588 A    
C48   H27   1.111016 S    
O8    Cu2   1.909456 S    
C52   H38   1.110509 S    
C45   H24   1.105734 S    
C23   C27   1.418710 A    
C25   C49   1.525263 S    
N6    O15   1.301055 A    
C7    C9    1.412484 A    
C22   C43   1.525166 S    
N3    C35   1.197106 T    
N8    O20   1.300809 A    
C19   C23   1.417563 A    
C40   H6    1.110639 S    
Cu1   N4    1.971308 S    
C40   H7    1.108550 S    
Cu2   N3    1.971307 S    
C19   C37   1.525115 S    
C6    N2    1.375305 A    
C46   H21   1.108980 S    
C47   H29   1.105726 S    
C7    O11   1.347080 S    
C43   C44   1.530163 S    
C44   H18   1.110466 S    
C20   C30   1.417894 A    
C8    O12   1.347083 S    
C50   H33   1.110623 S    
C23   C45   1.524918 S    
C41   H15   1.109887 S    
C2    C32   1.421968 S    
C49   H34   1.109894 S    
C26   C51   1.525110 S    
C42   H11   1.108595 S    
C42   H12   1.110634 S    
C39   H9    1.109937 S    
N5    O14   1.300774 A    
C12   C18   1.417328 A    
O1    Cu1   1.918473 S    
C21   C29   1.418661 A    
C19   C29   1.417836 A    
C9    C13   1.410918 A    
C43   H19   1.108710 S    
C20   C39   1.525093 S    
O6    Cu2   1.909394 S    
C8    C10   1.412468 A    
C41   H14   1.108773 S    
O4    C1    1.274830 A    
C5    O9    1.346737 S    
C16   N6    1.434304 S    
C6    O10   1.346730 S    
C42   H13   1.110430 S    
N8    O19   1.300667 A    
C13   C14   1.411490 A    
C4    C28   1.470454 S    
C49   C50   1.526137 S    
C38   H3    1.110446 S    
C32   C34   1.198014 T    
C7    N1    1.374067 A    
C48   H28   1.110618 S    
C8    N2    1.374052 A    
C11   C13   1.411556 A    
C21   C25   1.418454 A    
C47   C48   1.525726 S    
O2    Cu2   1.918473 S    
O7    C4    1.277257 A    
C50   H32   1.108899 S    
C22   C30   1.418699 A    
O8    C3    1.278920 A    
C49   H35   1.105473 S    
C24   C47   1.524920 S    
C24   C28   1.418643 A    
C39   C40   1.530461 S    
C38   H2    1.108541 S    
C33   C34   1.399845 S    
C10   C14   1.410928 A    
C48   H26   1.108957 S    
C10   C16   1.417249 A    
C44   H16   1.108610 S    
C52   H36   1.111162 S    
C45   H25   1.109649 S    
