data_mof_unit_10388.cif
_audit_creation_date              2012-12-10T18:07:30-0500
_audit_creation_method            fapswitch 2.2
_symmetry_space_group_name_H-M    P1
_symmetry_Int_Tables_number       1
_space_group_crystal_system       triclinic
_cell_length_a                    11.539711
_cell_length_b                    12.755688
_cell_length_c                    13.102861
_cell_angle_alpha                 82.253069
_cell_angle_beta                  92.812407
_cell_angle_gamma                 102.87199
_cell_volume                      1862.71088708

loop_
_atom_site_label
_atom_site_type_symbol
_atom_type_description
_atom_site_fract_x
_atom_site_fract_y
_atom_site_fract_z
_atom_type_partial_charge
Br1   Br    Br    0.731417 0.698635 0.695556 -0.488615
Br2   Br    Br    0.350271 0.744061 0.343672 -0.485705
Br3   Br    Br    0.507359 0.877527 0.998477 -0.394413
Br4   Br    Br    0.377225 0.111516 0.994826 -0.359586
C1    C     C_R   0.475648 0.439884 0.689991 0.894215
C2    C     C_R   0.419806 0.664244 0.886664 -0.167252
C3    C     C_R   0.401013 0.582491 0.823931 -0.155421
C4    C     C_R   0.717760 0.501475 0.500563 0.916575
C5    C     C_R   0.488764 0.513580 0.133847 -0.254161
C6    C     C_R   0.518091 0.702482 0.155735 -0.153270
C7    C     C_R   0.437906 0.403520 0.796572 -0.173009
C8    C     C_R   0.282727 0.077688 0.399641 -0.107167
C9    C     C_R   0.653138 0.805522 0.622043 0.299778
C10   C     C_R   0.689358 0.912539 0.645563 -0.110030
C11   C     C_R   0.625565 0.988735 0.603232 -0.178104
C12   C     C_R   0.511174 0.594571 0.197763 -0.109437
C13   C     C_R   0.525904 0.960782 0.539075 -0.045833
C14   C     C_R   0.491859 0.851741 0.515360 0.104349
C15   C     C_R   0.459764 0.038986 0.496145 0.029446
C16   C     C_R   0.514575 0.560304 0.308523 0.911613
C17   C     C_R   0.346376 0.002889 0.451010 0.030461
C18   C     C_R   0.304260 0.892520 0.447569 -0.266120
C19   C     C_R   0.382730 0.824158 0.458798 0.300866
C20   C     C_R   0.502521 0.151890 0.494675 -0.036130
C21   C     C_R   0.335037 0.188633 0.394039 0.050092
C22   C     C_R   0.282203 0.498260 0.500063 0.904491
C23   C     C_R   0.425715 0.293924 0.836717 -0.218595
C24   C     C_1   0.839197 0.503907 0.501190 -0.134739
C25   C     C_1   0.941093 0.501974 0.500908 0.036046
C26   C     C_1   0.058947 0.497782 0.500139 0.046311
C27   C     C_1   0.160801 0.495775 0.499731 -0.102801
C28   C     C_R   0.490737 0.727450 0.051635 0.285662
C29   C     C_2   0.166051 0.040193 0.347240 0.510345
C30   C     C_2   0.793304 0.946405 0.715137 0.488646
C31   C     C_2   0.274711 0.269859 0.336577 0.571713
C32   C     C_R   0.405736 0.261362 0.941154 0.358606
C33   C     C_R   0.411073 0.338874 0.007469 -0.222085
C34   C     C_R   0.428369 0.450214 0.968500 0.057512
C35   C     C_R   0.421542 0.478907 0.861599 0.094821
C36   C     C_R   0.454780 0.534430 0.031503 0.074428
C37   C     C_R   0.454998 0.643190 0.989485 0.080538
H1    H     H_    0.542834 0.767074 0.203608 0.214751
H2    H     H_    0.096569 0.979615 0.387779 0.052223
H3    H     H_    0.851897 0.892560 0.742062 0.116100
H4    H     H_    0.322124 0.331789 0.279817 0.057289
H5    H     H_    0.217917 0.863000 0.413304 0.173932
H6    H     H_    0.584789 0.186656 0.531646 0.142772
H7    H     H_    0.652264 0.068930 0.625653 0.194215
H8    H     H_    0.409343 0.743943 0.853134 0.193273
H9    H     H_    0.498804 0.433582 0.165388 0.168678
H10   H     H_    0.431884 0.233722 0.787497 0.195760
H11   H     H_    0.398206 0.309798 0.088255 0.156058
H12   H     H_    0.370441 0.601744 0.745795 0.171849
N1    N     N_R   0.440320 0.222190 0.444690 -0.158046
N2    N     N_R   0.559060 0.776980 0.554780 -0.137122
O1    O     O_R   0.471500 0.366730 0.627160 -0.615677
O2    O     O_2   0.815891 0.036424 0.743177 -0.533407
O3    O     O_2   0.170462 0.267521 0.351524 -0.549475
O4    O     O_R   0.509620 0.544830 0.662520 -0.581684
O5    O     O_R   0.646490 0.410960 0.482310 -0.614500
O6    O     O_R   0.684610 0.589050 0.517670 -0.563667
O7    O     O_R   0.490380 0.455170 0.337480 -0.655606
O8    O     O_R   0.528500 0.633270 0.372840 -0.572437
O9    O     O_R   0.315390 0.410950 0.482330 -0.605786
O10   O     O_R   0.353510 0.589040 0.517690 -0.607888
O11   O     O_2   0.147964 0.074926 0.257769 -0.499167
Zn1   Zn    Zn3+2 0.474550 0.381080 0.476390 0.962946
Zn2   Zn    Zn3+2 0.525450 0.618920 0.523610 1.010576

loop_
_geom_bond_atom_site_label_1
_geom_bond_atom_site_label_2
_ccdc_geom_bond_type
C10   C30   S    
C30   O2    D    
C7    C35   A    
C28   C37   A    
Br4   C32   S    
C1    C7    S    
C2    C3    A    
C15   C20   A    
C22   O9    A    
C23   C32   A    
C6    H1    S    
O1    Zn1   S    
C8    C21   A    
C1    O1    A    
C7    C23   A    
C4    O6    A    
C12   C16   S    
O10   Zn2   S    
C16   O8    A    
C13   C14   A    
C22   C27   S    
C6    C12   A    
C9    C10   A    
C4    O5    A    
C34   C36   A    
C20   H6    S    
O6    Zn2   S    
C25   C26   S    
O7    Zn1   S    
C21   C31   S    
C31   O3    D    
C14   N2    A    
C17   C18   A    
C24   C25   T    
C13   C15   A    
C33   C34   A    
C23   H10   S    
C29   O11   D    
N2    Zn2   S    
C18   H5    S    
C2    H8    S    
C16   O7    A    
C34   C35   A    
C4    C24   S    
C3    H12   S    
Br1   C9    S    
C1    O4    A    
C20   N1    A    
C14   C19   A    
C29   H2    S    
O9    Zn1   S    
C6    C28   A    
C30   H3    S    
C21   N1    A    
Br2   C19   S    
C11   C13   A    
C33   H11   S    
C3    C35   A    
C18   C19   A    
C32   C33   A    
O4    Zn2   S    
C36   C37   A    
N1    Zn1   S    
O8    Zn2   S    
Br3   C28   S    
C15   C17   A    
C8    C29   S    
C10   C11   A    
C22   O10   A    
C11   H7    S    
C8    C17   A    
C5    C12   A    
C5    C36   A    
C26   C27   T    
C5    H9    S    
O5    Zn1   S    
C9    N2    A    
C2    C37   A    
C31   H4    S    
