data_mof_unit_20501.cif
_audit_creation_date              2012-10-26T20:22:28-0400
_audit_creation_method            fapswitch 2.2
_symmetry_space_group_name_H-M    P1
_symmetry_Int_Tables_number       1
_space_group_crystal_system       triclinic
_cell_length_a                    9.579615
_cell_length_b                    10.769542
_cell_length_c                    17.309114
_cell_angle_alpha                 91.138214
_cell_angle_beta                  84.164633
_cell_angle_gamma                 88.740229
_cell_volume                      1775.6264281

loop_
_atom_site_label
_atom_site_type_symbol
_atom_type_description
_atom_site_fract_x
_atom_site_fract_y
_atom_site_fract_z
_atom_type_partial_charge
C1    C     C_R   0.498947 0.737235 0.497985 0.635537
C2    C     C_R   0.087674 0.433241 0.445602 0.068133
C3    C     C_R   0.060503 0.567784 0.555087 0.120073
C4    C     C_R   0.939497 0.432214 0.444914 0.120079
C5    C     C_R   0.479559 0.497410 0.649770 0.560956
C6    C     C_R   0.520441 0.502587 0.350230 0.560981
C7    C     C_R   0.464391 0.495813 0.734460 0.013642
C8    C     C_R   0.535608 0.504178 0.265539 0.013645
C9    C     C_R   0.552982 0.571365 0.773384 -0.098216
C10   C     C_R   0.446999 0.428639 0.226619 -0.098210
C11   C     C_R   0.544449 0.574005 0.853768 -0.092058
C12   C     C_R   0.501053 0.262765 0.502015 0.635506
C13   C     C_R   0.455533 0.425993 0.146235 -0.092054
C14   C     C_R   0.447698 0.499960 0.896652 0.013683
C15   C     C_R   0.552301 0.500016 0.103347 0.013686
C16   C     C_R   0.355710 0.427210 0.858480 -0.063203
C17   C     C_R   0.644308 0.572748 0.141515 -0.063211
C18   C     C_R   0.363996 0.422219 0.777142 0.019187
C19   C     C_R   0.636023 0.577747 0.222853 0.019186
C20   C     C_2   0.442192 0.494817 0.981477 -0.120483
C21   C     C_2   0.557806 0.505156 0.018521 -0.120481
C22   C     C_2   0.726245 0.665544 0.261323 0.254931
C23   C     C_R   0.469107 0.936619 0.431178 -0.044422
C24   C     C_2   0.273799 0.334404 0.738668 0.254908
C25   C     C_2   0.449586 0.870679 0.356745 0.193345
C26   C     C_2   0.550418 0.129328 0.643252 0.193336
C27   C     C_2   0.115952 0.645373 0.616161 0.258719
C28   C     C_2   0.884048 0.354620 0.383842 0.258720
C29   C     C_R   0.530892 0.063382 0.568821 -0.044418
C30   C     C_R   0.472293 0.067143 0.433627 0.177337
C31   C     C_R   0.527703 0.932857 0.566374 0.177360
C32   C     C_R   0.504624 0.128596 0.501551 0.032644
C33   C     C_R   0.495376 0.871404 0.498448 0.032645
C34   C     C_R   0.912326 0.566758 0.554399 0.068133
Cu1   Cu    Cu3+1 0.359340 0.499980 0.500000 1.011451
Cu2   Cu    Cu3+1 0.640660 0.500020 0.500000 1.011461
H1    H     H_    0.628592 0.629443 0.741348 0.158668
H2    H     H_    0.155164 0.378977 0.403040 0.174659
H3    H     H_    0.703905 0.690773 0.322287 0.137882
H4    H     H_    0.296118 0.309213 0.677697 0.137877
H5    H     H_    0.494112 0.907873 0.302090 0.132101
H6    H     H_    0.505850 0.092164 0.697907 0.132071
H7    H     H_    0.384182 0.092224 0.337862 0.332778
H8    H     H_    0.615743 0.907790 0.662167 0.332782
H9    H     H_    0.220677 0.679905 0.609646 0.179186
H10   H     H_    0.779318 0.320101 0.390353 0.179193
H11   H     H_    0.371374 0.370578 0.258656 0.158667
H12   H     H_    0.658679 0.522181 0.986389 0.136416
H13   H     H_    0.341318 0.477792 0.013608 0.136416
H14   H     H_    0.281650 0.370096 0.892424 0.162476
H15   H     H_    0.718383 0.629846 0.107570 0.162467
H16   H     H_    0.386896 0.365357 0.117883 0.130260
H17   H     H_    0.613070 0.634650 0.882123 0.130262
H18   H     H_    0.844837 0.621023 0.596960 0.174661
N1    N     N_R   0.147930 0.499970 0.499980 -0.283351
N2    N     N_R   0.852070 0.500030 0.500020 -0.283350
O1    O     O_R   0.381260 0.680340 0.500000 -0.492031
O2    O     O_2   0.173629 0.287119 0.775238 -0.483011
O3    O     O_2   0.380770 0.776880 0.355200 -0.483781
O4    O     O_2   0.619284 0.223098 0.644792 -0.483744
O5    O     O_3   0.444127 0.138611 0.371085 -0.707937
O6    O     O_3   0.555863 0.861386 0.628916 -0.707933
O7    O     O_2   0.042214 0.674184 0.675865 -0.517630
O8    O     O_2   0.957793 0.325788 0.324144 -0.517639
O9    O     O_R   0.618740 0.319660 0.500000 -0.492028
O10   O     O_R   0.618830 0.680370 0.500010 -0.496454
O11   O     O_R   0.381170 0.319630 0.499990 -0.496468
O12   O     O_R   0.367440 0.500000 0.613600 -0.554737
O13   O     O_R   0.632560 0.500000 0.386400 -0.554743
O14   O     O_R   0.605010 0.500030 0.613600 -0.466759
O15   O     O_R   0.394990 0.499970 0.386400 -0.466756
O16   O     O_2   0.826459 0.712768 0.224756 -0.482999

loop_
_geom_bond_atom_site_label_1
_geom_bond_atom_site_label_2
_ccdc_geom_bond_type
C6    O13   A    
C2    C4    A    
C31   C33   A    
C34   N2    A    
C20   H13   S    
Cu2   N2    S    
C23   C30   A    
C1    O1    A    
C13   H16   S    
C5    C7    S    
C12   O9    A    
C2    H2    S    
Cu1   Cu2   S    
C11   H17   S    
Cu1   O11   S    
Cu1   O1    S    
C7    C18   A    
C28   H10   S    
C7    C9    A    
C17   H15   S    
C3    C27   S    
C1    O10   A    
C1    C33   S    
C29   C31   A    
C16   C18   A    
C12   C32   S    
C30   C32   A    
C9    C11   A    
C31   O6    S    
C27   H9    S    
C5    O14   A    
C26   O4    D    
C27   O7    D    
Cu1   O12   S    
C5    O12   A    
C18   C24   S    
C22   H3    S    
C28   O8    D    
C22   O16   D    
C24   H4    S    
C19   C22   S    
Cu2   O14   S    
C34   H18   S    
C29   C32   A    
Cu2   O10   S    
C2    N1    A    
C13   C15   A    
C6    O15   A    
C8    C10   A    
C12   O11   A    
C14   C16   A    
C10   H11   S    
C8    C19   A    
Cu1   N1    S    
C21   H12   S    
C14   C20   S    
C15   C21   S    
C23   C25   S    
Cu2   O13   S    
C26   H6    S    
C26   C29   S    
C24   O2    D    
C9    H1    S    
C4    C28   S    
C30   O5    S    
C25   H5    S    
C11   C14   A    
C15   C17   A    
Cu2   O9    S    
C17   C19   A    
C6    C8    S    
C25   O3    D    
C3    C34   A    
H8    O6    S    
C20   C21   D    
C3    N1    A    
H7    O5    S    
C4    N2    A    
Cu1   O15   S    
C16   H14   S    
C23   C33   A    
C10   C13   A    
