data_mof_unit_32828.cif
_audit_creation_date              2013-03-05T16:12:13-0500
_audit_creation_method            fapswitch 2.2
_symmetry_space_group_name_H-M    P1
_symmetry_Int_Tables_number       1
_space_group_crystal_system       triclinic
_cell_length_a                    10.732623
_cell_length_b                    9.402463
_cell_length_c                    27.762212
_cell_angle_alpha                 89.855626
_cell_angle_beta                  90.043293
_cell_angle_gamma                 90.028488
_cell_volume                      2801.56057866

loop_
_atom_site_label
_atom_site_type_symbol
_atom_site_description
_atom_site_fract_x
_atom_site_fract_y
_atom_site_fract_z
_atom_type_partial_charge
O1    O     O_R   0.317570 0.620260 0.500030 -0.596807
O2    O     O_R   0.317570 0.379740 0.500030 -0.583524
C1    C     C_R   0.259695 0.499771 0.499847 0.843832
O3    O     O_R   0.499900 0.620250 0.430280 -0.592823
O4    O     O_R   0.499900 0.379750 0.430280 -0.589079
C2    C     C_R   0.499927 0.500211 0.407404 0.840949
Cu1   Cu    Cu3+1 0.499860 0.642410 0.500020 0.911113
Cu2   Cu    Cu3+1 0.499860 0.357590 0.500020 0.913115
O5    O     O_R   0.682190 0.620260 0.500010 -0.599526
O6    O     O_R   0.682190 0.379740 0.500010 -0.599601
O7    O     O_R   0.499860 0.620280 0.569750 -0.587112
O8    O     O_R   0.499860 0.379720 0.569750 -0.592406
C3    C     C_R   0.740090 0.499828 0.499784 0.784855
C4    C     C_R   0.499379 0.499678 0.592573 0.855529
C5    C     C_R   0.376841 0.483729 0.178712 0.550691
O9    O     O_2   0.272403 0.476906 0.205414 -0.472915
N1    N     N_R   0.488848 0.497829 0.201741 -0.481395
C6    C     C_R   0.598319 0.506671 0.177016 0.525663
C7    C     C_R   0.500937 0.373502 0.278726 -0.104062
C8    C     C_R   0.503937 0.372780 0.328777 -0.201379
C9    C     C_R   0.488960 0.630162 0.328964 -0.173413
C10   C     C_R   0.485285 0.632549 0.278245 0.191993
C11   C     C_R   0.491717 0.501826 0.253384 0.305344
C12   C     C_R   0.484774 0.484776 0.101806 -0.078964
C13   C     C_R   0.371289 0.477695 0.127819 -0.082039
C14   C     C_R   0.258209 0.464980 0.101735 0.216723
C15   C     C_R   0.598460 0.500684 0.126699 -0.008286
C16   C     C_R   0.498107 0.500973 0.354334 -0.073154
H1    H     H_    0.484120 0.728079 0.349116 0.156186
C17   C     C_R   0.495910 0.497551 0.645535 -0.105270
C18   C     C_R   0.373290 0.492917 0.974454 0.073136
C19   C     C_R   0.599813 0.446924 0.974819 -0.012642
C20   C     C_R   0.487058 0.472507 0.949309 0.045685
C21   C     C_R   0.265368 0.528878 0.947915 -0.209875
C22   C     C_R   0.268138 0.538970 0.897993 -0.142497
C23   C     C_R   0.378166 0.511840 0.872744 -0.010705
C24   C     C_R   0.487546 0.476917 0.898305 -0.047441
C25   C     C_R   0.597067 0.445814 0.872754 -0.063343
C26   C     C_R   0.595821 0.451314 0.822200 0.573841
N2    N     N_R   0.489230 0.487779 0.798174 -0.463518
C27   C     C_R   0.381542 0.518448 0.822266 0.548587
C28   C     C_R   0.455258 0.367715 0.720325 0.157643
C29   C     C_R   0.459987 0.372948 0.669746 -0.165937
C30   C     C_R   0.527755 0.618709 0.672030 -0.241270
C31   C     C_R   0.525812 0.615218 0.722204 0.209307
C32   C     C_R   0.489744 0.490416 0.746491 0.262941
O10   O     O_2   0.278102 0.554222 0.797367 -0.514854
C33   C     C_R   0.371504 0.479201 0.025299 0.005793
C34   C     C_R   0.485266 0.477334 0.050735 0.077662
C35   C     C_R   0.599938 0.471481 0.025390 0.043221
C36   C     C_R   0.259665 0.468465 0.051532 -0.246289
H2    H     H_    0.434586 0.281001 0.648664 0.163429
H3    H     H_    0.183184 0.567662 0.879244 0.191538
H4    H     H_    0.178328 0.555365 0.965082 0.147592
H5    H     H_    0.171199 0.457311 0.033513 0.154087
O11   O     O_2   0.706725 0.520964 0.201226 -0.511590
C37   C     C_R   0.709564 0.513958 0.100826 -0.125749
H6    H     H_    0.510907 0.271752 0.347400 0.150838
H7    H     H_    0.505727 0.273824 0.259368 0.139916
H8    H     H_    0.796903 0.534733 0.118986 0.212663
C38   C     C_R   0.705623 0.397019 0.948305 0.131186
C39   C     C_R   0.703387 0.402577 0.897836 -0.148802
O12   O     O_2   0.700030 0.420278 0.797161 -0.517052
C40   C     C_R   0.709902 0.501521 0.051023 -0.220410
H9    H     H_    0.556010 0.715507 0.653851 0.163822
H10   H     H_    0.783942 0.365908 0.877922 0.197000
H11   H     H_    0.796836 0.520157 0.032835 0.177915
C41   C     C_3   0.071394 0.584734 0.455565 -0.037347
C42   C     C_3   0.071488 0.570893 0.546407 -0.035231
H12   H     H_    0.102316 0.697432 0.458700 0.128797
H13   H     H_    0.103919 0.683391 0.547423 0.132246
C43   C     C_3   0.927333 0.582017 0.455249 -0.391783
C44   C     C_3   0.927414 0.570395 0.546181 -0.388520
H14   H     H_    0.891715 0.693232 0.455552 0.152558
H15   H     H_    0.892966 0.681855 0.548563 0.153003
H16   H     H_    0.891811 0.531361 0.421783 0.194807
H17   H     H_    0.890622 0.512621 0.578165 0.195931
H18   H     H_    0.104059 0.290484 0.463768 0.188594
H19   H     H_    0.105300 0.279418 0.527895 0.189090
H20   H     H_    0.893233 0.290157 0.464516 0.173395
H21   H     H_    0.894931 0.282486 0.529223 0.175961
C45   C     C_3   0.070745 0.344060 0.497037 -0.351547
C46   C     C_3   0.121750 0.498927 0.499693 0.050627
C47   C     C_3   0.877932 0.499261 0.499661 0.082669
C48   C     C_3   0.928255 0.344407 0.497486 -0.373061
C49   C     C_3   0.627149 0.083800 0.493724 -0.188963
C50   C     C_3   0.627147 0.916394 0.493701 -0.189118
H22   H     H_    0.690408 0.121437 0.522775 0.143166
H23   H     H_    0.690519 0.878219 0.522701 0.142995
H24   H     H_    0.666328 0.123576 0.459121 0.140772
H25   H     H_    0.666215 0.877262 0.459066 0.141552
H26   H     H_    0.511907 0.120298 0.577643 0.146785
H27   H     H_    0.511854 0.878812 0.577662 0.147819
C51   C     C_3   0.452841 0.083509 0.547217 -0.190778
C52   C     C_3   0.452830 0.915885 0.547217 -0.180022
C53   C     C_3   0.420053 0.083979 0.462221 -0.181975
C54   C     C_3   0.420069 0.916443 0.462218 -0.184589
N3    N     N_3   0.500250 0.143650 0.501060 -0.119485
N4    N     N_3   0.500250 0.856350 0.501060 -0.120878
H28   H     H_    0.322901 0.123039 0.466336 0.145859
H29   H     H_    0.322920 0.877179 0.466318 0.145557
H30   H     H_    0.452697 0.121990 0.426475 0.146886
H31   H     H_    0.452750 0.878936 0.426485 0.144914
H32   H     H_    0.357043 0.123514 0.554270 0.148469
H33   H     H_    0.357010 0.875741 0.554261 0.149447
C55   C     C_3   0.811532 0.311304 0.970422 -0.394267
C56   C     C_3   0.938765 0.382165 0.963272 -0.836978
H34   H     H_    0.967751 0.376246 0.924957 0.256013
H35   H     H_    0.937136 0.495602 0.974067 0.245752
H36   H     H_    0.009680 0.325558 0.985230 0.251468
H37   H     H_    0.796263 0.286383 0.008952 0.218615
H38   H     H_    0.814259 0.205448 0.952671 0.212147
I1    I     I_    0.579830 0.800412 0.760235 -0.347389
I2    I     I_    0.144166 0.513703 0.387086 -0.386948
I3    I     I_    0.141720 0.476388 0.612174 -0.405692
C57   C     C_3   0.474342 0.770019 0.249437 -0.367593
C58   C     C_3   0.465838 0.906937 0.278936 -0.847580
H39   H     H_    0.382232 0.904934 0.302493 0.260738
H40   H     H_    0.551271 0.921668 0.300981 0.246131
H41   H     H_    0.457347 0.999272 0.254138 0.253510
H42   H     H_    0.556493 0.779229 0.225296 0.221191
H43   H     H_    0.389815 0.763755 0.226395 0.227737
I4    I     I_    0.076660 0.439212 0.131829 -0.277263
C59   C     C_3   0.415166 0.234568 0.747617 -0.369148
C60   C     C_3   0.371905 0.109578 0.716603 -0.785564
H44   H     H_    0.291427 0.141286 0.693800 0.259276
H45   H     H_    0.449369 0.070477 0.693668 0.248894
H46   H     H_    0.341489 0.020947 0.740349 0.275000
H47   H     H_    0.494119 0.197799 0.770370 0.227033
H48   H     H_    0.336857 0.262571 0.771943 0.226247

loop_
_geom_bond_atom_site_label_1
_geom_bond_atom_site_label_2
_geom_bond_distance
_ccdc_geom_bond_type
C53   H30   1.110836 S    
C22   H3    1.083466 S    
C35   C40   1.406598 A    
C7    C8    1.389869 A    
C12   C15   1.409892 A    
C43   H16   1.112184 S    
C34   C35   1.419301 A    
H20   C48   1.113967 S    
C23   C27   1.403093 A    
C28   C59   1.523709 S    
Cu1   Cu2   2.678009 S    
C55   H38   1.112146 S    
C31   C32   1.406196 A    
Cu1   O7    1.946488 S    
C3    C47   1.479429 S    
N1    C11   1.434620 S    
C57   H43   1.111278 S    
C23   C24   1.409776 A    
C19   C38   1.433569 A    
C50   H25   1.112804 S    
C58   H40   1.110837 S    
O4    C2    1.297131 A    
O7    C4    1.297590 A    
C49   H22   1.112209 S    
C29   H2    1.079983 S    
C5    C13   1.415378 A    
C55   C56   1.531943 S    
C51   N3    1.489219 S    
C52   N4    1.489727 S    
C5    O9    1.345741 S    
C57   C58   1.530311 S    
Cu1   O5    1.968034 S    
C21   C22   1.389271 A    
C28   C32   1.413889 A    
C42   H13   1.113806 S    
Cu2   N3    2.011704 S    
O5    C3    1.291966 A    
C52   H33   1.112591 S    
C33   C36   1.407897 A    
C2    C16   1.473449 S    
C22   C23   1.397634 A    
C53   N3    1.489761 S    
C60   H46   1.110364 S    
C56   H34   1.110039 S    
C18   C20   1.420304 A    
C42   C44   1.546304 S    
C44   C47   1.549295 S    
C6    O11   1.350040 S    
C10   C57   1.522809 S    
C51   H32   1.112656 S    
H27   C52   1.111360 S    
C9    C10   1.408697 A    
C44   H15   1.113615 S    
C17   C30   1.399661 A    
C30   H9    1.082893 S    
C38   C39   1.402161 A    
C4    C17   1.470933 S    
O3    Cu1   1.947838 S    
C54   N4    1.489516 S    
C50   N4    1.488095 S    
C55   H37   1.106756 S    
C25   C26   1.404378 A    
C57   H42   1.111129 S    
C39   H10   1.083502 S    
C40   H11   1.075318 S    
C12   C13   1.417922 A    
C43   H14   1.113609 S    
C15   C37   1.397894 A    
C58   H41   1.110392 S    
C26   N2    1.367217 A    
C49   C50   1.574034 S    
C37   H8    1.081951 S    
C8    C16   1.401642 A    
C7    H7    1.082803 S    
C13   C14   1.417960 A    
C9    H1    1.079821 S    
C20   C24   1.416486 A    
C41   C43   1.546373 S    
O1    C1    1.291753 A    
C7    C11   1.398681 A    
C24   C25   1.404652 A    
C42   C46   1.560967 S    
H19   C45   1.112666 S    
H18   C45   1.112512 S    
Cu2   O8    1.947531 S    
C53   C54   1.575251 S    
H26   C51   1.111505 S    
N1    C6    1.363582 A    
C27   O10   1.349643 S    
C18   C21   1.413038 A    
C59   H48   1.110752 S    
C43   C47   1.550015 S    
C47   C48   1.554538 S    
C38   C55   1.521827 S    
C19   C35   1.423397 A    
C54   H31   1.110815 S    
Cu1   N4    2.011845 S    
O3    C2    1.296468 A    
N2    C27   1.367030 A    
C9    C16   1.406037 A    
O8    C4    1.295094 A    
C21   H4    1.078579 S    
C18   C33   1.417277 A    
C50   H23   1.112463 S    
C49   H24   1.112741 S    
C60   H44   1.110939 S    
C56   H36   1.110065 S    
C17   C29   1.403209 A    
C28   C29   1.405860 A    
N2    C32   1.435023 S    
C8    H6    1.082943 S    
C30   C31   1.393422 A    
C37   C40   1.387878 A    
C12   C34   1.419751 A    
C5    N1    1.367681 A    
C42   I3    2.163771 S    
O1    Cu1   1.967402 S    
C41   C46   1.561504 S    
Cu2   O6    1.967828 S    
O2    Cu2   1.967608 S    
C6    C15   1.398189 A    
O6    C3    1.288560 A    
O4    Cu2   1.946794 S    
C45   C48   1.529348 S    
C26   O12   1.349729 S    
C19   C20   1.421982 A    
O2    C1    1.288497 A    
C58   H39   1.110879 S    
C1    C46   1.480537 S    
C56   H35   1.108767 S    
C33   C34   1.410090 A    
C53   H28   1.111716 S    
C59   H47   1.111287 S    
C36   H5    1.078047 S    
C51   C52   1.576083 S    
C49   N3    1.488239 S    
C54   H29   1.111745 S    
C31   I1    2.119026 S    
C41   H12   1.113835 S    
C45   C46   1.557277 S    
C14   I4    2.134096 S    
C60   H45   1.110904 S    
C44   H17   1.112351 S    
C10   C11   1.412904 A    
C14   C36   1.394148 A    
H21   C48   1.113951 S    
C41   I2    2.163224 S    
C59   C60   1.530352 S    
C25   C39   1.396459 A    
