data_mof_unit_41318.cif
_audit_creation_date              2013-03-05T15:46:11-0500
_audit_creation_method            fapswitch 2.2
_symmetry_space_group_name_H-M    P1
_symmetry_Int_Tables_number       1
_space_group_crystal_system       triclinic
_cell_length_a                    10.583587
_cell_length_b                    10.675473
_cell_length_c                    17.14219
_cell_angle_alpha                 80.379055
_cell_angle_beta                  90.074308
_cell_angle_gamma                 119.5042
_cell_volume                      1654.50908982

loop_
_atom_site_label
_atom_site_type_symbol
_atom_site_description
_atom_site_fract_x
_atom_site_fract_y
_atom_site_fract_z
_atom_type_partial_charge
O1    O     O_R   0.521780 0.757110 0.108900 -0.491025
O2    O     O_R   0.275160 0.783810 0.101120 -0.466045
C1    C     C_R   0.222927 0.854318 0.128792 0.558965
O3    O     O_R   0.237900 0.972600 0.090980 -0.504820
O4    O     O_R   0.511190 0.220540 0.061620 -0.497506
C2    C     C_R   0.635405 0.272469 0.090262 0.580723
O5    O     O_R   0.736920 0.257720 0.063840 -0.430074
O6    O     O_R   0.710450 0.984050 0.081720 -0.480783
C3    C     C_R   0.640751 0.858245 0.125346 0.545144
O7    O     O_R   0.524090 0.765520 0.933110 -0.457317
O8    O     O_R   0.277300 0.791600 0.938160 -0.448793
C4    C     C_R   0.211345 0.855986 0.904055 0.571907
O9    O     O_R   0.240210 0.981010 0.915190 -0.520261
O10   O     O_R   0.513330 0.228330 0.898660 -0.458256
C5    C     C_R   0.637195 0.284212 0.860875 0.616370
O11   O     O_R   0.739230 0.266130 0.888050 -0.420248
O12   O     O_R   0.712580 0.991850 0.918770 -0.451864
C6    C     C_R   0.646374 0.867770 0.898784 0.594297
Cr1   Cr    Cr6+3 0.402240 0.783890 0.019450 1.169142
Cr2   Cr    Cr6+3 0.382360 0.097900 0.991800 1.128229
Cr3   Cr    Cr6+3 0.715380 0.118170 0.988700 1.197993
O13   O     O_3   0.499990 0.999980 0.999980 -0.331822
C7    C     C_R   0.539858 0.325623 0.203945 -0.133531
H1    H     H_    0.460808 0.338205 0.168258 0.197638
C8    C     C_R   0.536090 0.333305 0.283816 0.334834
C9    C     C_R   0.634490 0.311471 0.331484 -0.014434
C10   C     C_R   0.724786 0.265756 0.300527 0.122697
C11   C     C_R   0.746926 0.284585 0.218544 0.150986
C12   C     C_R   0.647947 0.306814 0.169851 -0.092471
C13   C     C_1   0.668881 0.848061 0.205429 0.028042
C14   C     C_1   0.680035 0.838300 0.274829 0.032623
C15   C     C_1   0.180677 0.825605 0.211289 0.000289
C16   C     C_1   0.151125 0.819678 0.279759 -0.006585
C17   C     C_1   0.643919 0.323379 0.778080 0.043775
C18   C     C_1   0.651762 0.345541 0.707546 0.028438
C19   C     C_R   0.639425 0.717278 0.803567 0.130286
C20   C     C_R   0.628177 0.701052 0.725209 -0.203185
H2    H     H_    0.592742 0.593544 0.711773 0.175967
C21   C     C_R   0.666979 0.822287 0.664232 -0.054294
C22   C     C_R   0.720811 0.961841 0.680816 0.434693
C23   C     C_R   0.734626 0.980274 0.758960 0.362612
C24   C     C_R   0.687733 0.857005 0.820970 -0.043310
C25   C     C_R   0.107141 0.914963 0.787990 -0.138936
H3    H     H_    0.126864 0.014349 0.807165 0.202154
C26   C     C_R   0.088847 0.912510 0.709263 0.163825
C27   C     C_R   0.061139 0.785707 0.679954 -0.055334
C28   C     C_R   0.054903 0.665624 0.732205 -0.153930
H4    H     H_    0.026290 0.565333 0.711387 0.198426
C29   C     C_R   0.090871 0.676405 0.810641 0.185603
C30   C     C_R   0.126492 0.807737 0.836627 -0.015628
O14   O     O_R   0.083770 0.911170 0.376030 -0.468608
O15   O     O_R   0.808770 0.880340 0.383890 -0.452435
C31   C     C_R   0.686529 0.809687 0.357132 0.579037
O16   O     O_R   0.584340 0.689460 0.394160 -0.474054
O17   O     O_R   0.614320 0.443940 0.423590 -0.436432
C32   C     C_R   0.680377 0.382367 0.400192 0.595179
O18   O     O_R   0.805020 0.410040 0.421340 -0.452118
O19   O     O_R   0.049240 0.685450 0.403290 -0.485974
C33   C     C_R   0.103504 0.810235 0.359098 0.553546
O20   O     O_R   0.077520 0.903010 0.551800 -0.428685
O21   O     O_R   0.802980 0.872780 0.546830 -0.439947
C34   C     C_R   0.676933 0.801206 0.584639 0.601451
O22   O     O_R   0.578090 0.681300 0.569920 -0.510041
O23   O     O_R   0.608530 0.436370 0.586530 -0.496908
C35   C     C_R   0.679161 0.382935 0.624529 0.577517
O24   O     O_R   0.798770 0.401880 0.597100 -0.445952
O25   O     O_R   0.043450 0.677890 0.566230 -0.496957
C36   C     C_R   0.032801 0.777226 0.596881 0.530008
Cr4   Cr    Cr6+3 0.936650 0.882420 0.465510 1.201692
Cr5   Cr    Cr6+3 0.605770 0.565620 0.493360 1.148067
Cr6   Cr    Cr6+3 0.921340 0.550490 0.496380 1.152218
O26   O     O_3   0.821250 0.666180 0.485090 -0.360684
N1    N     N_R   0.123032 0.049264 0.659167 0.107816
O27   O     O_R   0.019956 0.070433 0.630731 -0.246612
O28   O     O_R   0.254551 0.160769 0.653654 -0.294746
N2    N     N_R   0.088800 0.554512 0.862396 0.098556
O29   O     O_R   0.042878 0.523290 0.937268 -0.272240
O30   O     O_R   0.112366 0.462246 0.833030 -0.259554
F1    F     F_    0.440855 0.368208 0.313269 -0.566233
N3    N     N_R   0.802463 0.212177 0.352081 0.111083
O31   O     O_R   0.733934 0.115405 0.416444 -0.290497
O32   O     O_R   0.943843 0.274529 0.341512 -0.220646
N4    N     N_R   0.872677 0.286533 0.185438 0.136154
O33   O     O_R   0.887467 0.171229 0.200870 -0.291036
O34   O     O_R   0.977235 0.407570 0.143543 -0.263587
N5    N     N_R   0.593458 0.590233 0.864971 0.088236
O35   O     O_R   0.472948 0.469908 0.861503 -0.285520
O36   O     O_R   0.668578 0.595738 0.925764 -0.337038
F2    F     F_    0.759677 0.079395 0.621438 -0.523756
F3    F     F_    0.783415 0.116945 0.773799 -0.565509

loop_
_geom_bond_atom_site_label_1
_geom_bond_atom_site_label_2
_geom_bond_distance
_ccdc_geom_bond_type
O17   C32   1.274055 A    
O11   Cr3   2.057428 S    
N1    O27   1.297458 A    
C19   C24   1.404487 A    
C28   C29   1.404730 A    
O4    Cr2   1.940857 S    
C31   O16   1.257824 A    
O8    Cr1   1.939375 S    
C9    C10   1.407229 A    
C20   H2    1.084015 S    
C7    C12   1.399199 A    
C19   C20   1.380391 A    
N2    O30   1.301474 A    
C6    C24   1.444448 S    
C13   C14   1.187619 T    
N5    O36   1.301490 A    
O19   Cr6   1.941839 S    
C18   C35   1.402061 S    
C5    O11   1.262701 A    
C32   O18   1.268704 A    
C26   N1    1.435691 S    
C17   C18   1.187489 T    
C23   C24   1.413682 A    
O15   Cr4   1.940552 S    
N4    O33   1.300197 A    
O6    C3    1.263743 A    
C7    H1    1.083564 S    
O23   Cr5   1.938690 S    
C22   F2    1.358606 S    
C5    C17   1.402440 S    
C23   F3    1.357108 S    
C16   C33   1.421198 S    
Cr3   O13   1.978003 S    
C11   N4    1.436848 S    
N1    O28   1.301581 A    
O21   C34   1.271311 A    
O6    Cr3   1.938784 S    
O1    Cr1   2.058712 S    
O25   C36   1.310523 A    
C28   H4    1.083253 S    
O10   Cr2   1.941891 S    
Cr1   O13   1.973865 S    
O1    C3    1.261896 A    
N2    O29   1.301416 A    
N3    O32   1.301611 A    
C10   N3    1.440941 S    
C21   C22   1.389255 A    
N5    O35   1.300724 A    
C19   N5    1.434696 S    
O19   C33   1.260382 A    
O5    Cr3   2.058300 S    
C14   C31   1.401752 S    
Cr4   O26   1.974424 S    
C25   H3    1.084232 S    
C27   C36   1.463319 S    
C34   O22   1.258912 A    
O24   Cr6   2.060062 S    
O16   Cr5   2.057636 S    
O22   Cr5   2.057277 S    
O7    Cr1   2.059902 S    
O12   C6    1.264836 A    
C29   N2    1.437690 S    
O18   Cr6   2.059330 S    
C25   C26   1.365873 A    
C3    C13   1.402122 S    
C22   C23   1.383401 A    
N4    O34   1.301316 A    
Cr2   O13   1.973497 S    
C35   O24   1.257794 A    
O14   C33   1.270939 A    
C1    O3    1.252717 A    
O15   C31   1.267294 A    
O21   Cr4   1.941389 S    
C21   C34   1.431684 S    
C27   C28   1.408190 A    
C11   C12   1.423653 A    
O9    Cr2   2.058813 S    
O2    Cr1   1.942238 S    
C8    F1    1.357856 S    
N3    O31   1.301421 A    
C9    C32   1.459570 S    
C4    C30   1.465776 S    
O8    C4    1.280128 A    
C25   C30   1.399592 A    
C2    O5    1.255380 A    
C15   C16   1.198370 T    
O2    C1    1.275563 A    
C8    C9    1.407062 A    
Cr6   O26   1.973106 S    
C20   C21   1.400611 A    
O23   C35   1.266128 A    
O4    C2    1.283802 A    
O20   Cr4   2.058964 S    
O7    C6    1.268270 A    
O25   Cr6   1.939776 S    
C7    C8    1.387030 A    
C1    C15   1.419704 S    
O12   Cr3   1.938376 S    
O17   Cr5   1.939426 S    
O3    Cr2   2.061444 S    
C26   C27   1.416630 A    
C2    C12   1.460223 S    
C4    O9    1.262754 A    
O20   C36   1.285469 A    
C29   C30   1.412077 A    
C10   C11   1.389391 A    
O10   C5    1.263608 A    
Cr5   O26   1.977875 S    
O14   Cr4   2.061443 S    
