data_mof_unit_29175.cif
_audit_creation_date              2012-10-26T21:07:29-0400
_audit_creation_method            fapswitch 2.2
_symmetry_space_group_name_H-M    P1
_symmetry_Int_Tables_number       1
_space_group_crystal_system       triclinic
_cell_length_a                    9.671838
_cell_length_b                    10.920743
_cell_length_c                    17.369658
_cell_angle_alpha                 89.620585
_cell_angle_beta                  85.986133
_cell_angle_gamma                 89.714252
_cell_volume                      1830.08772044

loop_
_atom_site_label
_atom_site_type_symbol
_atom_type_description
_atom_site_fract_x
_atom_site_fract_y
_atom_site_fract_z
_atom_type_partial_charge
C1    C     C_R   0.499635 0.734747 0.501389 0.542600
C2    C     C_R   0.528839 0.490096 0.265358 0.022824
C3    C     C_2   0.614190 0.066341 0.501021 -0.160071
C4    C     C_R   0.481844 0.502618 0.650028 0.555864
C5    C     C_2   0.499126 0.133202 0.494542 -0.113477
C6    C     C_2   0.614016 0.932417 0.497102 -0.161844
C7    C     C_2   0.497301 0.866701 0.506798 -0.126824
C8    C     C_2   0.081925 0.577954 0.461621 0.358177
C9    C     C_2   0.928245 0.561801 0.452639 -0.032785
C10   C     C_R   0.500310 0.265234 0.498881 0.558973
C11   C     C_R   0.518046 0.497514 0.349980 0.562973
C12   C     C_R   0.345454 0.510419 0.779181 0.252653
C13   C     C_R   0.473404 0.512004 0.734560 0.019332
C14   C     C_R   0.596906 0.526629 0.771398 -0.179732
C15   C     C_R   0.594888 0.534378 0.850998 -0.127381
C16   C     C_R   0.469136 0.525150 0.895713 0.001081
C17   C     C_R   0.344913 0.515074 0.859623 -0.099987
C18   C     C_3   0.099720 0.784914 0.443103 0.002735
C19   C     C_3   0.173287 0.884409 0.393609 -0.262987
C20   C     C_3   0.126924 0.012067 0.420130 -0.482733
C21   C     C_3   0.170745 0.484137 0.234034 0.022724
C22   C     C_3   0.182701 0.624382 0.225218 -0.269947
C23   C     C_R   0.430304 0.448187 0.143924 -0.100049
C24   C     C_3   0.041628 0.683689 0.215827 -0.479775
C25   C     C_3   0.153779 0.608686 0.741324 0.021434
C26   C     C_3   0.018874 0.591368 0.702049 -0.246688
C27   C     C_3   0.944115 0.712878 0.690858 -0.491345
C28   C     C_R   0.412938 0.458245 0.224399 0.266938
C29   C     C_R   0.657161 0.514045 0.225112 -0.180490
C30   C     C_R   0.670517 0.509352 0.145058 -0.136295
C31   C     C_R   0.556356 0.479455 0.104265 -0.002299
C32   C     C_2   0.463732 0.524362 0.980211 -0.132453
C33   C     C_2   0.568923 0.483379 0.019869 -0.128403
Cu1   Cu    Cu3+1 0.361370 0.499980 0.499980 1.027656
Cu2   Cu    Cu3+1 0.638630 0.500020 0.500020 0.914310
H1    H     H_    0.696071 0.532074 0.738698 0.133864
H2    H     H_    0.746992 0.538575 0.255473 0.125894
H3    H     H_    0.666542 0.454607 0.990847 0.120357
H4    H     H_    0.247210 0.508199 0.893937 0.105708
H5    H     H_    0.346085 0.415812 0.111862 0.101549
H6    H     H_    0.367455 0.553756 0.010765 0.108841
H7    H     H_    0.692068 0.547754 0.876978 0.111655
H8    H     H_    0.118979 0.800283 0.504820 0.137874
H9    H     H_    0.986675 0.793596 0.435758 0.102996
H10   H     H_    0.287133 0.875629 0.396819 0.176282
H11   H     H_    0.149596 0.872691 0.332436 0.158479
H12   H     H_    0.769124 0.531544 0.114858 0.107983
H13   H     H_    0.013950 0.024159 0.414474 0.148642
H14   H     H_    0.183542 0.082218 0.383860 0.166071
H15   H     H_    0.149499 0.026140 0.481262 0.140200
H16   H     H_    0.080528 0.463792 0.275227 0.166189
H17   H     H_    0.146699 0.441168 0.178815 0.104679
H18   H     H_    0.228297 0.663359 0.276445 0.221540
H19   H     H_    0.252272 0.647384 0.173598 0.133701
H20   H     H_    0.993357 0.644308 0.165419 0.137683
H21   H     H_    0.054622 0.783729 0.206354 0.145118
H22   H     H_    0.972073 0.669055 0.268652 0.148255
H23   H     H_    0.712979 0.110502 0.507790 0.148284
H24   H     H_    0.219976 0.675391 0.706831 0.137401
H25   H     H_    0.128248 0.646122 0.800176 0.112738
H26   H     H_    0.042209 0.548654 0.644891 0.172243
H27   H     H_    0.949960 0.528808 0.737635 0.157540
H28   H     H_    0.916208 0.756053 0.747586 0.146909
H29   H     H_    0.847695 0.696584 0.661359 0.161145
H30   H     H_    0.011032 0.776099 0.654580 0.138210
H31   H     H_    0.400690 0.092196 0.484064 0.100480
H32   H     H_    0.713917 0.887231 0.486892 0.140247
H33   H     H_    0.396977 0.908407 0.520674 0.093552
H34   H     H_    0.102531 0.426254 0.524962 0.166938
H35   H     H_    0.883099 0.608496 0.405081 0.134863
H36   H     H_    0.887887 0.466342 0.549429 0.193278
N1    N     N_2   0.152990 0.501340 0.500850 -0.322180
N2    N     N_2   0.846850 0.501370 0.500880 -0.379094
O1    O     O_R   0.382960 0.678040 0.499990 -0.469454
O2    O     O_3   0.288095 0.428702 0.264981 -0.550030
O3    O     O_3   0.221785 0.494269 0.745297 -0.555321
O4    O     O_R   0.617100 0.678080 0.500010 -0.504795
O5    O     O_R   0.369350 0.500000 0.613580 -0.460682
O6    O     O_R   0.603500 0.500040 0.613610 -0.521517
O7    O     O_R   0.382900 0.321920 0.499990 -0.501591
O8    O     O_R   0.617040 0.321960 0.500010 -0.490727
O9    O     O_R   0.396500 0.499960 0.386390 -0.409074
O10   O     O_R   0.630650 0.500000 0.386420 -0.522217
O11   O     O_3   0.152144 0.669051 0.419377 -0.535413

loop_
_geom_bond_atom_site_label_1
_geom_bond_atom_site_label_2
_ccdc_geom_bond_type
C8    C9    S    
C1    O4    A    
C19   C20   S    
C3    C6    S    
Cu2   O8    S    
C19   H11   S    
C22   H19   S    
C24   H20   S    
C26   C27   S    
C20   H14   S    
C2    C29   A    
C1    O1    A    
C26   H26   S    
C18   C19   S    
C14   H1    S    
C30   C31   A    
C23   H5    S    
Cu1   Cu2   S    
C17   H4    S    
C4    C13   S    
C20   H15   S    
Cu1   O7    S    
C7    H33   S    
C24   H22   S    
C12   C17   A    
C18   O11   S    
C32   H6    S    
C31   C33   S    
C25   H25   S    
C1    C7    S    
C21   C22   S    
C9    N2    D    
C2    C11   S    
C22   H18   S    
C11   O9    A    
C8    N1    D    
C30   H12   S    
C9    H35   S    
C4    O6    A    
H36   N2    S    
Cu2   O10   S    
C16   C17   A    
C11   O10   A    
C25   C26   S    
Cu2   O4    S    
C23   C31   A    
H34   N1    S    
C4    O5    A    
C29   C30   A    
C27   H30   S    
C18   H9    S    
C23   C28   A    
C20   H13   S    
C27   H28   S    
Cu1   O1    S    
C6    H32   S    
C12   O3    S    
C22   C24   S    
C16   C32   S    
Cu1   N1    S    
C21   H16   S    
Cu2   N2    S    
C10   O7    A    
C8    O11   S    
C15   H7    S    
C5    H31   S    
C3    C5    D    
C19   H10   S    
C6    C7    D    
C24   H21   S    
C25   H24   S    
C21   O2    S    
C10   O8    A    
C33   H3    S    
C25   O3    S    
C32   C33   D    
C26   H27   S    
C5    C10   S    
C18   H8    S    
Cu1   O5    S    
Cu2   O6    S    
C27   H29   S    
C3    H23   S    
C12   C13   A    
C29   H2    S    
C14   C15   A    
C2    C28   A    
Cu1   O9    S    
C13   C14   A    
C28   O2    S    
C21   H17   S    
C15   C16   A    
