data_mof_unit_68412.cif
_audit_creation_date              2012-12-10T17:06:13-0500
_audit_creation_method            fapswitch 2.2
_symmetry_space_group_name_H-M    P1
_symmetry_Int_Tables_number       1
_space_group_crystal_system       triclinic
_cell_length_a                    10.721726
_cell_length_b                    11.112201
_cell_length_c                    9.942394
_cell_angle_alpha                 110.681265
_cell_angle_beta                  98.874208
_cell_angle_gamma                 92.627546
_cell_volume                      1088.48875913

loop_
_atom_site_label
_atom_site_type_symbol
_atom_type_description
_atom_site_fract_x
_atom_site_fract_y
_atom_site_fract_z
_atom_type_partial_charge
C1    C     C_R   0.493879 0.255344 0.441363 0.843455
C2    C     C_R   0.506019 0.744670 0.558718 0.836501
C3    C     C_R   0.259495 0.498821 0.499857 0.796883
C4    C     C_R   0.740022 0.505453 0.500668 0.795228
C5    C     C_3   0.048667 0.457912 0.598802 0.118501
C6    C     C_3   0.948490 0.551870 0.399846 0.124894
C7    C     C_3   0.943973 0.383655 0.466039 -0.035723
C8    C     C_3   0.054341 0.625379 0.532392 -0.032524
C9    C     C_3   0.875828 0.507835 0.499088 -0.119462
C10   C     C_3   0.122525 0.500966 0.499845 -0.122193
C11   C     C_3   0.980542 0.581611 0.632766 -0.068533
C12   C     C_3   0.016935 0.427968 0.365331 -0.057037
C13   C     C_2   0.483025 0.117307 0.409870 -0.363622
C14   C     C_2   0.516759 0.882786 0.590673 -0.362860
C15   C     C_2   0.525422 0.066890 0.511424 0.178285
C16   C     C_2   0.473886 0.933575 0.489677 0.200949
C17   C     C_2   0.492663 0.524335 0.081701 0.221857
C18   C     C_2   0.486036 0.490086 0.917268 0.216847
Cu1   Cu    Cu3+1 0.522260 0.521810 0.644920 0.988327
Cu2   Cu    Cu3+1 0.477740 0.478190 0.355080 0.985962
H1    H     H_    0.570664 0.942387 0.697270 0.131098
H2    H     H_    0.429456 0.057440 0.303176 0.132905
N1    N     N_2   0.444270 0.445410 0.137360 -0.097699
N2    N     N_2   0.555730 0.554590 0.862640 -0.104448
O1    O     O_R   0.511880 0.332340 0.577400 -0.554463
O2    O     O_R   0.488120 0.667660 0.422600 -0.531664
O3    O     O_R   0.474280 0.295500 0.332650 -0.554104
O4    O     O_R   0.525720 0.704500 0.667350 -0.578049
O5    O     O_R   0.335640 0.518390 0.622350 -0.557714
O6    O     O_R   0.664360 0.481610 0.377650 -0.586608
O7    O     O_R   0.298050 0.481550 0.377590 -0.571273
O8    O     O_R   0.701950 0.518450 0.622410 -0.549809
C19   C     C_R   0.875130 0.248793 0.415355 0.100958
C20   C     C_R   0.905832 0.163250 0.488030 -0.185850
C21   C     C_R   0.842430 0.038242 0.435615 -0.182661
C22   C     C_R   0.748166 0.997341 0.310430 -0.109446
C23   C     C_R   0.717621 0.081047 0.236508 -0.158672
C24   C     C_R   0.781035 0.205822 0.288230 -0.129740
H3    H     H_    0.978709 0.191164 0.584193 0.154136
H4    H     H_    0.865288 0.973459 0.493198 0.140623
H5    H     H_    0.698969 0.900882 0.270613 0.135773
H6    H     H_    0.645176 0.049041 0.138776 0.134314
H7    H     H_    0.757423 0.268612 0.228161 0.147079
C25   C     C_R   0.124595 0.759559 0.584071 0.102510
C26   C     C_R   0.096635 0.845455 0.511220 -0.186423
C27   C     C_R   0.160602 0.970284 0.565429 -0.185321
C28   C     C_R   0.253061 0.010359 0.692206 -0.107717
C29   C     C_R   0.280923 0.926246 0.766232 -0.156396
C30   C     C_R   0.217049 0.801584 0.712615 -0.137166
H8    H     H_    0.025733 0.817802 0.413340 0.154968
H9    H     H_    0.139714 0.035513 0.507942 0.141468
H10   H     H_    0.302642 0.106630 0.733399 0.129618
H11   H     H_    0.351914 0.957722 0.865223 0.132643
H12   H     H_    0.238841 0.738113 0.772300 0.141599
N3    N     N_3   0.106911 0.408790 0.707323 -0.603458
H13   H     H_    0.036474 0.393134 0.762866 0.201076
H14   H     H_    0.170465 0.485402 0.781808 0.233271
N4    N     N_3   0.888608 0.607051 0.296623 -0.630911
H15   H     H_    0.954081 0.613966 0.231398 0.204637
H16   H     H_    0.811564 0.542088 0.228933 0.218983
C31   C     C_R   0.953271 0.680389 0.772513 0.152795
C32   C     C_R   0.002229 0.679290 0.911722 -0.145196
C33   C     C_R   0.987202 0.781031 0.037622 -0.157169
C34   C     C_R   0.920731 0.882858 0.026134 -0.119279
C35   C     C_R   0.866420 0.882220 0.889010 -0.138818
C36   C     C_R   0.883744 0.782362 0.762770 -0.093703
H17   H     H_    0.054445 0.603165 0.925925 0.111536
H18   H     H_    0.029098 0.782122 0.144294 0.124454
H19   H     H_    0.914022 0.963576 0.123504 0.165403
H20   H     H_    0.814430 0.961233 0.880435 0.127315
H21   H     H_    0.845228 0.785971 0.657079 0.106497
C37   C     C_R   0.039861 0.331297 0.222180 0.140732
C38   C     C_R   0.979079 0.331278 0.086271 -0.163005
C39   C     C_R   0.993470 0.233803 0.956636 -0.166042
C40   C     C_R   0.069339 0.136284 0.961043 -0.128618
C41   C     C_R   0.131794 0.135976 0.094890 -0.138655
C42   C     C_R   0.115894 0.232003 0.224990 -0.089745
H22   H     H_    0.917084 0.402641 0.078158 0.116034
H23   H     H_    0.943483 0.232282 0.852711 0.127278
H24   H     H_    0.076117 0.058811 0.860815 0.165972
H25   H     H_    0.189644 0.059341 0.097997 0.130841
H26   H     H_    0.161392 0.227856 0.328163 0.108370
N5    N     N_3   0.377561 0.861557 0.362662 -0.562257
H27   H     H_    0.308329 0.922131 0.351508 0.188932
H28   H     H_    0.324524 0.790577 0.382715 0.244744
N6    N     N_3   0.621241 0.139211 0.638936 -0.587074
H29   H     H_    0.690729 0.078843 0.650029 0.192284
H30   H     H_    0.674472 0.210193 0.619102 0.244857
N7    N     N_3   0.385573 0.397620 0.817660 -0.521523
H31   H     H_    0.311486 0.390819 0.871861 0.189072
H32   H     H_    0.420200 0.307562 0.783088 0.221332
N8    N     N_3   0.533722 0.655402 0.176372 -0.518392
H33   H     H_    0.632586 0.668123 0.203238 0.199579
H34   H     H_    0.501744 0.718231 0.124474 0.200559
N9    N     N_3   0.678856 0.606932 0.936300 -0.459498
H35   H     H_    0.716725 0.554859 0.999524 0.181473
H36   H     H_    0.677205 0.704215 0.999747 0.207353
N10   N     N_3   0.441173 0.312505 0.060451 -0.478666
H37   H     H_    0.512072 0.290126 0.996685 0.187828
H38   H     H_    0.349598 0.274077 0.002982 0.208595

loop_
_geom_bond_atom_site_label_1
_geom_bond_atom_site_label_2
_ccdc_geom_bond_type
C25   C30   A    
N3    H13   S    
C38   C39   A    
C6    N4    S    
N9    H35   S    
C6    C9    S    
Cu2   O6    S    
C26   C27   A    
C17   N1    D    
C32   H17   S    
N5    H27   S    
C18   N2    D    
C26   H8    S    
C14   H1    S    
C22   C23   A    
C5    C11   S    
C6    C12   S    
N6    H30   S    
N4    H16   S    
C35   H20   S    
C20   C21   A    
C23   H6    S    
C3    O5    A    
C37   C42   A    
C33   H18   S    
C31   C36   A    
Cu1   Cu2   S    
C38   H22   S    
N7    H32   S    
C40   H24   S    
C12   C37   S    
C30   H12   S    
C1    O1    A    
C7    C19   S    
C22   H5    S    
C7    C12   S    
C17   N8    S    
Cu1   O1    S    
Cu1   O8    S    
C17   C18   S    
C29   H11   S    
C39   C40   A    
C20   H3    S    
C28   C29   A    
C41   C42   A    
N2    N9    S    
C5    C7    S    
N6    H29   S    
C6    C8    S    
N4    H15   S    
C27   H9    S    
C16   N5    S    
C21   C22   A    
C40   C41   A    
C23   C24   A    
C36   H21   S    
Cu2   N1    S    
C32   C33   A    
N8    H34   S    
C19   C20   A    
C2    O2    A    
C34   H19   S    
C3    O7    A    
Cu1   O4    S    
C9    C11   S    
C4    O8    A    
C10   C12   S    
C15   N6    S    
C29   C30   A    
N5    H28   S    
N10   H37   S    
N10   H38   S    
C39   H23   S    
C13   C15   D    
C14   C16   D    
C1    C13   S    
Cu1   O5    S    
C25   C26   A    
C7    C9    S    
C27   C28   A    
C18   N7    S    
C5    N3    S    
C8    C25   S    
C37   C38   A    
C11   C31   S    
C41   H25   S    
N9    H36   S    
C28   H10   S    
Cu2   O3    S    
C19   C24   A    
C34   C35   A    
N3    H14   S    
C21   H4    S    
C4    C9    S    
C24   H7    S    
C3    C10   S    
Cu2   O2    S    
C42   H26   S    
C8    C11   S    
N8    H33   S    
C13   H2    S    
Cu1   N2    S    
C31   C32   A    
C2    C14   S    
C33   C34   A    
C5    C10   S    
N1    N10   S    
C8    C10   S    
C35   C36   A    
C1    O3    A    
C2    O4    A    
N7    H31   S    
C4    O6    A    
C15   C16   S    
Cu2   O7    S    
