data_mof_unit_58971.cif
_audit_creation_date              2012-10-26T18:47:58-0400
_audit_creation_method            fapswitch 2.2
_symmetry_space_group_name_H-M    P1
_symmetry_Int_Tables_number       1
_space_group_crystal_system       triclinic
_cell_length_a                    15.861141
_cell_length_b                    8.691792
_cell_length_c                    7.490152
_cell_angle_alpha                 103.029953
_cell_angle_beta                  94.90977
_cell_angle_gamma                 92.346498
_cell_volume                      1000.39483823

loop_
_atom_site_label
_atom_site_type_symbol
_atom_type_description
_atom_site_fract_x
_atom_site_fract_y
_atom_site_fract_z
_atom_type_partial_charge
C1    C     C_R   0.491980 0.200006 0.453383 0.505388
C2    C     C_2   0.497792 0.967212 0.568294 -0.145356
C3    C     C_R   0.340504 0.501176 0.501431 0.554623
C4    C     C_R   0.498608 0.799557 0.546034 0.570186
C5    C     C_R   0.659564 0.499087 0.498999 0.543743
C6    C     C_3   0.055912 0.444042 0.661884 -0.208990
C7    C     C_3   0.041042 0.416755 0.317539 -0.216779
C8    C     C_3   0.946153 0.377666 0.335972 -0.096184
C9    C     C_1   0.749130 0.498502 0.499219 -0.050318
C10   C     C_3   0.084087 0.518804 0.504266 0.032469
C11   C     C_2   0.942838 0.590498 0.850267 0.188831
C12   C     C_3   0.959253 0.466300 0.681425 -0.066116
C13   C     C_2   0.423267 0.949158 0.252170 0.235276
C14   C     C_R   0.892626 0.336683 0.149800 0.044514
C15   C     C_R   0.830145 0.432516 0.096358 -0.072279
C16   C     C_R   0.775488 0.377423 0.936206 -0.120556
C17   C     C_R   0.783960 0.228879 0.822830 -0.110293
C18   C     C_R   0.847634 0.134890 0.869547 -0.126072
C19   C     C_R   0.901506 0.188187 0.031556 -0.107754
C20   C     C_R   0.101223 0.813417 0.464590 0.018812
C21   C     C_R   0.181046 0.873797 0.558039 -0.088656
C22   C     C_R   0.229223 0.989247 0.501754 -0.065479
C23   C     C_3   0.917296 0.505408 0.500654 0.025227
C24   C     C_R   0.198929 0.046643 0.350664 -0.076208
C25   C     C_R   0.119424 0.991716 0.259173 -0.104321
C26   C     C_R   0.069740 0.880130 0.318855 -0.060797
C27   C     C_3   0.952460 0.673776 0.488920 -0.221748
C28   C     C_3   0.050825 0.690571 0.538694 -0.088683
C29   C     C_1   0.824811 0.499989 0.501695 -0.094731
C30   C     C_1   0.176138 0.514714 0.504779 -0.057594
C31   C     C_1   0.251381 0.508145 0.504351 -0.016348
C32   C     C_2   0.473193 0.033160 0.428070 -0.047415
Cu1   Cu    Cu3+1 0.509300 0.517380 0.684380 0.948201
Cu2   Cu    Cu3+1 0.490700 0.482620 0.315620 0.988897
H1    H     H_    0.929980 0.352598 0.697681 0.113763
H2    H     H_    0.943427 0.263957 0.381496 0.106353
H3    H     H_    0.059358 0.740406 0.690133 0.160905
H4    H     H_    0.922334 0.768620 0.583661 0.095014
H5    H     H_    0.879471 0.630569 0.865826 0.114056
H6    H     H_    0.433065 0.984365 0.125031 0.117883
H7    H     H_    0.822083 0.549613 0.176577 0.105414
H8    H     H_    0.726750 0.451173 0.900538 0.145632
H9    H     H_    0.741717 0.187376 0.698217 0.118110
H10   H     H_    0.854710 0.019917 0.781385 0.101056
H11   H     H_    0.948854 0.111262 0.067642 0.092523
H12   H     H_    0.096292 0.494465 0.792496 0.179332
H13   H     H_    0.205853 0.832524 0.676996 0.115116
H14   H     H_    0.290310 0.033683 0.575042 0.117970
H15   H     H_    0.236658 0.134780 0.305674 0.111133
H16   H     H_    0.095626 0.037119 0.142726 0.098908
H17   H     H_    0.006928 0.850821 0.250803 0.146410
H18   H     H_    0.934978 0.686527 0.347775 0.132589
H19   H     H_    0.526564 0.038469 0.699494 0.109380
H20   H     H_    0.434676 0.375986 0.948562 0.235336
H21   H     H_    0.565370 0.623928 0.051424 0.232660
H22   H     H_    0.066639 0.315242 0.628486 0.098771
H23   H     H_    0.047217 0.482516 0.207707 0.194125
H24   H     H_    0.072996 0.304760 0.276541 0.093935
N1    N     N_2   0.476670 0.456430 0.038530 -0.243237
N2    N     N_2   0.523330 0.543570 0.961470 -0.252736
O1    O     O_R   0.506050 0.286130 0.619770 -0.514374
O2    O     O_2   0.367452 0.847409 0.249560 -0.482109
O3    O     O_R   0.490330 0.256780 0.308370 -0.520843
O4    O     O_R   0.387300 0.514690 0.655770 -0.498570
O5    O     O_R   0.371580 0.485340 0.344370 -0.471034
O6    O     O_R   0.509670 0.743220 0.691630 -0.507503
O7    O     O_R   0.493950 0.713870 0.380230 -0.457376
O8    O     O_R   0.628420 0.514660 0.655630 -0.517195
O9    O     O_R   0.612700 0.485310 0.344230 -0.500112
O10   O     O_2   0.999468 0.647674 0.969885 -0.584774

loop_
_geom_bond_atom_site_label_1
_geom_bond_atom_site_label_2
_ccdc_geom_bond_type
Cu2   O7    S    
C6    C10   S    
C7    C10   S    
C22   H14   S    
C11   C12   S    
C17   H9    S    
C24   C25   A    
C5    C9    S    
C23   C27   S    
C4    O7    A    
C20   C28   S    
C10   C30   S    
C13   C32   S    
C2    C4    S    
C12   C23   S    
C9    C29   T    
C21   C22   A    
C19   H11   S    
Cu1   Cu2   S    
C11   O10   D    
N1    N2    D    
H21   N2    S    
C27   H18   S    
C12   H1    S    
C3    C31   S    
Cu2   O9    S    
C15   H7    S    
C3    O5    A    
C20   C26   A    
C28   H3    S    
Cu1   O4    S    
C23   C29   S    
Cu2   O5    S    
Cu1   O1    S    
Cu2   O3    S    
C24   H15   S    
Cu1   O6    S    
C17   C18   A    
Cu1   N2    S    
C18   H10   S    
H20   N1    S    
C5    O8    A    
C6    C12   S    
C30   C31   T    
C11   H5    S    
C22   C24   A    
C26   H17   S    
C27   H4    S    
C15   C16   A    
C7    H24   S    
C16   H8    S    
C7    C8    S    
C8    C23   S    
C20   C21   A    
C4    O6    A    
C2    C32   D    
C18   C19   A    
C8    H2    S    
C10   C28   S    
C27   C28   S    
C25   H16   S    
C1    O3    A    
C13   H6    S    
C8    C14   S    
C6    H12   S    
C25   C26   A    
C3    O4    A    
Cu2   N1    S    
C5    O9    A    
C14   C19   A    
C7    H23   S    
C1    C32   S    
C13   O2    D    
C14   C15   A    
Cu1   O8    S    
C6    H22   S    
C16   C17   A    
C21   H13   S    
C2    H19   S    
C1    O1    A    
