data_mof_unit_25209.cif
_audit_creation_date              2012-12-10T17:03:26-0500
_audit_creation_method            fapswitch 2.2
_symmetry_space_group_name_H-M    P1
_symmetry_Int_Tables_number       1
_space_group_crystal_system       triclinic
_cell_length_a                    15.150583
_cell_length_b                    10.996157
_cell_length_c                    9.773234
_cell_angle_alpha                 109.506685
_cell_angle_beta                  99.213953
_cell_angle_gamma                 91.053934
_cell_volume                      1510.42090883

loop_
_atom_site_label
_atom_site_type_symbol
_atom_type_description
_atom_site_fract_x
_atom_site_fract_y
_atom_site_fract_z
_atom_type_partial_charge
C1    C     C_R   0.493975 0.254927 0.443036 0.873697
C2    C     C_R   0.511314 0.745685 0.556705 0.855074
C3    C     C_R   0.016543 0.368796 0.239835 -0.188721
C4    C     C_R   0.981974 0.615824 0.764719 -0.180449
C5    C     C_2   0.491229 0.117680 0.416054 -0.402666
C6    C     C_2   0.529195 0.883363 0.582048 -0.436680
C7    C     C_2   0.544679 0.068372 0.504090 0.349739
C8    C     C_2   0.535110 0.927237 0.470133 0.352909
C9    C     C_2   0.509562 0.506720 0.080233 -0.018497
C10   C     C_2   0.491937 0.490177 0.918737 -0.033923
C11   C     C_R   0.328447 0.502393 0.500330 0.877293
C12   C     C_R   0.671272 0.499579 0.499728 0.852672
C13   C     C_R   0.828620 0.565313 0.630143 0.316730
C14   C     C_R   0.169827 0.446346 0.366092 0.311740
C15   C     C_R   0.767889 0.496891 0.499842 -0.297183
C16   C     C_R   0.231178 0.505810 0.499405 -0.274292
C17   C     C_R   0.799749 0.424855 0.370960 0.321904
C18   C     C_R   0.199158 0.569927 0.631113 0.351017
C19   C     C_R   0.892240 0.426939 0.370488 0.009928
C20   C     C_R   0.106636 0.560695 0.633355 -0.004864
C21   C     C_R   0.952986 0.492403 0.502020 -0.010797
C22   C     C_R   0.045977 0.495793 0.501616 -0.005966
C23   C     C_R   0.920985 0.557301 0.633182 0.008155
C24   C     C_R   0.077671 0.436699 0.368737 0.007731
C25   C     C_R   0.925052 0.364387 0.240557 -0.191000
C26   C     C_R   0.073632 0.615913 0.765174 -0.219976
Cu1   Cu    Cu3+1 0.515770 0.521810 0.644910 0.982705
Cu2   Cu    Cu3+1 0.484230 0.478190 0.355090 0.977537
H1    H     H_    0.880174 0.312860 0.138200 0.177907
H2    H     H_    0.118348 0.661741 0.869203 0.161209
H3    H     H_    0.540410 0.949951 0.695233 0.149175
H4    H     H_    0.445367 0.055465 0.320018 0.152219
N1    N     N_2   0.460520 0.445420 0.137370 -0.290041
N2    N     N_2   0.539480 0.554580 0.862630 -0.284710
O1    O     O_R   0.508410 0.332340 0.577400 -0.527353
O2    O     O_R   0.491590 0.667660 0.422600 -0.522632
O3    O     O_R   0.481780 0.295500 0.332650 -0.592649
O4    O     O_R   0.518220 0.704500 0.667350 -0.600973
O5    O     O_R   0.383570 0.518390 0.622380 -0.542916
O6    O     O_R   0.616430 0.481610 0.377620 -0.552860
O7    O     O_R   0.356940 0.481550 0.377630 -0.557670
O8    O     O_R   0.643060 0.518450 0.622370 -0.533429
O9    O     O_3   0.797638 0.640464 0.755133 -0.554782
C27   C     C_3   0.789639 0.766660 0.749501 0.090208
H5    H     H_    0.742435 0.765509 0.648992 0.115703
H6    H     H_    0.856145 0.812402 0.750837 0.130431
C28   C     C_3   0.753053 0.849392 0.883607 -0.813625
H7    H     H_    0.798678 0.853485 0.986283 0.241168
H8    H     H_    0.747157 0.949099 0.881096 0.194232
H9    H     H_    0.685845 0.807337 0.882841 0.253813
O10   O     O_3   0.199921 0.391149 0.233720 -0.558975
C29   C     C_3   0.192337 0.478747 0.154610 0.085395
H10   H     H_    0.249671 0.553652 0.198222 0.175018
H11   H     H_    0.129001 0.528947 0.160584 0.122198
C30   C     C_3   0.193728 0.405099 0.992669 -0.788260
H12   H     H_    0.132494 0.337908 0.943122 0.232717
H13   H     H_    0.195858 0.474081 0.932087 0.224580
H14   H     H_    0.253471 0.348263 0.981031 0.241746
O11   O     O_3   0.740269 0.359424 0.242408 -0.556084
C31   C     C_3   0.720486 0.232404 0.239183 0.072748
H15   H     H_    0.691054 0.232872 0.336821 0.130818
H16   H     H_    0.781874 0.178022 0.235894 0.126133
C32   C     C_3   0.652460 0.162060 0.101077 -0.763562
H17   H     H_    0.678754 0.162450 0.001608 0.245112
H18   H     H_    0.639478 0.060419 0.093528 0.190937
H19   H     H_    0.588584 0.210013 0.104745 0.270620
O12   O     O_3   0.259017 0.640278 0.757842 -0.568341
C33   C     C_3   0.252873 0.775100 0.787335 0.048850
H20   H     H_    0.256115 0.822474 0.907942 0.162880
H21   H     H_    0.189263 0.801256 0.732483 0.128170
C34   C     C_3   0.331440 0.832265 0.743609 -0.782789
H22   H     H_    0.329939 0.787650 0.623191 0.224202
H23   H     H_    0.327304 0.938242 0.771186 0.197131
H24   H     H_    0.395237 0.815003 0.804983 0.272539
H25   H     H_    0.038959 0.319179 0.137089 0.180582
H26   H     H_    0.959121 0.662726 0.867877 0.179916
O13   O     O_3   0.511754 0.844609 0.324251 -0.555911
C35   C     C_3   0.571234 0.863444 0.233739 0.041842
H27   H     H_    0.618625 0.786259 0.217852 0.139273
H28   H     H_    0.612842 0.957105 0.278432 0.107576
C36   C     C_3   0.516990 0.853099 0.084307 -0.803601
H29   H     H_    0.468312 0.766766 0.042774 0.276510
H30   H     H_    0.479400 0.940171 0.093172 0.233387
H31   H     H_    0.562159 0.845098 0.003671 0.198692
O14   O     O_3   0.602431 0.149301 0.628010 -0.556781
C37   C     C_3   0.690945 0.111588 0.624955 0.020711
H32   H     H_    0.708195 0.085372 0.512394 0.105116
H33   H     H_    0.700084 0.028092 0.664454 0.137273
C38   C     C_3   0.756206 0.224204 0.726439 -0.740321
H34   H     H_    0.741772 0.254348 0.840365 0.256241
H35   H     H_    0.825997 0.194875 0.727886 0.183348
H36   H     H_    0.750013 0.307615 0.686414 0.256788
H37   H     H_    0.437131 0.422648 0.846758 0.164210
H38   H     H_    0.564901 0.572772 0.151891 0.172966
H39   H     H_    0.593121 0.614448 0.932324 0.200690
H40   H     H_    0.408951 0.381939 0.066770 0.191466

loop_
_geom_bond_atom_site_label_1
_geom_bond_atom_site_label_2
_ccdc_geom_bond_type
C30   H12   S    
C32   H18   S    
Cu1   O8    S    
C36   H29   S    
C7    C8    S    
C28   H8    S    
O13   C35   S    
C27   H5    S    
C31   C32   S    
C1    C5    S    
C22   C24   A    
C19   C21   A    
C35   H28   S    
Cu2   O6    S    
Cu1   O4    S    
Cu2   O7    S    
C13   C23   A    
C31   H16   S    
C14   C24   A    
C12   O8    A    
C14   O10   S    
C27   H6    S    
C33   H20   S    
C38   H35   S    
C3    H25   S    
C9    C10   S    
C29   C30   S    
C1    O3    A    
C5    H4    S    
C6    H3    S    
C32   H19   S    
O11   C31   S    
C21   C22   A    
C9    N1    D    
C3    C24   A    
C2    C6    S    
C36   H30   S    
C29   H11   S    
C28   H9    S    
Cu1   N2    S    
C25   H1    S    
C37   H33   S    
O10   C29   S    
C3    C25   A    
N2    H39   S    
Cu1   O5    S    
C5    C7    D    
C4    C23   A    
C37   H32   S    
C6    C8    D    
C10   H37   S    
Cu1   O1    S    
C18   O12   S    
O14   C37   S    
O12   C33   S    
C31   H15   S    
C12   O6    A    
O9    C27   S    
C11   C16   S    
C2    O4    A    
C28   H7    S    
C12   C15   S    
C10   N2    D    
C30   H13   S    
C38   H36   S    
C11   O5    A    
C17   O11   S    
C33   H21   S    
C20   C22   A    
Cu2   N1    S    
C26   H2    S    
C13   C15   A    
C8    O13   S    
C14   C16   A    
N1    H40   S    
C13   O9    S    
C36   H31   S    
C29   H10   S    
C1    O1    A    
C34   H23   S    
C2    O2    A    
C15   C17   A    
C35   H27   S    
C37   C38   S    
C34   H24   S    
C4    C26   A    
C27   C28   S    
C21   C23   A    
C34   H22   S    
C35   C36   S    
C7    O14   S    
C20   C26   A    
Cu2   O3    S    
C33   C34   S    
C17   C19   A    
C11   O7    A    
C18   C20   A    
C19   C25   A    
C4    H26   S    
C32   H17   S    
Cu2   O2    S    
C16   C18   A    
C30   H14   S    
Cu1   Cu2   S    
C38   H34   S    
C9    H38   S    
