data_mof_unit_66147.cif
_audit_creation_date              2012-12-10T19:41:38-0500
_audit_creation_method            fapswitch 2.2
_symmetry_space_group_name_H-M    P1
_symmetry_Int_Tables_number       1
_space_group_crystal_system       triclinic
_cell_length_a                    11.231577
_cell_length_b                    15.836414
_cell_length_c                    17.094526
_cell_angle_alpha                 93.522393
_cell_angle_beta                  97.059354
_cell_angle_gamma                 91.36669
_cell_volume                      3010.30379338

loop_
_atom_site_label
_atom_site_type_symbol
_atom_type_description
_atom_site_fract_x
_atom_site_fract_y
_atom_site_fract_z
_atom_type_partial_charge
C1    C     C_R   0.508969 0.491431 0.349042 0.900334
C2    C     C_R   0.491031 0.508569 0.650958 0.900335
C3    C     C_R   0.872247 0.499786 0.501608 -0.139212
C4    C     C_R   0.127753 0.500214 0.498392 -0.139212
C5    C     C_R   0.936036 0.423199 0.505109 0.071990
C6    C     C_R   0.063964 0.576801 0.494891 0.071990
C7    C     C_R   0.518036 0.493612 0.262624 -0.225574
C8    C     C_R   0.481964 0.506388 0.737375 -0.225574
C9    C     C_R   0.547442 0.571488 0.231835 0.105627
C10   C     C_R   0.452559 0.428512 0.768165 0.105626
C11   C     C_R   0.515408 0.584228 0.151713 0.120424
C12   C     C_R   0.484593 0.415772 0.848287 0.120425
C13   C     C_R   0.474110 0.515735 0.099021 0.195363
C14   C     C_R   0.525891 0.484265 0.900979 0.195363
C15   C     C_R   0.449472 0.437119 0.128487 0.106316
C16   C     C_R   0.550530 0.562881 0.871513 0.106316
C17   C     C_R   0.481657 0.423980 0.208576 0.142636
C18   C     C_R   0.518344 0.576020 0.791423 0.142636
C19   C     C_R   0.464308 0.755759 0.446589 0.170270
C20   C     C_R   0.535692 0.244241 0.553411 0.170269
C21   C     C_R   0.485287 0.843878 0.444219 0.048710
C22   C     C_R   0.514713 0.156122 0.555781 0.048710
C23   C     C_R   0.261657 0.500395 0.498818 0.870368
C24   C     C_R   0.738343 0.499605 0.501182 0.870368
C25   C     C_R   0.537477 0.891354 0.512391 0.197972
C26   C     C_R   0.462523 0.108646 0.487609 0.197973
C27   C     C_R   0.595248 0.846339 0.573942 0.039915
C28   C     C_R   0.404752 0.153661 0.426058 0.039915
C29   C     C_R   0.587023 0.756722 0.569958 0.463437
C30   C     C_R   0.412977 0.243278 0.430042 0.463437
C31   C     C_R   0.196861 0.796413 0.552852 0.077353
C32   C     C_R   0.803139 0.203587 0.447149 0.077353
C33   C     C_R   0.173155 0.709037 0.555727 0.297353
C34   C     C_R   0.826846 0.290963 0.444274 0.297353
C35   C     C_R   0.123200 0.660540 0.487045 -0.106430
C36   C     C_R   0.876800 0.339460 0.512955 -0.106430
C37   C     C_R   0.098184 0.700105 0.415224 0.267123
C38   C     C_R   0.901815 0.299896 0.584776 0.267122
C39   C     C_R   0.115834 0.788320 0.413437 0.131509
C40   C     C_R   0.884166 0.211680 0.586564 0.131509
C41   C     C_R   0.165342 0.836207 0.482238 0.226549
C42   C     C_R   0.834659 0.163793 0.517762 0.226549
C43   C     C_R   0.938658 0.577061 0.497937 0.193878
C44   C     C_R   0.061342 0.422939 0.502063 0.193879
Cu1   Cu    Cu3+1 0.493970 0.415220 0.496180 1.082080
Cu2   Cu    Cu3+1 0.506030 0.584780 0.503820 1.082080
N1    N     N_2   0.467300 0.525114 0.016559 -0.158058
N2    N     N_2   0.532701 0.474886 0.983440 -0.158058
N3    N     N_R   0.515100 0.712130 0.509560 -0.257658
N4    N     N_R   0.484900 0.287870 0.490440 -0.257658
N5    N     N_2   0.544614 0.982524 0.517235 -0.105034
N6    N     N_2   0.455385 0.017475 0.482764 -0.105034
O1    O     O_R   0.494360 0.420530 0.382500 -0.519917
O2    O     O_R   0.505640 0.579470 0.617500 -0.519917
O3    O     O_R   0.504550 0.563720 0.388950 -0.566047
O4    O     O_R   0.495450 0.436280 0.611050 -0.566047
O5    O     O_R   0.314550 0.428410 0.496780 -0.535246
O6    O     O_R   0.685450 0.571590 0.503220 -0.535246
O7    O     O_R   0.324740 0.571600 0.503230 -0.578834
O8    O     O_R   0.675260 0.428400 0.496770 -0.578834
Cl1   Cl    Cl    0.181942 0.947108 0.481060 -0.456067
Cl2   Cl    Cl    0.818059 0.052892 0.518941 -0.456066
I1    I     I_    0.519911 0.297415 0.235367 -0.043744
I2    I     I_    0.480089 0.702585 0.764634 -0.043744
I3    I     I_    0.646894 0.302527 0.653506 -0.188194
I4    I     I_    0.353106 0.697472 0.346494 -0.188193
I5    I     I_    0.520387 0.101144 0.667537 -0.072022
I6    I     I_    0.479613 0.898855 0.332462 -0.072023
I7    I     I_    0.709053 0.912280 0.668267 0.021455
I8    I     I_    0.290948 0.087720 0.331733 0.021455
Cl3   Cl    Cl    0.682969 0.703527 0.639030 -0.474475
Cl4   Cl    Cl    0.317030 0.296473 0.360969 -0.474475
I9    I     I_    0.270541 0.870400 0.656838 -0.020109
I10   I     I_    0.729460 0.129599 0.343162 -0.020109
Cl5   Cl    Cl    0.192339 0.661425 0.646995 -0.499215
Cl6   Cl    Cl    0.807661 0.338575 0.353005 -0.499215
Cl7   Cl    Cl    0.033452 0.639522 0.329251 -0.473815
Cl8   Cl    Cl    0.966548 0.360479 0.670750 -0.473815
I11   I     I_    0.063523 0.849504 0.307166 0.045830
I12   I     I_    0.936477 0.150497 0.692834 0.045831
I13   I     I_    0.859445 0.701904 0.497736 -0.136034
I14   I     I_    0.140555 0.298096 0.502265 -0.136034
I15   I     I_    0.328675 0.338542 0.701727 -0.096034
I16   I     I_    0.671325 0.661458 0.298273 -0.096034
I17   I     I_    0.490902 0.290467 0.887052 -0.062625
I18   I     I_    0.509100 0.709532 0.112948 -0.062626
I19   I     I_    0.333357 0.346825 0.057679 -0.062150
I20   I     I_    0.666644 0.653175 0.942320 -0.062150

loop_
_geom_bond_atom_site_label_1
_geom_bond_atom_site_label_2
_ccdc_geom_bond_type
Cu1   O8    S    
Cu2   O7    S    
C27   C29   A    
C41   Cl1   S    
C39   C41   A    
C29   N3    A    
Cu1   Cu2   S    
C23   O7    A    
Cu2   N3    S    
C3    C43   A    
C12   I17   S    
C19   C21   A    
C44   I14   S    
C32   I10   S    
C31   I9    S    
C11   I18   S    
C5    C36   S    
C10   I15   S    
C6    C35   S    
C19   I4    S    
C23   O5    A    
C1    O1    A    
C20   N4    A    
C32   C34   A    
C33   Cl5   S    
Cu1   O4    S    
C7    C17   A    
Cu2   O3    S    
C40   I12   S    
C42   Cl2   S    
C27   I7    S    
C40   C42   A    
C30   N4    A    
Cu1   O1    S    
Cu2   O6    S    
C3    C24   S    
C2    C8    S    
N5    N6    D    
C20   I3    S    
C4    C6    A    
C2    O2    A    
C13   N1    S    
C4    C23   S    
C14   N2    S    
C4    C44   A    
C37   Cl7   S    
C8    C18   A    
C39   I11   S    
C25   N5    S    
C26   N6    S    
C19   N3    A    
N1    N2    D    
C24   O8    A    
Cu1   O5    S    
Cu2   O2    S    
C31   C33   A    
C16   C18   A    
C9    C11   A    
C10   C12   A    
C8    C10   A    
C5    C44   A    
C12   C14   A    
C6    C43   A    
C13   C15   A    
C21   I6    S    
C43   I13   S    
C14   C16   A    
C15   I19   S    
C15   C17   A    
C21   C25   A    
C31   C41   A    
C35   C37   A    
C1    C7    S    
C28   I8    S    
C20   C22   A    
C3    C5    A    
C30   Cl4   S    
C25   C27   A    
C38   Cl8   S    
C26   C28   A    
C28   C30   A    
C1    O3    A    
C37   C39   A    
C2    O4    A    
C17   I1    S    
C38   C40   A    
C11   C13   A    
C18   I2    S    
Cu1   N4    S    
C36   C38   A    
C33   C35   A    
C34   C36   A    
C22   I5    S    
C9    I16   S    
C7    C9    A    
C24   O6    A    
C22   C26   A    
C16   I20   S    
C32   C42   A    
C34   Cl6   S    
C29   Cl3   S    
