data_mof_unit_39598.cif
_audit_creation_date              2013-03-05T16:43:42-0500
_audit_creation_method            fapswitch 2.2
_symmetry_space_group_name_H-M    P1
_symmetry_Int_Tables_number       1
_space_group_crystal_system       triclinic
_cell_length_a                    15.734979
_cell_length_b                    10.684064
_cell_length_c                    9.878325
_cell_angle_alpha                 90.11338
_cell_angle_beta                  90.364769
_cell_angle_gamma                 90.292139
_cell_volume                      1660.62141368

loop_
_atom_site_label
_atom_site_type_symbol
_atom_site_description
_atom_site_fract_x
_atom_site_fract_y
_atom_site_fract_z
_atom_type_partial_charge
O1    O     O_R   0.500010 0.316790 0.614690 -0.620697
O2    O     O_R   0.500000 0.316760 0.385350 -0.600881
C1    C     C_R   0.501599 0.260129 0.500019 0.891856
O3    O     O_R   0.376780 0.500010 0.614650 -0.630703
O4    O     O_R   0.376770 0.499970 0.385310 -0.600829
C2    C     C_R   0.338013 0.499775 0.499611 0.912435
Zn1   Zn    Zn3+2 0.500010 0.500020 0.653130 1.013650
Zn2   Zn    Zn3+2 0.499990 0.499980 0.346870 0.991045
O5    O     O_R   0.500000 0.683240 0.614650 -0.592572
O6    O     O_R   0.499990 0.683210 0.385310 -0.626639
O7    O     O_R   0.623230 0.500030 0.614690 -0.562567
O8    O     O_R   0.623220 0.499990 0.385350 -0.626313
C3    C     C_R   0.501419 0.739917 0.500117 0.895584
C4    C     C_R   0.662009 0.500239 0.500398 0.902750
C5    C     C_3   0.971644 0.391600 0.536317 -0.153776
C6    C     C_3   0.027093 0.420439 0.410582 -0.145839
H1    H     H_    0.050973 0.350176 0.337319 0.196803
H2    H     H_    0.946626 0.297998 0.564776 0.189782
H3    H     H_    0.945618 0.560188 0.273881 0.198868
C7    C     C_1   0.249257 0.501138 0.498911 -0.114709
C8    C     C_1   0.750814 0.502083 0.501233 -0.095261
C9    C     C_3   0.029533 0.476747 0.626020 -0.259637
C10   C     C_3   0.083372 0.505590 0.499989 0.029031
C11   C     C_3   0.973693 0.589658 0.589192 0.271560
C12   C     C_3   0.916791 0.506248 0.501596 0.024406
C13   C     C_3   0.027916 0.617928 0.465959 0.273716
C14   C     C_3   0.970639 0.535219 0.375587 -0.260174
C15   C     C_1   0.174083 0.503009 0.499036 0.071024
C16   C     C_1   0.826024 0.504072 0.501628 0.067841
H4    H     H_    0.054600 0.454028 0.728327 0.188783
C17   C     C_R   0.497136 0.064086 0.621577 0.125228
C18   C     C_R   0.511468 0.128572 0.501618 -0.111826
C19   C     C_R   0.538564 0.064800 0.385660 -0.148751
H5    H     H_    0.555424 0.114107 0.293850 0.192581
C20   C     C_R   0.538443 0.935322 0.385747 -0.174340
H6    H     H_    0.555437 0.885841 0.294053 0.185891
C21   C     C_R   0.510916 0.871689 0.501618 -0.114845
C22   C     C_R   0.496412 0.936484 0.621380 0.211398
C23   C     C_3   0.421871 0.929904 0.714398 -0.420948
C24   C     C_3   0.423307 0.071685 0.715667 -0.453599
H7    H     H_    0.438241 0.888363 0.814137 0.250024
H8    H     H_    0.366176 0.114301 0.667930 0.212551
H9    H     H_    0.441849 0.111721 0.815576 0.242129
C25   C     C_R   0.456023 0.410440 0.070606 0.156656
N1    N     N_R   0.499430 0.499140 0.142800 -0.154516
C26   C     C_R   0.549432 0.581073 0.073369 -0.170316
H10   H     H_    0.588271 0.647651 0.129022 0.182520
C27   C     C_R   0.550155 0.580987 0.929578 0.329328
N2    N     N_R   0.499430 0.499180 0.857150 -0.164571
C28   C     C_R   0.455617 0.410799 0.928041 0.112671
C29   C     C_3   0.362053 0.387496 0.920902 -0.546542
C30   C     C_3   0.362464 0.387412 0.075057 0.108905
H11   H     H_    0.326824 0.467982 0.877254 0.205674
H12   H     H_    0.346390 0.295624 0.873864 0.229605
H13   H     H_    0.326168 0.465873 0.120701 0.137681
N3    N     N_R   0.603821 0.668248 0.861613 0.228181
O9    O     O_R   0.680018 0.633739 0.828382 -0.321438
O10   O     O_R   0.588162 0.787154 0.873108 -0.408477
N4    N     N_R   0.341818 0.265278 0.133430 0.248371
O11   O     O_R   0.382283 0.164903 0.096599 -0.387711
O12   O     O_R   0.284225 0.257244 0.226910 -0.368547
N5    N     N_R   0.057275 0.742803 0.429021 0.236505
O13   O     O_R   0.002225 0.829868 0.402471 -0.322281
O14   O     O_R   0.138054 0.768116 0.422296 -0.360850
N6    N     N_R   0.945991 0.683851 0.686042 0.232358
O15   O     O_R   0.002182 0.747998 0.754317 -0.327150
O16   O     O_R   0.865566 0.704627 0.704744 -0.309687
H14   H     H_    0.364222 0.889684 0.664758 0.209602

loop_
_geom_bond_atom_site_label_1
_geom_bond_atom_site_label_2
_geom_bond_distance
_ccdc_geom_bond_type
C5    H2    1.110224 S    
C30   H13   1.113040 S    
C24   H9    1.111531 S    
C21   C22   1.390233 A    
N5    O13   1.300262 A    
C30   N4    1.463486 S    
N3    O10   1.300189 A    
C12   C14   1.541236 S    
C2    C7    1.396691 S    
C23   H14   1.112431 S    
C3    C21   1.415050 S    
C17   C18   1.390966 A    
N6    O16   1.300211 A    
C17   C22   1.363293 A    
Zn2   O8    1.973553 S    
C29   H12   1.111032 S    
C18   C19   1.401500 A    
C25   C30   1.492268 S    
C6    C14   1.556047 S    
C24   H8    1.112391 S    
O2    C1    1.285421 A    
C13   N5    1.457521 S    
N4    O11   1.302387 A    
C23   H7    1.110725 S    
O1    Zn1   1.993391 S    
C10   C15   1.427821 S    
N3    O9    1.300091 A    
Zn1   O7    1.978067 S    
C29   C30   1.522771 S    
C13   C14   1.539017 S    
C1    C18   1.415016 S    
C11   N6    1.457406 S    
O3    Zn1   1.973552 S    
N2    C28   1.363615 A    
C4    C8    1.397349 S    
O3    C2    1.286330 A    
C27   N2    1.376963 A    
C19   C20   1.383344 A    
C11   C13   1.520895 S    
C28   C29   1.493071 S    
C6    C10   1.539666 S    
C26   C27   1.420530 A    
C9    C10   1.541069 S    
C12   C16   1.428302 S    
O4    C2    1.286677 A    
O7    C4    1.286774 A    
C9    C11   1.538870 S    
N4    O12   1.300578 A    
O4    Zn2   1.978069 S    
C5    C12   1.540022 S    
C5    C6    1.552883 S    
C7    C15   1.183152 T    
Zn1   O5    1.994839 S    
C19   H5    1.083489 S    
C11   C12   1.524298 S    
Zn1   N2    2.015492 S    
Zn2   O6    1.993390 S    
N6    O15   1.300272 A    
C10   C13   1.524309 S    
C25   C28   1.408293 A    
C23   C24   1.514873 S    
C27   N3    1.426417 S    
O5    C3    1.284572 A    
C26   H10   1.082332 S    
C6    H1    1.110258 S    
N5    O14   1.300308 A    
C9    H4    1.110281 S    
O1    C1    1.283760 A    
C17   C24   1.494810 S    
N1    C26   1.363068 A    
C8    C16   1.183487 T    
O6    C3    1.284745 A    
C5    C9    1.555820 S    
O2    Zn2   1.994836 S    
C25   N1    1.362974 A    
Zn2   N1    2.015835 S    
C20   C21   1.402261 A    
O8    C4    1.286568 A    
H3    C14   1.110254 S    
C29   H11   1.111723 S    
C20   H6    1.083538 S    
C22   C23   1.496021 S    
