data_mof_unit_5002.cif
_audit_creation_date              2012-12-10T19:48:34-0500
_audit_creation_method            fapswitch 2.2
_symmetry_space_group_name_H-M    P1
_symmetry_Int_Tables_number       1
_space_group_crystal_system       triclinic
_cell_length_a                    13.019052
_cell_length_b                    14.163538
_cell_length_c                    14.936635
_cell_angle_alpha                 90.596786
_cell_angle_beta                  90.493332
_cell_angle_gamma                 70.046171
_cell_volume                      2588.73190487

loop_
_atom_site_label
_atom_site_type_symbol
_atom_type_description
_atom_site_fract_x
_atom_site_fract_y
_atom_site_fract_z
_atom_type_partial_charge
C1    C     C_R   0.499589 0.500531 0.671826 0.865684
C2    C     C_R   0.988381 0.447223 0.467516 -0.050289
C3    C     C_R   0.878021 0.466839 0.446505 -0.121571
C4    C     C_R   0.028760 0.527782 0.462982 -0.059116
C5    C     C_R   0.968141 0.618837 0.419274 0.018096
C6    C     C_R   0.866305 0.627640 0.380053 0.422689
C7    C     C_R   0.826041 0.546737 0.386793 0.055018
C8    C     C_R   0.125592 0.521515 0.506562 -0.242044
C9    C     C_R   0.120234 0.679646 0.445745 -0.342255
C10   C     C_R   0.824505 0.405903 0.486389 -0.164876
C11   C     C_R   0.420667 0.491601 0.909012 -0.180979
C12   C     C_R   0.705188 0.444086 0.497020 0.911139
C13   C     C_R   0.412209 0.493894 0.816303 0.152107
C14   C     C_R   0.501310 0.500704 0.767120 -0.043372
C15   C     C_R   0.596359 0.503821 0.809238 -0.236207
C16   C     C_R   0.604153 0.499906 0.901352 -0.181652
C17   C     C_R   0.516157 0.494070 0.950440 0.062149
C18   C     C_R   0.497707 0.586439 0.092706 0.168980
C19   C     C_R   0.490004 0.586835 0.185155 -0.233482
C20   C     C_R   0.505864 0.497529 0.231005 -0.110523
C21   C     C_R   0.531983 0.406081 0.185131 -0.224973
C22   C     C_R   0.540144 0.403000 0.092513 0.164264
C23   C     C_R   0.499747 0.499687 0.327387 0.874182
C24   C     C_R   0.521254 0.494055 0.046492 0.015504
C25   C     C_R   0.570147 0.880695 0.547149 0.114028
C26   C     C_R   0.565928 0.781276 0.556209 0.279504
C27   C     C_R   0.432398 0.812444 0.440471 -0.065387
C28   C     C_R   0.427136 0.913341 0.435397 -0.274020
C29   C     C_R   0.495968 0.948858 0.488457 0.126825
C30   C     C_R   0.561361 0.086858 0.433204 -0.371396
C31   C     C_R   0.565955 0.184453 0.441530 0.027397
C32   C     C_R   0.426227 0.227059 0.549964 -0.079240
C33   C     C_R   0.419113 0.129230 0.544557 0.406923
C34   C     C_R   0.294941 0.555726 0.500758 0.887202
C35   C     C_R   0.488205 0.057569 0.485373 0.070988
C36   C     C_R   0.013530 0.696946 0.413528 0.505233
C37   C     C_R   0.176908 0.590116 0.489263 -0.109114
C38   C     C_R   0.886598 0.313282 0.525331 0.360472
C39   C     C_R   0.000753 0.283048 0.523901 -0.259362
C40   C     C_R   0.052568 0.347790 0.493830 0.417424
H1    H     H_    0.160265 0.733963 0.433676 0.154666
H2    H     H_    0.664789 0.507892 0.770550 0.145681
H3    H     H_    0.677757 0.501931 0.934437 0.145724
H4    H     H_    0.470737 0.657547 0.221221 0.165417
H5    H     H_    0.547031 0.336663 0.221346 0.166568
H6    H     H_    0.380272 0.786386 0.397339 0.144878
H7    H     H_    0.369998 0.963454 0.389286 0.164298
H8    H     H_    0.616315 0.033755 0.387605 0.179676
H9    H     H_    0.622162 0.206132 0.400496 0.142660
H10   H     H_    0.372053 0.283235 0.593546 0.141396
H11   H     H_    0.166277 0.459482 0.550420 0.198767
H12   H     H_    0.050028 0.209003 0.546913 0.175375
H13   H     H_    0.352835 0.488681 0.949168 0.142737
N1    N     N_R   0.500000 0.747530 0.500020 -0.115681
N2    N     N_R   0.499940 0.252470 0.500020 -0.103041
O1    O     O_R   0.499990 0.420530 0.630930 -0.597691
O2    O     O_R   0.499990 0.579480 0.630940 -0.628879
O3    O     O_R   0.653620 0.381060 0.499970 -0.545661
O4    O     O_R   0.653620 0.540010 0.499980 -0.654216
O5    O     O_R   0.500010 0.420520 0.369060 -0.623223
O6    O     O_R   0.500010 0.579470 0.369070 -0.643411
O7    O     O_R   0.346380 0.459990 0.500020 -0.610790
O8    O     O_R   0.346380 0.618940 0.500030 -0.609102
Zn1   Zn    Zn3+2 0.500000 0.393860 0.499990 0.972357
Zn2   Zn    Zn3+2 0.500000 0.606140 0.500010 0.913859
C41   C     C_3   0.307630 0.491034 0.772939 -0.425778
C42   C     C_3   0.299362 0.386393 0.779363 -0.844698
H14   H     H_    0.373171 0.329423 0.750356 0.263915
H15   H     H_    0.291564 0.367323 0.850330 0.252482
H16   H     H_    0.226257 0.384146 0.741759 0.244592
H17   H     H_    0.236259 0.546303 0.806816 0.202606
H18   H     H_    0.301726 0.512852 0.701456 0.193950
C43   C     C_3   0.478549 0.685888 0.046351 -0.420060
C44   C     C_3   0.577673 0.719384 0.057403 -0.853746
H19   H     H_    0.593329 0.730228 0.129357 0.263580
H20   H     H_    0.651244 0.662368 0.028072 0.256985
H21   H     H_    0.562379 0.791681 0.022335 0.252856
H22   H     H_    0.460778 0.682467 0.973877 0.221313
H23   H     H_    0.405654 0.744031 0.075617 0.203007
C45   C     C_3   0.570191 0.301755 0.045538 -0.412299
C46   C     C_3   0.474940 0.262026 0.045669 -0.849184
H24   H     H_    0.452194 0.251037 0.115288 0.257780
H25   H     H_    0.402897 0.315234 0.011074 0.256467
H26   H     H_    0.499001 0.188626 0.009938 0.251387
H27   H     H_    0.595718 0.305079 0.975290 0.223112
H28   H     H_    0.641504 0.247235 0.080127 0.202667
C47   C     C_3   0.656694 0.912627 0.596337 -0.458521
C48   C     C_3   0.765344 0.875296 0.546378 -0.791651
H29   H     H_    0.827446 0.897922 0.583707 0.247500
H30   H     H_    0.795569 0.792256 0.539420 0.252538
H31   H     H_    0.755737 0.908460 0.478526 0.287143
H32   H     H_    0.632068 0.995283 0.603824 0.222575
H33   H     H_    0.669260 0.885684 0.666155 0.216649
C49   C     C_3   0.627287 0.717628 0.633795 -0.392201
C50   C     C_3   0.563780 0.749446 0.721283 -0.854400
H34   H     H_    0.483079 0.739340 0.716333 0.283134
H35   H     H_    0.610827 0.703131 0.777218 0.247204
H36   H     H_    0.549356 0.829482 0.737525 0.249449
H37   H     H_    0.644407 0.637512 0.623258 0.257273
H38   H     H_    0.710174 0.721935 0.641813 0.181626
O9    O     O_3   0.809801 0.713566 0.333148 -0.710967
H39   H     H_    0.731015 0.722813 0.332896 0.323275
O10   O     O_3   0.347167 0.101998 0.596992 -0.761780
H40   H     H_    0.305210 0.160466 0.634423 0.335981
O11   O     O_3   0.955806 0.786882 0.372905 -0.713045
H41   H     H_    0.999170 0.832393 0.375952 0.320088
O12   O     O_3   0.834662 0.253369 0.563530 -0.747793
H42   H     H_    0.890250 0.192018 0.587863 0.329684
O13   O     O_3   0.164439 0.308188 0.483963 -0.783184
H43   H     H_    0.185137 0.343698 0.434147 0.344431
C51   C     C_3   0.745430 0.534911 0.316932 -0.352071
C52   C     C_3   0.792696 0.524168 0.222464 -0.870407
H44   H     H_    0.804838 0.594412 0.201201 0.287073
H45   H     H_    0.872059 0.461291 0.219793 0.261922
H46   H     H_    0.735400 0.507742 0.174342 0.255516
H47   H     H_    0.725344 0.466048 0.328294 0.194251
H48   H     H_    0.668461 0.599816 0.319353 0.219458

loop_
_geom_bond_atom_site_label_1
_geom_bond_atom_site_label_2
_ccdc_geom_bond_type
C26   C49   S    
C47   C48   S    
O8    Zn2   S    
C28   H7    S    
O9    H39   S    
C34   C37   S    
C43   C44   S    
C19   C20   A    
C34   O7    A    
C4    C8    A    
C52   H45   S    
C46   H24   S    
C50   H36   S    
N1    Zn2   S    
C44   H20   S    
C30   C35   A    
C18   C24   A    
C30   H8    S    
C28   C29   A    
C1    O1    A    
C3    C7    A    
C30   C31   A    
C15   C16   A    
C5    C36   A    
C25   C47   S    
C18   C19   A    
C6    O9    S    
C38   O12   S    
C45   H28   S    
C12   O4    A    
C41   H18   S    
C50   H34   S    
C16   C17   A    
C44   H21   S    
C9    C36   A    
O7    Zn1   S    
C43   H22   S    
O1    Zn1   S    
C2    C40   A    
C51   H47   S    
C32   N2    A    
C11   H13   S    
C12   O3    A    
C39   H12   S    
C13   C14   A    
O3    Zn1   S    
C31   H9    S    
C26   N1    A    
C52   H44   S    
C46   H25   S    
C21   H5    S    
C13   C41   S    
C25   C29   A    
C23   O5    A    
C27   N1    A    
C17   C24   S    
C44   H19   S    
C42   H14   S    
C38   C39   A    
C39   C40   A    
C45   C46   S    
C25   C26   A    
C42   H15   S    
C10   C38   A    
C2    C4    A    
C45   H27   S    
C1    O2    A    
C41   H17   S    
C8    H11   S    
C20   C23   S    
C49   H38   S    
O12   H42   S    
N2    Zn1   S    
C9    C37   A    
C43   H23   S    
C20   C21   A    
C16   H3    S    
C32   H10   S    
C6    C7    A    
C10   C12   S    
C27   H6    S    
C48   H30   S    
C18   C43   S    
C22   C24   A    
C8    C37   A    
O10   H40   S    
C46   H26   S    
C47   H32   S    
C19   H4    S    
C11   C17   A    
C51   C52   S    
C36   O11   S    
C33   O10   S    
C15   H2    S    
O2    Zn2   S    
C4    C5    A    
C50   H35   S    
C40   O13   S    
O11   H41   S    
C29   C35   S    
C9    H1    S    
C51   H48   S    
O5    Zn1   S    
C42   H16   S    
C32   C33   A    
C2    C3    A    
C22   C45   S    
C3    C10   A    
O13   H43   S    
O4    Zn2   S    
C11   C13   A    
C5    C6    A    
C48   H31   S    
C49   H37   S    
C47   H33   S    
C34   O8    A    
C33   C35   A    
C7    C51   S    
C41   C42   S    
C49   C50   S    
O6    Zn2   S    
C23   O6    A    
C48   H29   S    
C27   C28   A    
C14   C15   A    
C1    C14   S    
C31   N2    A    
C21   C22   A    
C52   H46   S    
