data_mof_unit_45229.cif
_audit_creation_date              2012-12-10T19:55:03-0500
_audit_creation_method            fapswitch 2.2
_symmetry_space_group_name_H-M    P1
_symmetry_Int_Tables_number       1
_space_group_crystal_system       triclinic
_cell_length_a                    14.147471
_cell_length_b                    14.886696
_cell_length_c                    16.659433
_cell_angle_alpha                 90.19905
_cell_angle_beta                  84.629962
_cell_angle_gamma                 89.886303
_cell_volume                      3493.19848584

loop_
_atom_site_label
_atom_site_type_symbol
_atom_type_description
_atom_site_fract_x
_atom_site_fract_y
_atom_site_fract_z
_atom_type_partial_charge
C1    C     C_R   0.500034 0.672604 0.498673 0.917186
C2    C     C_R   0.500271 0.327485 0.498530 0.937724
C3    C     C_R   0.419980 0.910834 0.500162 0.476265
C4    C     C_R   0.574708 0.088833 0.508668 0.467406
C5    C     C_R   0.419422 0.818578 0.511311 -0.322709
C6    C     C_R   0.572626 0.181159 0.519237 -0.318643
C7    C     C_R   0.500802 0.768373 0.487631 -0.163861
C8    C     C_R   0.502149 0.231800 0.487328 -0.157364
C9    C     C_R   0.580959 0.808816 0.447840 -0.332214
C10   C     C_R   0.437456 0.191925 0.439699 -0.340902
C11   C     C_R   0.580333 0.899950 0.431588 0.504169
C12   C     C_R   0.442636 0.100121 0.424007 0.508527
C13   C     C_R   0.501391 0.951509 0.461002 -0.068181
C14   C     C_R   0.508549 0.048437 0.461751 -0.066774
C15   C     C_R   0.887837 0.541491 0.562482 -0.275603
C16   C     C_R   0.109007 0.428314 0.466271 -0.275494
C17   C     C_R   0.788680 0.540990 0.561136 0.018143
C18   C     C_R   0.208285 0.429771 0.466610 0.014167
C19   C     C_R   0.802300 0.459341 0.438698 0.038814
C20   C     C_R   0.200732 0.570181 0.533524 0.018356
C21   C     C_R   0.901795 0.458979 0.437303 -0.274709
C22   C     C_R   0.101358 0.571698 0.534003 -0.279423
C23   C     C_R   0.486303 0.504699 0.653395 0.905273
C24   C     C_R   0.513751 0.500864 0.346183 0.882069
C25   C     C_R   0.946647 0.500178 0.499944 0.135962
C26   C     C_R   0.053356 0.500067 0.500079 0.139013
C27   C     C_R   0.476343 0.536302 0.736425 -0.136744
C28   C     C_R   0.523240 0.508801 0.258564 -0.148351
C29   C     C_R   0.543906 0.597334 0.760323 -0.254048
C30   C     C_R   0.443759 0.490782 0.216869 -0.266841
C31   C     C_R   0.534784 0.633065 0.837466 -0.123338
C32   C     C_R   0.447465 0.505470 0.134733 -0.140786
C33   C     C_R   0.459627 0.605827 0.892117 0.011877
C34   C     C_R   0.530689 0.538136 0.093309 0.036400
C35   C     C_R   0.388514 0.549744 0.867391 -0.310058
C36   C     C_R   0.611744 0.552364 0.133120 -0.287133
C37   C     C_R   0.395019 0.516327 0.788528 0.468399
C38   C     C_R   0.608200 0.540122 0.216369 0.468458
C39   C     C_2   0.470079 0.612100 0.978683 0.338446
C40   C     C_2   0.533341 0.554927 0.006748 0.352794
H1    H     H_    0.604365 0.616962 0.719467 0.159279
H2    H     H_    0.378169 0.466341 0.247920 0.174304
H3    H     H_    0.917798 0.572992 0.612927 0.131908
H4    H     H_    0.076308 0.370629 0.440595 0.139464
H5    H     H_    0.744527 0.573242 0.609394 0.123936
H6    H     H_    0.250054 0.374345 0.440262 0.124748
H7    H     H_    0.768805 0.427501 0.390267 0.154230
H8    H     H_    0.236548 0.625469 0.559998 0.118079
H9    H     H_    0.943035 0.427633 0.386797 0.139983
H10   H     H_    0.062858 0.629369 0.559810 0.136646
H11   H     H_    0.332200 0.526518 0.910903 0.150193
H12   H     H_    0.676773 0.575222 0.099988 0.164129
H13   H     H_    0.385362 0.491681 0.103301 0.152616
H14   H     H_    0.590512 0.675545 0.856854 0.139832
H15   H     H_    0.356267 0.786769 0.540045 0.172792
H16   H     H_    0.624466 0.212792 0.554050 0.181916
H17   H     H_    0.643391 0.769704 0.427927 0.183911
H18   H     H_    0.384066 0.232120 0.413911 0.159646
N1    N     N_R   0.747530 0.500020 0.500000 -0.100765
N2    N     N_R   0.252470 0.499980 0.500000 -0.091955
O1    O     O_R   0.420520 0.630930 0.499990 -0.628395
O2    O     O_R   0.579480 0.369070 0.500010 -0.618056
O3    O     O_R   0.579480 0.630940 0.499990 -0.628685
O4    O     O_R   0.420520 0.369060 0.500010 -0.625005
O5    O     O_R   0.411130 0.500010 0.615800 -0.587947
O6    O     O_R   0.588870 0.499990 0.384200 -0.574721
O7    O     O_R   0.570080 0.500020 0.615800 -0.634004
O8    O     O_R   0.429920 0.499980 0.384200 -0.624002
Zn1   Zn    Zn3+2 0.393860 0.499990 0.500000 0.944073
Zn2   Zn    Zn3+2 0.606140 0.500010 0.500000 0.947953
O9    O     O_3   0.688235 0.556635 0.255839 -0.602110
C41   C     C_3   0.698219 0.650377 0.265233 0.097217
H19   H     H_    0.632271 0.680853 0.295846 0.122944
H20   H     H_    0.715322 0.683246 0.205734 0.131571
C42   C     C_3   0.779249 0.668756 0.316876 -0.797909
H21   H     H_    0.845797 0.637422 0.289090 0.256248
H22   H     H_    0.790201 0.742319 0.322058 0.207351
H23   H     H_    0.762138 0.640751 0.378163 0.265390
O10   O     O_3   0.328686 0.455663 0.765231 -0.607482
C43   C     C_3   0.242106 0.501081 0.758139 0.108717
H24   H     H_    0.252888 0.561977 0.719531 0.129156
H25   H     H_    0.208159 0.521004 0.818550 0.126923
C44   C     C_3   0.174787 0.438589 0.718951 -0.780747
H26   H     H_    0.159310 0.378674 0.757449 0.247381
H27   H     H_    0.107213 0.474200 0.711156 0.197420
H28   H     H_    0.207363 0.416379 0.658904 0.269403
O11   O     O_3   0.602054 0.513809 0.953463 -0.625104
C45   C     C_3   0.599602 0.419697 0.963804 0.107630
H29   H     H_    0.525379 0.393589 0.969305 0.129604
H30   H     H_    0.634976 0.400690 0.018191 0.152200
C46   C     C_3   0.652727 0.375425 0.890467 -0.803086
H31   H     H_    0.727560 0.398753 0.883565 0.255552
H32   H     H_    0.651849 0.301315 0.897818 0.197364
H33   H     H_    0.618260 0.392927 0.835315 0.261987
O12   O     O_3   0.404592 0.656937 0.032590 -0.630410
C47   C     C_3   0.367521 0.733850 0.997186 0.099499
H34   H     H_    0.316621 0.713941 0.953330 0.144079
H35   H     H_    0.425232 0.775732 0.966445 0.128459
C48   C     C_3   0.314512 0.790745 0.062839 -0.813454
H36   H     H_    0.363694 0.812298 0.107401 0.254779
H37   H     H_    0.284584 0.851325 0.035756 0.198620
H38   H     H_    0.255596 0.751377 0.094198 0.260259
O13   O     O_3   0.339057 0.960335 0.523314 -0.558687
C49   C     C_3   0.337463 0.981825 0.605971 0.073762
H39   H     H_    0.397273 0.027298 0.616762 0.116766
H40   H     H_    0.341005 0.920273 0.643486 0.121040
C50   C     C_3   0.245460 0.030987 0.632481 -0.776322
H41   H     H_    0.183765 0.987410 0.623172 0.252727
H42   H     H_    0.243468 0.048794 0.697405 0.194653
H43   H     H_    0.240617 0.093561 0.596931 0.264077
O14   O     O_3   0.644933 0.038856 0.540235 -0.558675
C51   C     C_3   0.615462 0.017642 0.621174 0.083473
H44   H     H_    0.551744 0.973712 0.624869 0.110401
H45   H     H_    0.599788 0.079477 0.657967 0.128901
C52   C     C_3   0.694484 0.966306 0.656841 -0.790525
H46   H     H_    0.759488 0.008253 0.654851 0.257129
H47   H     H_    0.672052 0.948761 0.720508 0.190567
H48   H     H_    0.710638 0.903460 0.622033 0.260722
O15   O     O_3   0.659617 0.939771 0.392148 -0.562479
C53   C     C_3   0.653410 0.931882 0.308381 0.076927
H49   H     H_    0.587380 0.964237 0.290674 0.134327
H50   H     H_    0.654726 0.860024 0.289389 0.122881
C54   C     C_3   0.737973 0.978742 0.263795 -0.804792
H51   H     H_    0.805051 0.947090 0.279256 0.259847
H52   H     H_    0.733804 0.973048 0.197741 0.196340
H53   H     H_    0.738004 0.050951 0.280823 0.259347
O16   O     O_3   0.379138 0.058645 0.377443 -0.564921
C55   C     C_3   0.395054 0.088499 0.296916 0.079909
H54   H     H_    0.472259 0.091977 0.276022 0.117485
H55   H     H_    0.362300 0.155776 0.290626 0.140459
C56   C     C_3   0.349148 0.022837 0.242270 -0.810817
H56   H     H_    0.271669 0.018684 0.260181 0.267550
H57   H     H_    0.360461 0.045790 0.178751 0.197680
H58   H     H_    0.381260 0.955093 0.246824 0.248424

loop_
_geom_bond_atom_site_label_1
_geom_bond_atom_site_label_2
_ccdc_geom_bond_type
O11   C45   S    
C27   C29   A    
C41   H20   S    
O12   C47   S    
C56   H58   S    
C11   O15   S    
C55   H54   S    
C49   H40   S    
C54   H51   S    
C12   O16   S    
C37   O10   S    
C33   C39   S    
C44   H26   S    
C34   C40   S    
C40   O11   S    
C10   H18   S    
C17   H5    S    
C41   C42   S    
C19   H7    S    
C54   H52   S    
O1    Zn1   S    
C52   H46   S    
C47   C48   S    
C1    O3    A    
O2    Zn2   S    
C15   C17   A    
C23   O7    A    
C51   H44   S    
O14   C51   S    
C53   H50   S    
O8    Zn1   S    
C52   H47   S    
C47   H35   S    
C50   H41   S    
C31   C33   A    
C23   C27   S    
C20   N2    A    
C16   H4    S    
C34   C36   A    
C36   H12   S    
C53   C54   S    
C24   O6    A    
C22   H10   S    
C29   H1    S    
C13   C14   S    
C50   H42   S    
C43   C44   S    
C18   H6    S    
C21   H9    S    
C49   H39   S    
C2    O4    A    
C16   C26   A    
O3    Zn2   S    
C43   H25   S    
C39   C40   D    
C5    C7    A    
C43   H24   S    
C54   H53   S    
C6    C8    A    
C19   N1    A    
C25   C26   S    
C55   H55   S    
C32   C34   A    
C3    C13   A    
C42   H21   S    
C46   H32   S    
C42   H22   S    
C48   H36   S    
C45   C46   S    
C28   C38   A    
C52   H48   S    
C47   H34   S    
C48   H38   S    
O4    Zn1   S    
C9    C11   A    
C39   O12   S    
C20   H8    S    
C10   C12   A    
C17   N1    A    
C51   H45   S    
C18   N2    A    
C44   H27   S    
C4    O14   S    
C45   H30   S    
C35   H11   S    
C50   H43   S    
C4    C6    A    
C20   C22   A    
O16   C55   S    
C55   C56   S    
C3    C5    A    
C32   H13   S    
C46   H31   S    
C53   H49   S    
C3    O13   S    
C7    C9    A    
C21   C25   A    
C38   O9    S    
C35   C37   A    
C1    C7    S    
C5    H15   S    
C8    C10   A    
C2    C8    S    
C24   C28   S    
C6    H16   S    
C41   H19   S    
C56   H57   S    
C1    O1    A    
O15   C53   S    
O7    Zn2   S    
C23   O5    A    
C28   C30   A    
C12   C14   A    
C15   H3    S    
O9    C41   S    
C29   C31   A    
C46   H33   S    
C30   C32   A    
C11   C13   A    
O6    Zn2   S    
N2    Zn1   S    
C27   C37   A    
O5    Zn1   S    
C36   C38   A    
C33   C35   A    
C9    H17   S    
C49   C50   S    
C31   H14   S    
C4    C14   A    
C42   H23   S    
C15   C25   A    
C24   O8    A    
N1    Zn2   S    
O10   C43   S    
C2    O2    A    
C44   H28   S    
C45   H29   S    
C16   C18   A    
C22   C26   A    
O13   C49   S    
C30   H2    S    
C48   H37   S    
C51   C52   S    
C56   H56   S    
C19   C21   A    
