data_mof_unit_13058.cif
_audit_creation_date              2012-12-11T16:17:57-0500
_audit_creation_method            fapswitch 2.2
_symmetry_space_group_name_H-M    P1
_symmetry_Int_Tables_number       1
_space_group_crystal_system       triclinic
_cell_length_a                    14.043493
_cell_length_b                    14.053952
_cell_length_c                    30.113226
_cell_angle_alpha                 97.011314
_cell_angle_beta                  96.928082
_cell_angle_gamma                 61.381342
_cell_volume                      5165.02011028

loop_
_atom_site_label
_atom_site_type_symbol
_atom_type_description
_atom_site_fract_x
_atom_site_fract_y
_atom_site_fract_z
_atom_type_partial_charge
C1    C     C_R   0.386539 0.710033 0.442105 0.552683
C2    C     C_R   0.395855 0.245322 0.221992 -0.078085
C3    C     C_R   0.404788 0.250395 0.268873 0.220189
C4    C     C_R   0.329854 0.343944 0.293119 0.003311
C5    C     C_R   0.314208 0.332162 0.199176 -0.062042
C6    C     C_1   0.301909 0.320953 0.151137 -0.022498
C7    C     C_1   0.344986 0.353625 0.341307 0.104318
C8    C     C_1   0.290795 0.303189 0.111298 0.024509
C9    C     C_R   0.765798 0.369407 0.400451 -0.039562
C10   C     C_R   0.784982 0.269122 0.377540 -0.094732
C11   C     C_R   0.814999 0.245381 0.333190 0.281418
C12   C     C_R   0.398842 0.381159 0.426520 0.552920
C13   C     C_R   0.824212 0.323961 0.311806 0.023183
C14   C     C_R   0.813626 0.419734 0.335667 -0.115062
C15   C     C_R   0.785362 0.442143 0.379792 -0.113487
C16   C     C_R   0.835380 0.397775 0.159443 -0.099736
C17   C     C_R   0.860279 0.389962 0.115300 -0.107495
C18   C     C_R   0.896546 0.201770 0.107007 -0.115186
C19   C     C_R   0.871918 0.209770 0.151202 -0.092191
C20   C     C_R   0.845254 0.306524 0.177779 0.031373
C21   C     C_1   0.838003 0.309580 0.224802 0.042871
C22   C     C_1   0.833397 0.313928 0.264508 0.087441
C23   C     C_R   0.709727 0.405941 0.442323 0.549138
C24   C     C_R   0.895820 0.290390 0.089344 0.020327
C25   C     C_R   0.369763 0.764862 0.401193 -0.024754
C26   C     C_R   0.461038 0.755727 0.382342 -0.100356
C27   C     C_R   0.453583 0.781975 0.338468 0.283650
C28   C     C_R   0.352513 0.820398 0.313642 0.033876
C29   C     C_R   0.259590 0.838146 0.333433 -0.116949
C30   C     C_R   0.268103 0.810263 0.377095 -0.108020
C31   C     C_R   0.230697 0.869537 0.156836 -0.128834
C32   C     C_R   0.213801 0.893978 0.112503 -0.156833
C33   C     C_R   0.399908 0.864721 0.113608 0.190879
C34   C     C_R   0.389723 0.711377 0.568292 0.545222
C35   C     C_R   0.414981 0.841757 0.158715 -0.064883
C36   C     C_R   0.329419 0.847879 0.180311 -0.007713
C37   C     C_1   0.339522 0.838059 0.227270 0.047311
C38   C     C_1   0.344946 0.831405 0.266768 0.088790
C39   C     C_R   0.295353 0.898090 0.090895 -0.006886
C40   C     C_R   0.365853 0.362643 0.592208 0.020201
C41   C     C_R   0.429828 0.264771 0.612910 -0.122973
C42   C     C_R   0.412110 0.255695 0.656333 -0.117675
C43   C     C_R   0.330042 0.343859 0.679102 0.032037
C44   C     C_R   0.260464 0.438228 0.657573 -0.117262
C45   C     C_R   0.402242 0.382996 0.552313 0.539273
C46   C     C_R   0.277889 0.447552 0.614128 -0.126751
C47   C     C_R   0.208804 0.377750 0.827348 -0.133823
C48   C     C_R   0.199669 0.362250 0.870877 -0.169030
C49   C     C_R   0.397207 0.270912 0.884216 0.204552
C50   C     C_R   0.405012 0.286356 0.839938 -0.088337
C51   C     C_R   0.311179 0.336457 0.811465 -0.009598
C52   C     C_1   0.318882 0.339507 0.764997 -0.027275
C53   C     C_1   0.323426 0.341131 0.725697 -0.029589
C54   C     C_R   0.293064 0.304260 0.899166 -0.006105
C55   C     C_1   0.761203 0.376763 0.612647 -0.008558
C56   C     C_R   0.712724 0.407904 0.568594 0.545797
C57   C     C_R   0.916944 0.314866 0.718824 -0.102604
C58   C     C_R   0.937950 0.300018 0.764736 -0.107595
C59   C     C_R   0.756776 0.322315 0.768622 -0.097000
C60   C     C_R   0.735787 0.337111 0.722685 -0.105086
C61   C     C_R   0.815629 0.333895 0.697740 0.038813
C62   C     C_R   0.857757 0.304292 0.789771 0.039361
C63   C     C_1   0.880005 0.292332 0.837233 -0.041973
C64   C     C_1   0.790528 0.355104 0.651074 -0.053696
C65   C     C_1   0.906892 0.282170 0.876624 0.011019
C66   C     C_1   0.375888 0.758006 0.613625 -0.009689
C67   C     C_1   0.365178 0.363844 0.380987 0.089216
C68   C     C_R   0.377147 0.724242 0.727177 -0.102785
C69   C     C_R   0.365065 0.745232 0.773324 -0.099845
C70   C     C_R   0.315464 0.934005 0.766869 -0.098354
C71   C     C_R   0.327473 0.913025 0.720694 -0.101992
C72   C     C_R   0.357748 0.808174 0.700721 0.038176
C73   C     C_R   0.333701 0.850300 0.793236 0.040975
C74   C     C_1   0.314809 0.874746 0.840179 -0.042214
C75   C     C_1   0.366884 0.785491 0.653060 -0.054279
C76   C     C_1   0.293875 0.903376 0.878756 0.006149
C77   C     C_R   0.950776 0.272853 0.048208 0.550016
C78   C     C_R   0.246976 0.431695 0.270014 0.239071
C79   C     C_R   0.275219 0.270011 0.065457 0.550122
C80   C     C_R   0.260947 0.953148 0.048678 0.554866
C81   C     C_R   0.952500 0.269056 0.922043 0.557097
C82   C     C_R   0.276744 0.266888 0.939861 0.556897
C83   C     C_R   0.261551 0.951012 0.922846 0.545336
C84   C     C_R   0.239634 0.424628 0.223001 -0.098081
Cr1   Cr    Cr6+3 0.581000 0.584320 0.508140 1.043558
Cr2   Cr    Cr6+3 0.339110 0.576430 0.496080 1.050778
Cr3   Cr    Cr6+3 0.579910 0.339270 0.495810 1.062823
Cr4   Cr    Cr6+3 0.082090 0.079210 0.982490 1.058721
Cr5   Cr    Cr6+3 0.082460 0.324610 0.994920 1.046179
Cr6   Cr    Cr6+3 0.323630 0.087860 0.996130 1.192188
H1    H     H_    0.879240 0.138992 0.165298 0.151887
H2    H     H_    0.923550 0.123985 0.087861 0.142481
H3    H     H_    0.164716 0.872811 0.173432 0.139019
H4    H     H_    0.181628 0.867903 0.314254 0.168208
H5    H     H_    0.196697 0.818524 0.391016 0.155907
H6    H     H_    0.540218 0.720219 0.400487 0.170016
H7    H     H_    0.492377 0.821724 0.177379 0.180925
H8    H     H_    0.175589 0.490553 0.204839 0.170696
H9    H     H_    0.118779 0.389383 0.881199 0.152551
H10   H     H_    0.135895 0.417297 0.805397 0.125904
H11   H     H_    0.196397 0.506540 0.675143 0.117900
H12   H     H_    0.227146 0.523815 0.599013 0.137831
H13   H     H_    0.497806 0.197836 0.596757 0.140069
H14   H     H_    0.465787 0.182164 0.672918 0.117792
H15   H     H_    0.978988 0.312815 0.699963 0.113310
H16   H     H_    0.451897 0.173281 0.203056 0.199047
H17   H     H_    0.016326 0.286354 0.780838 0.105098
H18   H     H_    0.694184 0.325990 0.787639 0.125754
H19   H     H_    0.656864 0.352383 0.706710 0.113099
H20   H     H_    0.400410 0.642826 0.712018 0.112535
H21   H     H_    0.378769 0.680107 0.793285 0.118405
H22   H     H_    0.290544 0.015781 0.781925 0.114833
H23   H     H_    0.312061 0.978513 0.700599 0.112994
H24   H     H_    0.858514 0.459639 0.102557 0.163426
H25   H     H_    0.821768 0.479908 0.319404 0.193845
H26   H     H_    0.771719 0.519847 0.396583 0.180916
H27   H     H_    0.771521 0.211899 0.393407 0.183285
O1    O     O_R   0.688580 0.499770 0.460490 -0.512572
O2    O     O_R   0.348600 0.476260 0.536540 -0.504537
O3    O     O_R   0.494840 0.313840 0.539010 -0.513305
O4    O     O_R   0.672120 0.351750 0.545910 -0.494865
O5    O     O_3   0.500010 0.500010 0.500010 -0.257569
O6    O     O_R   0.167510 0.972920 0.030390 -0.532021
O7    O     O_R   0.990840 0.178580 0.027590 -0.498147
O8    O     O_R   0.972840 0.345510 0.038590 -0.504623
O9    O     O_R   0.181550 0.320660 0.045200 -0.504053
O10   O     O_R   0.346150 0.177650 0.050510 -0.445994
O11   O     O_R   0.314200 0.996600 0.036060 -0.421133
O12   O     O_R   0.480400 0.672610 0.462660 -0.504798
O13   O     O_R   0.168690 0.969990 0.933130 -0.504745
O14   O     O_R   0.991920 0.175870 0.937430 -0.480713
O15   O     O_R   0.974010 0.342590 0.941330 -0.507489
O16   O     O_R   0.182630 0.317940 0.955040 -0.521226
O17   O     O_R   0.347320 0.174720 0.953250 -0.422294
O18   O     O_R   0.315290 0.993890 0.945900 -0.473493
O19   O     O_3   0.162730 0.163890 0.991180 -0.287006
O20   O     O_R   0.315310 0.685650 0.451800 -0.499800
O21   O     O_R   0.346220 0.474990 0.446280 -0.487367
O22   O     O_R   0.492270 0.312460 0.441630 -0.479399
O23   O     O_R   0.669740 0.350480 0.455640 -0.493029
O24   O     O_R   0.691150 0.501150 0.557860 -0.501924
O25   O     O_R   0.482790 0.673890 0.552920 -0.491924
O26   O     O_R   0.317880 0.687030 0.549170 -0.508007
S1    S     S_3+6 0.152479 0.550780 0.299298 0.016853
O27   O     O_2   0.075492 0.633166 0.267298 -0.256239
O28   O     O_2   0.088991 0.521005 0.326529 -0.272932
O29   O     O_3   0.220532 0.604476 0.333907 -0.530296
H28   H     H_    0.167117 0.656318 0.355141 0.371390
S2    S     S_3+6 0.836432 0.119954 0.304405 0.038608
O30   O     O_2   0.829922 0.047196 0.335275 -0.242285
O31   O     O_2   0.751599 0.141003 0.265983 -0.235790
O32   O     O_3   0.960134 0.058716 0.284094 -0.546110
H29   H     H_    0.965169 0.992154 0.266666 0.370189
H30   H     H_    0.133476 0.916915 0.096241 0.152656
S3    S     S_3+6 0.513401 0.849720 0.087590 0.045447
O33   O     O_2   0.510453 0.958427 0.089542 -0.203629
O34   O     O_2   0.617477 0.772193 0.111665 -0.275535
O35   O     O_3   0.510419 0.802294 0.033663 -0.486414
H31   H     H_    0.507601 0.733529 0.034737 0.330533
S4    S     S_3+6 0.573579 0.754403 0.313977 0.024192
O36   O     O_2   0.662469 0.742545 0.349630 -0.263403
O37   O     O_2   0.609608 0.650280 0.284663 -0.313313
O38   O     O_3   0.548269 0.855914 0.282445 -0.465194
H32   H     H_    0.609751 0.825605 0.262935 0.377600
H33   H     H_    0.484104 0.256716 0.827214 0.153138
S5    S     S_3+6 0.518532 0.210316 0.919223 0.040554
O39   O     O_2   0.556961 0.090201 0.917744 -0.206327
O40   O     O_2   0.605568 0.228244 0.903117 -0.289753
O41   O     O_3   0.496478 0.263353 0.972467 -0.475474
H34   H     H_    0.467681 0.342508 0.970825 0.329437
S6    S     S_3+6 0.510319 0.138972 0.296450 0.070690
O42   O     O_2   0.576923 0.178297 0.328510 -0.239920
O43   O     O_2   0.460876 0.090812 0.322352 -0.228359
O44   O     O_3   0.590986 0.043432 0.259149 -0.476814
H35   H     H_    0.654622 0.992315 0.277450 0.408485
H36   H     H_    0.814094 0.473166 0.179949 0.153160

loop_
_geom_bond_atom_site_label_1
_geom_bond_atom_site_label_2
_ccdc_geom_bond_type
C58   C62   A    
C57   H15   S    
S6    O42   D    
C63   C65   T    
S3    O34   D    
C69   H21   S    
C73   C74   S    
C35   C36   A    
Cr4   O13   S    
Cr3   O23   S    
Cr4   O7    S    
C3    S6    S    
C34   C66   S    
C23   O1    A    
C1    O20   A    
S5    O40   D    
Cr5   O8    S    
C40   C46   A    
C46   H12   S    
C26   C27   A    
C29   C30   A    
Cr5   O15   S    
C74   C76   T    
C18   C24   A    
C5    C6    S    
C28   C29   A    
C58   H17   S    
C1    O12   A    
C72   C75   S    
C29   H4    S    
Cr6   O17   S    
C55   C56   S    
C81   O14   A    
C49   C54   A    
Cr6   O19   S    
C71   H23   S    
C30   H5    S    
C18   C19   A    
C41   C42   A    
C32   C39   A    
O44   H35   S    
C60   H19   S    
Cr2   O20   S    
Cr1   O12   S    
C43   C53   S    
C34   O25   A    
C62   C63   S    
O38   H32   S    
C44   C46   A    
C16   C17   A    
Cr2   O5    S    
C8    C79   S    
Cr6   O10   S    
C69   C73   A    
Cr2   O2    S    
C9    C10   A    
C83   O18   A    
C68   C72   A    
C16   H36   S    
C59   C60   A    
Cr5   O19   S    
C13   C14   A    
S3    O35   S    
C1    C25   S    
C70   C73   A    
S1    O29   S    
C76   C83   S    
C12   C67   S    
C11   S2    S    
Cr2   O26   S    
Cr5   O9    S    
C26   H6    S    
C40   C45   S    
S6    O44   S    
C34   O26   A    
C17   C24   A    
Cr5   O16   S    
O29   H28   S    
C51   C52   S    
S4    O38   S    
C23   O23   A    
Cr4   O19   S    
C83   O13   A    
S1    O28   D    
C68   H20   S    
S2    O32   S    
Cr1   O24   S    
Cr3   O4    S    
C5    C84   A    
C68   C69   A    
C81   O15   A    
C47   C51   A    
C80   O11   A    
C4    C7    S    
C27   S4    S    
C31   H3    S    
C2    H16   S    
C47   H10   S    
C41   H13   S    
C60   C61   A    
S4    O37   D    
C82   O17   A    
C61   C64   S    
C48   C54   A    
C43   C44   A    
C4    C78   A    
C37   C38   T    
C78   S1    S    
Cr4   O6    S    
C65   C81   S    
C47   C48   A    
C14   C15   A    
C28   C38   S    
C16   C20   A    
C55   C64   T    
C50   H33   S    
C50   C51   A    
C12   O22   A    
Cr1   O5    S    
O41   H34   S    
C33   C39   A    
C20   C21   S    
C70   C71   A    
C70   H22   S    
C32   H30   S    
C56   O24   A    
C45   O3    A    
C40   C41   A    
C79   O9    A    
O35   H31   S    
C12   O21   A    
C2    C5    A    
C42   C43   A    
C3    C4    A    
C54   C82   S    
C77   O8    A    
C52   C53   T    
C25   C30   A    
C48   H9    S    
C79   O10   A    
C36   C37   S    
C59   C62   A    
C15   H26   S    
C31   C32   A    
C9    C23   S    
Cr3   O22   S    
S1    O27   D    
C42   H14   S    
Cr1   O25   S    
Cr3   O5    S    
C6    C8    T    
C44   H11   S    
C33   S3    S    
C57   C61   A    
S6    O43   D    
C59   H18   S    
C18   H2    S    
C56   O4    A    
C19   C20   A    
S2    O31   D    
C2    C3    A    
C25   C26   A    
C84   H8    S    
Cr3   O3    S    
C10   H27   S    
C35   H7    S    
S2    O30   D    
C39   C80   S    
Cr6   O18   S    
C11   C13   A    
C45   O2    A    
C57   C58   A    
S5    O39   D    
C82   O16   A    
C66   C75   T    
C17   H24   S    
C33   C35   A    
C13   C22   S    
C9    C15   A    
Cr1   O1    S    
S4    O36   D    
C19   H1    S    
C10   C11   A    
Cr2   O21   S    
C7    C67   T    
C78   C84   A    
C24   C77   S    
C49   S5    S    
C71   C72   A    
O32   H29   S    
S5    O41   S    
C49   C50   A    
S3    O33   D    
C77   O7    A    
Cr6   O11   S    
C31   C36   A    
Cr4   O14   S    
C21   C22   T    
C14   H25   S    
C27   C28   A    
C80   O6    A    
