data_mof_unit_44653.cif
_audit_creation_date              2012-10-26T17:12:26-0400
_audit_creation_method            fapswitch 2.2
_symmetry_space_group_name_H-M    P1
_symmetry_Int_Tables_number       1
_space_group_crystal_system       triclinic
_cell_length_a                    16.725252
_cell_length_b                    16.723222
_cell_length_c                    16.800025
_cell_angle_alpha                 67.430853
_cell_angle_beta                  67.425964
_cell_angle_gamma                 67.860053
_cell_volume                      3858.75433123

loop_
_atom_site_label
_atom_site_type_symbol
_atom_type_description
_atom_site_fract_x
_atom_site_fract_y
_atom_site_fract_z
_atom_type_partial_charge
C1    C     C_R   0.029898 0.828052 0.564066 0.545636
C2    C     C_R   0.029051 0.564578 0.827989 0.551372
C3    C     C_R   0.171942 0.970154 0.435911 0.545613
C4    C     C_R   0.828058 0.029854 0.564085 0.545613
C5    C     C_R   0.454337 0.051037 0.711742 0.274877
C6    C     C_R   0.545658 0.948992 0.288251 0.274873
C7    C     C_R   0.061204 0.708936 0.452388 0.276444
C8    C     C_R   0.938788 0.291062 0.547615 0.276445
C9    C     C_R   0.699935 0.449102 0.076630 0.275936
C10   C     C_R   0.300063 0.550899 0.923369 0.275936
C11   C     C_R   0.290809 0.939574 0.547442 0.276584
C12   C     C_R   0.970100 0.171948 0.435935 0.545632
C13   C     C_R   0.709182 0.060476 0.452544 0.276583
C14   C     C_R   0.550858 0.300009 0.923448 0.275669
C15   C     C_R   0.449142 0.699992 0.076551 0.275670
C16   C     C_R   0.949680 0.545458 0.288054 0.275068
C17   C     C_R   0.050303 0.454544 0.711950 0.275062
C18   C     C_R   0.542295 0.025038 0.542223 -0.050499
C19   C     C_R   0.457695 0.975017 0.457757 -0.050498
C20   C     C_R   0.024996 0.542328 0.542211 -0.050421
C21   C     C_R   0.974977 0.457678 0.457797 -0.050419
C22   C     C_R   0.542637 0.542636 0.023418 -0.052572
C23   C     C_R   0.827974 0.564399 0.028545 0.554173
C24   C     C_R   0.457363 0.457366 0.976579 -0.052572
C25   C     C_R   0.587347 0.013791 0.454753 0.009698
C26   C     C_R   0.412643 0.986267 0.545225 0.009693
C27   C     C_R   0.007261 0.457012 0.589062 0.013018
C28   C     C_R   0.992713 0.542994 0.410946 0.013026
C29   C     C_R   0.453896 0.585344 0.016264 0.008413
C30   C     C_R   0.546103 0.414659 0.983734 0.008410
C31   C     C_R   0.543206 0.992279 0.411061 0.012679
C32   C     C_R   0.456785 0.007774 0.588919 0.012681
C33   C     C_R   0.414718 0.546153 0.983626 0.008559
C34   C     C_R   0.172026 0.435601 0.971455 0.554176
C35   C     C_R   0.585282 0.453849 0.016371 0.008555
C36   C     C_R   0.985721 0.412810 0.545450 0.009464
C37   C     C_R   0.014256 0.587195 0.454557 0.009459
C38   C     C_R   0.420653 0.009418 0.679531 0.296510
C39   C     C_R   0.579343 0.990620 0.320455 0.296495
C40   C     C_R   0.022727 0.676342 0.415608 0.296681
C41   C     C_R   0.977265 0.323659 0.584391 0.296698
C42   C     C_R   0.656561 0.403979 0.056803 0.295660
C43   C     C_R   0.343435 0.596022 0.943197 0.295661
C44   C     C_R   0.323329 0.978418 0.583891 0.296915
C45   C     C_R   0.564551 0.029122 0.827981 0.551391
C46   C     C_R   0.676662 0.021633 0.416093 0.296938
C47   C     C_R   0.595964 0.343306 0.943381 0.295492
C48   C     C_R   0.404036 0.656696 0.056618 0.295494
C49   C     C_R   0.991599 0.578834 0.320223 0.297061
C50   C     C_R   0.008386 0.421165 0.679782 0.297040
C51   C     C_R   0.545587 0.049819 0.676527 -0.008490
C52   C     C_R   0.454408 0.950213 0.323464 -0.008492
C53   C     C_R   0.053763 0.675526 0.544762 -0.011233
C54   C     C_R   0.946222 0.324475 0.455243 -0.011230
C55   C     C_R   0.675044 0.544438 0.052034 -0.010211
C56   C     C_R   0.435448 0.970881 0.172018 0.551390
C57   C     C_R   0.324956 0.455564 0.947964 -0.010207
C58   C     C_R   0.324397 0.946500 0.455174 -0.011122
C59   C     C_R   0.675597 0.053543 0.544814 -0.011114
C60   C     C_R   0.455537 0.324951 0.947985 -0.010380
C61   C     C_R   0.544464 0.675051 0.052013 -0.010379
C62   C     C_R   0.950476 0.454321 0.323399 -0.008257
C63   C     C_R   0.049507 0.545681 0.676606 -0.008268
C64   C     C_R   0.597350 0.048116 0.728303 0.000547
C65   C     C_R   0.402647 0.951899 0.271693 0.000551
C66   C     C_R   0.049903 0.728156 0.596704 -0.000576
C67   C     C_R   0.435598 0.172023 0.971463 0.554191
C68   C     C_R   0.950088 0.271844 0.403299 -0.000574
C69   C     C_R   0.728528 0.597518 0.045573 0.005585
C70   C     C_R   0.271472 0.402483 0.954426 0.005584
C71   C     C_R   0.271824 0.950197 0.403270 -0.000664
C72   C     C_R   0.728174 0.049825 0.596724 -0.000658
C73   C     C_R   0.402469 0.271471 0.954435 0.005596
C74   C     C_R   0.597532 0.728530 0.045563 0.005598
C75   C     C_R   0.952033 0.402599 0.271664 0.000461
C76   C     C_R   0.047957 0.597402 0.728338 0.000461
C77   C     C_R   0.687186 0.049573 0.686737 -0.119970
C78   C     C_R   0.564402 0.827978 0.028535 0.554195
C79   C     C_R   0.312813 0.950439 0.313260 -0.119977
C80   C     C_R   0.049525 0.687210 0.686750 -0.120089
C81   C     C_R   0.950467 0.312791 0.313252 -0.120081
C82   C     C_R   0.688605 0.688604 0.041582 -0.129311
C83   C     C_R   0.311395 0.311397 0.958416 -0.129311
C84   C     C_R   0.588020 0.042616 0.587978 -0.050193
C85   C     C_R   0.411972 0.957430 0.412008 -0.050197
C86   C     C_R   0.042568 0.588050 0.587971 -0.050125
C87   C     C_R   0.957411 0.411953 0.412035 -0.050121
C88   C     C_R   0.588010 0.588001 0.040954 -0.053063
C89   C     C_R   0.970946 0.435423 0.172011 0.551373
C90   C     C_R   0.411991 0.412002 0.959043 -0.053062
Cl1   Cl    Cl    0.374285 0.132425 0.766297 -0.406656
Cl2   Cl    Cl    0.386664 0.761917 0.156675 -0.417830
Cl3   Cl    Cl    0.868075 0.625810 0.233980 -0.406656
Cl4   Cl    Cl    0.131909 0.374191 0.766023 -0.406632
Cl5   Cl    Cl    0.368131 0.927215 0.763588 -0.367938
Cl6   Cl    Cl    0.631910 0.072786 0.236389 -0.367898
Cl7   Cl    Cl    0.956453 0.761052 0.346387 -0.342518
Cl8   Cl    Cl    0.043592 0.238950 0.653560 -0.342575
Cl9   Cl    Cl    0.676010 0.285963 0.104098 -0.330574
Cl10  Cl    Cl    0.323980 0.714039 0.895906 -0.330555
Cl11  Cl    Cl    0.238551 0.046611 0.651172 -0.345595
Cl12  Cl    Cl    0.625711 0.867588 0.233715 -0.406637
Cl13  Cl    Cl    0.761439 0.953398 0.348856 -0.345663
Cl14  Cl    Cl    0.713998 0.323647 0.896297 -0.329219
Cl15  Cl    Cl    0.286003 0.676357 0.103702 -0.329194
Cl16  Cl    Cl    0.075457 0.629137 0.236376 -0.370497
Cl17  Cl    Cl    0.924574 0.370799 0.763637 -0.370426
Cl18  Cl    Cl    0.141496 0.768171 0.376178 -0.400185
Cl19  Cl    Cl    0.858502 0.231823 0.623829 -0.400203
Cl20  Cl    Cl    0.761926 0.386639 0.156679 -0.418053
Cl21  Cl    Cl    0.238072 0.613362 0.843320 -0.418059
Cl22  Cl    Cl    0.231887 0.859168 0.624045 -0.399915
Cl23  Cl    Cl    0.768125 0.140866 0.375947 -0.399950
Cl24  Cl    Cl    0.613338 0.238081 0.843326 -0.417834
Cu1   Cu    Cu3+1 0.995180 0.995180 0.424630 1.228259
Cu2   Cu    Cu3+1 0.004820 0.004820 0.575370 1.228258
Cu3   Cu    Cu3+1 0.995180 0.424630 0.995180 1.219243
Cu4   Cu    Cu3+1 0.004820 0.575370 0.004820 1.219246
Cu5   Cu    Cu3+1 0.424630 0.995180 0.995180 1.219033
Cu6   Cu    Cu3+1 0.575370 0.004820 0.004820 1.219024
H1    H     H_    0.727464 0.044572 0.726714 0.191226
H2    H     H_    0.272537 0.955428 0.273287 0.191228
H3    H     H_    0.044524 0.727500 0.726724 0.191144
H4    H     H_    0.955473 0.272500 0.273277 0.191148
H5    H     H_    0.729780 0.729785 0.032942 0.183359
H6    H     H_    0.270221 0.270215 0.967057 0.183360
O1    O     O_R   0.124540 0.978640 0.385460 -0.493815
O2    O     O_R   0.124540 0.385460 0.978640 -0.495195
O3    O     O_R   0.021360 0.875460 0.614540 -0.493983
O4    O     O_R   0.978640 0.124540 0.385460 -0.493981
O5    O     O_R   0.013780 0.867370 0.487190 -0.466028
O6    O     O_R   0.986220 0.132630 0.512810 -0.466031
O7    O     O_R   0.867370 0.487190 0.013780 -0.468712
O8    O     O_R   0.132630 0.512810 0.986220 -0.468707
O9    O     O_R   0.487190 0.013780 0.867370 -0.467457
O10   O     O_R   0.512810 0.986220 0.132630 -0.467468
O11   O     O_R   0.512810 0.132630 0.986220 -0.468936
O12   O     O_R   0.875460 0.021360 0.614540 -0.493817
O13   O     O_R   0.487190 0.867370 0.013780 -0.468932
O14   O     O_R   0.986220 0.512810 0.132630 -0.467375
O15   O     O_R   0.013780 0.487190 0.867370 -0.467382
O16   O     O_R   0.132630 0.986220 0.512810 -0.466046
O17   O     O_R   0.867370 0.013780 0.487190 -0.466046
O18   O     O_R   0.978640 0.385460 0.124540 -0.493137
O19   O     O_R   0.021360 0.614540 0.875460 -0.493139
O20   O     O_R   0.385460 0.124540 0.978640 -0.494986
O21   O     O_R   0.614540 0.875460 0.021360 -0.494989
O22   O     O_R   0.614540 0.021360 0.875460 -0.493081
O23   O     O_R   0.385460 0.978640 0.124540 -0.493080
O24   O     O_R   0.875460 0.614540 0.021360 -0.495197

loop_
_geom_bond_atom_site_label_1
_geom_bond_atom_site_label_2
_ccdc_geom_bond_type
C25   C31   A    
C21   C87   A    
C26   C32   A    
C65   C79   A    
C22   C29   A    
C45   O22   A    
C64   C77   A    
C23   C69   S    
Cu3   O15   S    
C4    C72   S    
C19   C31   A    
C78   O13   A    
C4    O17   A    
C71   C79   A    
C26   C44   A    
C66   C80   A    
C21   C36   A    
Cu1   O5    S    
C2    O19   A    
C22   C35   A    
C12   C68   S    
C16   Cl3   S    
C12   O4    A    
C30   C35   A    
C68   C81   A    
C52   C85   A    
C37   C40   A    
C1    O3    A    
C54   C87   A    
C3    O1    A    
C58   C71   A    
C54   C68   A    
C63   C76   A    
C34   O8    A    
Cu1   Cu2   S    
C29   C33   A    
C60   C73   A    
C80   H3    S    
Cu1   O1    S    
C55   C88   A    
Cu4   O24   S    
C19   C26   A    
C69   C82   A    
C15   Cl2   S    
C14   C47   A    
Cu2   O3    S    
C20   C86   A    
C38   Cl5   S    
C18   C84   A    
C7    C40   A    
C53   C86   A    
C67   C73   S    
C32   C38   A    
C57   C70   A    
C11   C58   A    
C34   C70   S    
Cu4   O8    S    
C27   C50   A    
C59   C72   A    
C10   C43   A    
Cu3   O7    S    
C5    C38   A    
C36   C41   A    
C3    O16   A    
C16   C62   A    
C15   C48   A    
C74   C82   A    
Cu4   O14   S    
C56   O10   A    
C24   C33   A    
Cu2   O12   S    
C15   C61   A    
C79   H2    S    
Cu1   O17   S    
C45   O9    A    
C57   C90   A    
C23   O7    A    
C81   H4    S    
C33   C43   A    
C30   C47   A    
C11   C44   A    
Cu3   O18   S    
C8    C41   A    
C8    C54   A    
C40   Cl7   S    
C75   C81   A    
C29   C48   A    
C1    O5    A    
C14   Cl24  S    
C22   C88   A    
Cu5   O9    S    
Cu6   O10   S    
C3    C71   S    
C82   H5    S    
C72   C77   A    
C70   C83   A    
C61   C88   A    
C28   C49   A    
C48   Cl15  S    
Cu2   O6    S    
Cu5   Cu6   S    
C89   O14   A    
C10   C57   A    
C67   O20   A    
C1    C66   S    
C9    C42   A    
C10   Cl21  S    
C5    Cl1   S    
C43   Cl10  S    
C53   C66   A    
C55   C69   A    
C78   O21   A    
C7    Cl18  S    
Cu2   O16   S    
C21   C28   A    
Cu6   O22   S    
Cu5   O20   S    
C63   C86   A    
C50   Cl17  S    
C61   C74   A    
C62   C75   A    
C18   C32   A    
C7    C53   A    
C83   H6    S    
C58   C85   A    
C16   C49   A    
C2    C76   S    
C46   Cl13  S    
C9    Cl20  S    
C47   Cl14  S    
C12   O6    A    
C11   Cl22  S    
C6    C39   A    
C23   O24   A    
Cu4   O19   S    
C51   C64   A    
C76   C80   A    
C19   C85   A    
C24   C90   A    
C17   C50   A    
C44   Cl11  S    
C49   Cl16  S    
C13   C59   A    
C20   C27   A    
C60   C90   A    
C27   C36   A    
C89   O18   A    
C14   C60   A    
C62   C87   A    
C45   C64   S    
Cu3   Cu4   S    
C59   C84   A    
Cu5   O13   S    
C18   C25   A    
C42   Cl9   S    
C17   C63   A    
C20   C37   A    
C13   C46   A    
C28   C37   A    
C51   C84   A    
C35   C42   A    
C31   C39   A    
C6    Cl12  S    
C9    C55   A    
C67   O11   A    
Cu3   O2    S    
C24   C30   A    
C39   Cl6   S    
C77   H1    S    
C75   C89   S    
C4    O12   A    
Cu6   O11   S    
Cu6   O21   S    
C34   O2    A    
C74   C78   S    
C2    O15   A    
C41   Cl8   S    
C5    C51   A    
Cu5   O23   S    
C17   Cl4   S    
C6    C52   A    
C56   O23   A    
C8    Cl19  S    
C25   C46   A    
C73   C83   A    
C13   Cl23  S    
C52   C65   A    
C56   C65   S    
Cu1   O4    S    
