data_mof_unit_13813.cif
_audit_creation_date              2012-12-10T19:01:21-0500
_audit_creation_method            fapswitch 2.2
_symmetry_space_group_name_H-M    P1
_symmetry_Int_Tables_number       1
_space_group_crystal_system       triclinic
_cell_length_a                    9.606978
_cell_length_b                    10.828367
_cell_length_c                    15.487703
_cell_angle_alpha                 87.501273
_cell_angle_beta                  74.733464
_cell_angle_gamma                 89.519098
_cell_volume                      1552.81178185

loop_
_atom_site_label
_atom_site_type_symbol
_atom_type_description
_atom_site_fract_x
_atom_site_fract_y
_atom_site_fract_z
_atom_type_partial_charge
C1    C     C_R   0.000680 0.262616 0.499625 0.791893
C2    C     C_R   0.676781 0.529446 0.911256 0.023100
C3    C     C_R   0.771258 0.469556 0.956096 0.137342
C4    C     C_R   0.532955 0.555683 0.962648 0.026618
C5    C     C_R   0.477083 0.494981 0.048515 0.058968
C6    C     C_R   0.570196 0.414924 0.083187 -0.020252
C7    C     C_R   0.717583 0.415202 0.041452 -0.309643
C8    C     C_R   0.442715 0.641122 0.931851 -0.230030
C9    C     C_R   0.294734 0.640319 0.968722 -0.198035
C10   C     C_R   0.236668 0.574481 0.048840 0.151799
C11   C     C_R   0.329851 0.516349 0.094774 0.108841
C12   C     C_R   0.917984 0.506854 0.671893 0.806887
C13   C     C_R   0.087472 0.572678 0.086680 -0.304380
C14   C     C_R   0.030479 0.524838 0.174132 0.018566
C15   C     C_R   0.274956 0.493847 0.187184 -0.195669
C16   C     C_R   0.119331 0.062163 0.511370 0.121475
C17   C     C_R   0.004398 0.129684 0.494152 -0.085848
C18   C     C_R   0.894151 0.067218 0.469643 -0.153402
C19   C     C_R   0.892938 0.938657 0.471494 -0.204281
C20   C     C_R   0.002322 0.871214 0.496333 -0.087681
C21   C     C_R   0.118306 0.934529 0.512542 0.104408
C22   C     C_3   0.175431 0.924379 0.593569 -0.431417
C23   C     C_R   0.999650 0.737477 0.500328 0.808587
C24   C     C_3   0.177793 0.064173 0.591576 -0.455644
C25   C     C_R   0.599096 0.568197 0.436485 0.250504
C26   C     C_R   0.552030 0.419240 0.554656 0.045945
C27   C     C_R   0.401239 0.426065 0.559559 0.050803
C28   C     C_R   0.452837 0.565572 0.435411 0.209161
C29   C     C_3   0.449034 0.700614 0.415341 -0.490047
C30   C     C_3   0.605618 0.705803 0.418947 -0.174792
C31   C     C_R   0.081134 0.497026 0.327788 0.813885
C32   C     C_R   0.870992 0.515574 0.770771 -0.085280
C33   C     C_R   0.126336 0.500661 0.228624 -0.064801
C34   C     C_R   0.916757 0.452573 0.912222 -0.187707
C35   C     C_R   0.966441 0.477077 0.820739 -0.217643
C36   C     C_R   0.727071 0.549495 0.816062 -0.043438
Cu1   Cu    Cu3+1 0.140670 0.499980 0.500000 0.938908
Cu2   Cu    Cu3+1 0.859330 0.500020 0.500000 0.985812
H1    H     H_    0.788944 0.359003 0.070739 0.159468
H2    H     H_    0.015626 0.606512 0.047435 0.140576
H3    H     H_    0.806354 0.117022 0.452308 0.193314
H4    H     H_    0.804325 0.892143 0.456656 0.163459
H5    H     H_    0.096144 0.882568 0.653226 0.207354
H6    H     H_    0.285180 0.884001 0.579892 0.200672
H7    H     H_    0.100667 0.103618 0.650514 0.194090
H8    H     H_    0.288859 0.103077 0.574797 0.229852
H9    H     H_    0.430477 0.720227 0.348202 0.190864
H10   H     H_    0.349149 0.477675 0.228086 0.160559
H11   H     H_    0.376179 0.750346 0.470171 0.207360
H12   H     H_    0.619371 0.755691 0.477342 0.190485
H13   H     H_    0.226751 0.697472 0.937577 0.157603
H14   H     H_    0.990425 0.411631 0.947615 0.162774
H15   H     H_    0.077242 0.455230 0.788113 0.204222
H16   H     H_    0.484117 0.709832 0.879090 0.185141
N1    N     N_R   0.648210 0.500930 0.499430 -0.238033
N2    N     N_R   0.352300 0.500890 0.499430 -0.236465
O1    O     O_R   0.118810 0.319640 0.500000 -0.604982
O2    O     O_R   0.881230 0.319680 0.499990 -0.587027
O3    O     O_R   0.055580 0.499970 0.629840 -0.608793
O4    O     O_R   0.818000 0.500010 0.629830 -0.586771
O5    O     O_R   0.118770 0.680320 0.500010 -0.586884
O6    O     O_R   0.881190 0.680360 0.500000 -0.572988
O7    O     O_R   0.182000 0.499990 0.370170 -0.588317
O8    O     O_R   0.944420 0.500030 0.370160 -0.538292
C37   C     C_2   0.603506 0.316097 0.604249 0.494043
H17   H     H_    0.670811 0.331008 0.648452 0.088877
O9    O     O_2   0.567603 0.210059 0.596578 -0.575487
C38   C     C_2   0.297783 0.358896 0.634829 0.393413
H18   H     H_    0.200377 0.318759 0.627106 0.118744
O10   O     O_2   0.320530 0.348666 0.708779 -0.590395
C39   C     C_3   0.710607 0.746423 0.329099 -0.358635
C40   C     C_3   0.686807 0.881567 0.301720 -0.362028
C41   C     C_3   0.812654 0.929229 0.225479 -0.807800
H19   H     H_    0.913788 0.928439 0.247503 0.256351
H20   H     H_    0.826866 0.870714 0.166616 0.249573
H21   H     H_    0.790815 0.025635 0.205350 0.256353
H22   H     H_    0.586360 0.888652 0.279082 0.230954
H23   H     H_    0.673808 0.942164 0.359232 0.224699
H24   H     H_    0.822712 0.733786 0.335006 0.213118
H25   H     H_    0.695112 0.687459 0.275685 0.191980
C42   C     C_2   0.873458 0.500471 0.202752 0.319935
H26   H     H_    0.802521 0.552758 0.170847 0.051687
O11   O     O_2   0.823024 0.415115 0.255500 -0.543547
C43   C     C_2   0.626489 0.589960 0.762338 0.343653
H27   H     H_    0.526890 0.539351 0.768900 0.101149
O12   O     O_2   0.652830 0.682099 0.712322 -0.528264
C44   C     C_2   0.520240 0.316378 0.154012 0.338917
H28   H     H_    0.587509 0.288956 0.197924 0.105678
O13   O     O_2   0.408674 0.259381 0.160114 -0.525720

loop_
_geom_bond_atom_site_label_1
_geom_bond_atom_site_label_2
_ccdc_geom_bond_type
C8    C9    A    
C44   H28   S    
C16   C21   A    
C35   H15   S    
C41   H19   S    
C19   C20   A    
C9    H13   S    
C4    C8    A    
C26   N1    A    
C14   C33   A    
C39   H24   S    
C30   C39   S    
C28   N2    A    
C29   H11   S    
C25   C28   A    
C26   C27   A    
C40   H22   S    
C29   H9    S    
C24   H7    S    
C32   C36   A    
C28   C29   S    
Cu1   Cu2   S    
C43   O12   D    
C5    C11   A    
C3    C7    A    
C5    C6    A    
C34   C35   A    
C13   H2    S    
C40   H23   S    
C27   C38   S    
Cu1   O7    S    
C38   H18   S    
C12   O3    A    
C11   C15   A    
C23   O6    A    
C22   H6    S    
Cu2   N1    S    
C16   C17   A    
C37   O9    D    
C31   C33   S    
C9    C10   A    
C19   H4    S    
C30   H12   S    
C16   C24   S    
Cu2   O2    S    
C21   C22   S    
C12   C32   S    
C41   H20   S    
C15   H10   S    
C39   H25   S    
C42   O11   D    
C42   H26   S    
Cu2   O8    S    
C32   C35   A    
C31   O7    A    
C43   H27   S    
C18   H3    S    
C8    H16   S    
C27   N2    A    
C18   C19   A    
C3    C34   A    
C6    C44   S    
C2    C4    A    
C29   C30   S    
C1    O1    A    
C22   H5    S    
C20   C23   S    
C23   O5    A    
C17   C18   A    
Cu1   O3    S    
Cu1   N2    S    
Cu2   O4    S    
C44   O13   D    
C41   H21   S    
C22   C24   S    
C2    C36   A    
C25   C30   S    
C26   C37   S    
C1    C17   S    
C31   O8    A    
C25   N1    A    
C40   C41   S    
C10   C13   A    
Cu1   O5    S    
C6    C7    A    
C34   H14   S    
C24   H8    S    
C2    C3    A    
C39   C40   S    
C1    O2    A    
C36   C43   S    
C10   C11   A    
C12   O4    A    
C4    C5    A    
C20   C21   A    
C38   O10   D    
C37   H17   S    
C7    H1    S    
C14   C42   S    
C13   C14   A    
C15   C33   A    
Cu1   O1    S    
Cu2   O6    S    
