data_mof_unit_5121.cif
_audit_creation_date              2012-10-26T19:07:26-0400
_audit_creation_method            fapswitch 2.2
_symmetry_space_group_name_H-M    P1
_symmetry_Int_Tables_number       1
_space_group_crystal_system       triclinic
_cell_length_a                    15.114067
_cell_length_b                    13.861822
_cell_length_c                    10.719552
_cell_angle_alpha                 91.34096
_cell_angle_beta                  86.831995
_cell_angle_gamma                 89.248384
_cell_volume                      2241.55743985

loop_
_atom_site_label
_atom_site_type_symbol
_atom_type_description
_atom_site_fract_x
_atom_site_fract_y
_atom_site_fract_z
_atom_type_partial_charge
C1    C     C_R   0.329424 0.500660 0.501554 0.490807
C2    C     C_R   0.965045 0.465127 0.278032 0.020635
C3    C     C_R   0.442967 0.796093 0.581242 0.347189
C4    C     C_R   0.553713 0.202810 0.415585 0.344304
C5    C     C_R   0.557270 0.791680 0.419067 0.342230
C6    C     C_R   0.444523 0.208120 0.583666 0.342816
C7    C     C_R   0.557888 0.894217 0.417408 -0.000191
C8    C     C_R   0.443496 0.105286 0.585565 0.002105
C9    C     C_R   0.442797 0.898785 0.584448 -0.000870
C10   C     C_R   0.556465 0.100290 0.416274 0.001236
C11   C     C_R   0.500484 0.947994 0.501309 -0.004257
C12   C     C_R   0.671221 0.500151 0.503476 0.562643
C13   C     C_R   0.500416 0.051277 0.501467 -0.004875
C14   C     C_R   0.614438 0.944607 0.333821 -0.096901
C15   C     C_R   0.386758 0.054740 0.669098 -0.090752
C16   C     C_R   0.386233 0.953802 0.668288 -0.092692
C17   C     C_R   0.613515 0.045305 0.332930 -0.085982
C18   C     C_R   0.501872 0.498942 0.259259 0.553055
C19   C     C_R   0.496701 0.501014 0.740737 0.596760
C20   C     C_3   0.497523 0.590400 0.047460 -0.110350
C21   C     C_3   0.497387 0.409327 0.952740 -0.093288
C22   C     C_3   0.568630 0.546354 0.952429 -0.106116
C23   C     C_R   0.955250 0.507244 0.502102 -0.007370
C24   C     C_3   0.426293 0.453359 0.048319 -0.133104
C25   C     C_3   0.424055 0.545920 0.971491 0.233848
C26   C     C_3   0.571103 0.453671 0.028078 0.235883
C27   C     C_3   0.494680 0.502477 0.877760 0.003811
C28   C     C_3   0.500978 0.497217 0.122421 -0.013533
C29   C     C_R   0.821023 0.461649 0.403241 -0.057268
C30   C     C_R   0.182489 0.498852 0.615857 -0.027365
C31   C     C_R   0.769048 0.502208 0.504830 -0.003033
C32   C     C_R   0.233147 0.502622 0.502154 -0.034485
C33   C     C_R   0.811513 0.551251 0.601669 0.024752
C34   C     C_R   0.048258 0.507108 0.502136 -0.014290
C35   C     C_R   0.191684 0.510959 0.388977 -0.003269
C36   C     C_R   0.903892 0.537042 0.611072 -0.012827
C37   C     C_R   0.099695 0.494442 0.388171 0.028213
C38   C     C_2   0.777912 0.400412 0.311226 0.300704
C39   C     C_2   0.225408 0.465016 0.729092 0.321853
C40   C     C_2   0.764999 0.629033 0.678864 0.307254
C41   C     C_2   0.243226 0.547801 0.278179 0.327711
C42   C     C_2   0.085282 0.595212 0.832337 0.368901
C43   C     C_2   0.922122 0.464618 0.156297 0.405582
C44   C     C_R   0.913394 0.478733 0.392578 -0.040121
C45   C     C_R   0.090367 0.519744 0.616073 -0.029911
C46   C     C_R   0.946383 0.554705 0.724274 0.235163
C47   C     C_R   0.058092 0.467071 0.278026 0.282832
C48   C     C_R   0.039715 0.550986 0.725440 0.049632
Cl1   Cl    Cl    0.325100 0.609348 0.940586 -0.478247
Cl2   Cl    Cl    0.672131 0.390262 0.045544 -0.469206
Cl3   Cl    Cl    0.883314 0.568879 0.868594 -0.496153
Cl4   Cl    Cl    0.121677 0.420491 0.144917 -0.382582
Cl5   Cl    Cl    0.367813 0.735336 0.681900 -0.528111
Cl6   Cl    Cl    0.616559 0.260790 0.299219 -0.502070
Cl7   Cl    Cl    0.631600 0.725771 0.315306 -0.588224
Cl8   Cl    Cl    0.370989 0.273654 0.688422 -0.566887
Cu1   Cu    Cu3+1 0.500000 0.597420 0.500000 1.143291
Cu2   Cu    Cu3+1 0.500000 0.402580 0.500000 1.119790
H1    H     H_    0.497236 0.665338 0.086438 0.197488
H2    H     H_    0.295314 0.476681 0.740101 0.164705
H3    H     H_    0.801403 0.692480 0.705898 0.146304
H4    H     H_    0.312825 0.529578 0.261791 0.095588
H5    H     H_    0.146120 0.634425 0.813970 0.143965
H6    H     H_    0.866367 0.513019 0.144244 0.138892
H7    H     H_    0.497616 0.334419 0.913673 0.200956
H8    H     H_    0.628381 0.585352 0.919567 0.225834
H9    H     H_    0.367771 0.414757 0.088144 0.180004
H10   H     H_    0.659933 0.907183 0.267362 0.192134
H11   H     H_    0.341705 0.092224 0.736089 0.197272
H12   H     H_    0.340864 0.919794 0.734666 0.194711
H13   H     H_    0.658701 0.079051 0.266087 0.205155
H14   H     H_    0.714516 0.422976 0.279446 0.184783
N1    N     N_R   0.500000 0.743810 0.500000 -0.221219
N2    N     N_R   0.500000 0.256190 0.500000 -0.226801
O1    O     O_R   0.370260 0.582280 0.500030 -0.474288
O2    O     O_2   0.184055 0.418876 0.807941 -0.367981
O3    O     O_2   0.687685 0.623057 0.715531 -0.491271
O4    O     O_2   0.209008 0.603474 0.207843 -0.378971
O5    O     O_2   0.057917 0.586546 0.940656 -0.334310
O6    O     O_2   0.945381 0.408295 0.071161 -0.301137
O7    O     O_R   0.629740 0.417720 0.499970 -0.479004
O8    O     O_R   0.629740 0.582280 0.499970 -0.427969
O9    O     O_R   0.370260 0.417720 0.500030 -0.469556
O10   O     O_R   0.499980 0.582260 0.316850 -0.479572
O11   O     O_R   0.500020 0.417740 0.683150 -0.477201
O12   O     O_R   0.500020 0.582260 0.683150 -0.422731
O13   O     O_R   0.499980 0.417740 0.316850 -0.460684
O14   O     O_2   0.811827 0.323935 0.273519 -0.373766

loop_
_geom_bond_atom_site_label_1
_geom_bond_atom_site_label_2
_ccdc_geom_bond_type
C21   C26   S    
C8    C13   A    
C34   C37   A    
C3    Cl5   S    
C30   C45   A    
C19   O12   A    
Cu2   O13   S    
C7    C11   A    
C35   C37   A    
C9    C16   A    
C26   Cl2   S    
C20   C25   S    
C10   C17   A    
C15   C16   A    
C33   C36   A    
Cu1   O12   S    
Cu1   N1    S    
C22   H8    S    
C24   H9    S    
C7    C14   A    
C2    C44   A    
C29   C38   S    
C30   C39   S    
C18   O10   A    
C31   C33   A    
C36   C46   A    
C37   C47   A    
C19   C27   S    
C4    N2    A    
C21   H7    S    
C21   C27   S    
C42   O5    D    
C14   C17   A    
C41   H4    S    
C35   C41   S    
C43   H6    S    
C6    N2    A    
C46   C48   A    
C15   H11   S    
C38   H14   S    
C33   C40   S    
C1    O1    A    
C32   C35   A    
C18   C28   S    
C24   C25   S    
Cu2   O7    S    
C41   O4    D    
C5    C7    A    
C6    C8    A    
C20   C28   S    
C43   O6    D    
C46   Cl3   S    
C1    C32   S    
C23   C44   A    
C38   O14   D    
C16   H12   S    
C3    C9    A    
C2    C43   S    
C23   C34   A    
Cu1   O10   S    
C12   O8    A    
C34   C45   A    
C42   C48   S    
C39   O2    D    
C20   H1    S    
C9    C11   A    
C20   C22   S    
C17   H13   S    
C8    C15   A    
C22   C27   S    
C29   C44   A    
C25   C27   S    
C4    C10   A    
Cu2   O11   S    
Cu2   N2    S    
C45   C48   A    
C4    Cl6   S    
Cu1   O8    S    
C5    Cl7   S    
C24   C28   S    
C6    Cl8   S    
C19   O11   A    
C10   C13   A    
C47   Cl4   S    
C2    C47   A    
C1    O9    A    
C26   C28   S    
C18   O13   A    
Cu1   O1    S    
C12   C31   S    
Cu2   O9    S    
C30   C32   A    
C11   C13   A    
Cu1   Cu2   S    
C39   H2    S    
C12   O7    A    
C5    N1    A    
C3    N1    A    
C25   Cl1   S    
C40   H3    S    
C29   C31   A    
C23   C36   A    
C22   C26   S    
C21   C24   S    
C14   H10   S    
C40   O3    D    
C42   H5    S    
