data_mof_unit_34608.cif
_audit_creation_date              2012-12-11T14:14:13-0500
_audit_creation_method            fapswitch 2.2
_symmetry_space_group_name_H-M    P1
_symmetry_Int_Tables_number       1
_space_group_crystal_system       triclinic
_cell_length_a                    17.010464
_cell_length_b                    7.257226
_cell_length_c                    16.911715
_cell_angle_alpha                 89.998242
_cell_angle_beta                  99.442171
_cell_angle_gamma                 90.003596
_cell_volume                      2059.4453706

loop_
_atom_site_label
_atom_site_type_symbol
_atom_type_description
_atom_site_fract_x
_atom_site_fract_y
_atom_site_fract_z
_atom_type_partial_charge
O1    O     O_R   0.414560 0.494370 0.416770 -0.540088
O2    O     O_R   0.585440 0.994370 0.583230 -0.540087
O3    O     O_R   0.578370 0.819590 0.429320 -0.536845
O4    O     O_R   0.421630 0.319590 0.570680 -0.536844
C1    C     C_R   0.604073 0.655680 0.413441 0.710514
C2    C     C_R   0.395926 0.155664 0.586558 0.710535
O5    O     O_R   0.414740 0.823790 0.407360 -0.539146
O6    O     O_R   0.585260 0.323790 0.592640 -0.539148
O7    O     O_R   0.420650 0.998510 0.561120 -0.533966
O8    O     O_R   0.579350 0.498510 0.438880 -0.533956
C3    C     C_R   0.387884 0.655035 0.385292 0.734450
C4    C     C_R   0.612116 0.155038 0.614707 0.734461
O9    O     O_3   0.502130 0.662240 0.550470 -0.379015
O10   O     O_3   0.497870 0.162240 0.449530 -0.379011
V1    V     V_3+5 0.499600 0.935390 0.490640 1.443277
V2    V     V_3+5 0.500400 0.435390 0.509360 1.443268
C5    C     C_2   0.786183 0.271763 0.787265 -0.072918
C6    C     C_2   0.213804 0.771766 0.212756 -0.072748
C7    C     C_2   0.820920 0.113382 0.817036 -0.256207
C8    C     C_2   0.179078 0.613384 0.182966 -0.255897
H1    H     H_    0.808620 0.402031 0.813380 0.158908
H2    H     H_    0.191359 0.902040 0.186656 0.158849
H3    H     H_    0.800485 0.981638 0.791541 0.130864
H4    H     H_    0.199514 0.481638 0.208454 0.130794
C9    C     C_2   0.718037 0.284545 0.719459 -0.108542
C10   C     C_2   0.281945 0.784539 0.280567 -0.108506
C11   C     C_2   0.679086 0.138697 0.682422 -0.287822
C12   C     C_2   0.320918 0.638689 0.317573 -0.287803
H5    H     H_    0.699331 0.422559 0.699902 0.142938
H6    H     H_    0.300628 0.922547 0.300155 0.142913
H7    H     H_    0.696412 0.999861 0.701175 0.136011
H8    H     H_    0.303617 0.499855 0.298789 0.135992
C13   C     C_R   0.330875 0.150059 0.634602 -0.081661
C14   C     C_R   0.669137 0.650111 0.365423 -0.081561
C15   C     C_R   0.164596 0.117290 0.859977 -0.131760
C16   C     C_R   0.835461 0.617314 0.140074 -0.131751
C17   C     C_R   0.299868 0.046844 0.841557 -0.150776
C18   C     C_R   0.700057 0.548045 0.158365 -0.150792
C19   C     C_R   0.240937 0.048221 0.889708 0.121563
C20   C     C_R   0.758997 0.549128 0.110232 0.121303
C21   C     C_R   0.147210 0.182308 0.779656 0.084835
C22   C     C_R   0.853019 0.681466 0.220522 0.084822
C23   C     C_R   0.205097 0.161322 0.727274 0.045930
C24   C     C_R   0.795029 0.660969 0.272852 0.045907
C25   C     C_R   0.283331 0.102207 0.761344 0.061934
C26   C     C_R   0.716672 0.602843 0.238648 0.061881
C27   C     C_R   0.345100 0.097864 0.715097 -0.190571
C28   C     C_R   0.654861 0.598722 0.284839 -0.190618
C29   C     C_R   0.253535 0.195930 0.598981 -0.190546
C30   C     C_R   0.746532 0.695173 0.401153 -0.190704
C31   C     C_R   0.190198 0.194785 0.642741 0.218669
C32   C     C_R   0.809913 0.693851 0.357448 0.218707
H9    H     H_    0.404793 0.056724 0.742076 0.116905
H10   H     H_    0.595097 0.558283 0.257752 0.116819
H11   H     H_    0.241808 0.225040 0.535272 0.138162
H12   H     H_    0.758255 0.723830 0.464902 0.138123
H13   H     H_    0.359036 0.999217 0.866923 0.154993
H14   H     H_    0.640814 0.501035 0.132923 0.155025
O11   O     O_R   0.920750 0.773600 0.061260 -0.524869
O12   O     O_R   0.079250 0.273600 0.938740 -0.524795
O13   O     O_R   0.085340 0.439850 0.092570 -0.542426
O14   O     O_R   0.914660 0.939850 0.907430 -0.542400
C33   C     C_R   0.112113 0.608286 0.114760 0.758522
C34   C     C_R   0.887888 0.108285 0.885238 0.758176
O15   O     O_R   0.921720 0.444130 0.070790 -0.528676
O16   O     O_R   0.078280 0.944130 0.929210 -0.528594
O17   O     O_R   0.914480 0.269530 0.916840 -0.529233
O18   O     O_R   0.085520 0.769530 0.083160 -0.529204
C35   C     C_R   0.897273 0.612317 0.087433 0.758083
C36   C     C_R   0.102745 0.112327 0.912579 0.757888
O19   O     O_3   0.997840 0.601520 0.949550 -0.372186
O20   O     O_3   0.002160 0.101520 0.050450 -0.372355
V3    V     V_3+5 0.000400 0.328340 0.009360 1.538650
V4    V     V_3+5 0.999600 0.828340 0.990640 1.538761
I1    I     I_    0.041085 0.345462 0.750343 -0.307998
I2    I     I_    0.959939 0.841651 0.250213 -0.308581
I3    I     I_    0.077419 0.194098 0.566051 -0.232276
I4    I     I_    0.922593 0.692433 0.434346 -0.232187
I5    I     I_    0.273437 0.955087 0.009807 -0.417131
I6    I     I_    0.726399 0.456537 0.990065 -0.417233

loop_
_geom_bond_atom_site_label_1
_geom_bond_atom_site_label_2
_ccdc_geom_bond_type
C7    H3    S    
O1    C3    A    
O2    C4    A    
C2    O7    A    
C28   H10   S    
O18   V4    S    
O16   V4    S    
O12   V3    S    
O15   V3    S    
O13   C33   A    
C16   C20   A    
O14   C34   A    
C18   H14   S    
C16   C22   A    
C8    H4    S    
C15   C36   S    
C29   C31   A    
C6    C10   S    
C30   C32   A    
C20   I6    S    
O17   V3    S    
C27   H9    S    
C24   C32   A    
O5    V1    S    
O6    V2    S    
C21   C23   A    
C22   C24   A    
C32   I4    S    
C24   C26   A    
O5    C3    A    
C25   C27   A    
C9    H5    S    
C26   C28   A    
C14   C30   A    
C4    C11   S    
C11   H7    S    
C34   O17   A    
C12   H8    S    
O4    C2    A    
O13   V3    S    
C29   H11   S    
C5    H1    S    
C19   I5    S    
O4    V2    S    
C15   C19   A    
C31   I3    S    
C21   I1    S    
O12   C36   A    
C7    C34   S    
O6    C4    A    
C1    C14   S    
O1    V2    S    
O2    V1    S    
C23   C25   A    
O11   V4    S    
O11   C35   A    
C10   H6    S    
C13   C27   A    
C14   C28   A    
C17   C25   A    
O3    V1    S    
C16   C35   S    
C33   O18   A    
C6    H2    S    
C10   C12   D    
O20   V3    S    
O3    C1    A    
O19   V4    S    
C9    C11   D    
C22   I2    S    
C2    C13   S    
C5    C9    S    
C8    C33   S    
O7    V1    S    
C1    O8    A    
C17   C19   A    
O8    V2    S    
C18   C20   A    
C23   C31   A    
O16   C36   A    
C3    C12   S    
O15   C35   A    
C5    C7    D    
C6    C8    D    
C15   C21   A    
C30   H12   S    
C18   C26   A    
O9    V2    S    
O10   V1    S    
O14   V4    S    
C13   C29   A    
C17   H13   S    
