data_mof_unit_9871.cif
_audit_creation_date              2012-12-10T20:25:40-0500
_audit_creation_method            fapswitch 2.2
_symmetry_space_group_name_H-M    P1
_symmetry_Int_Tables_number       1
_space_group_crystal_system       triclinic
_cell_length_a                    8.545823
_cell_length_b                    10.757216
_cell_length_c                    9.880631
_cell_angle_alpha                 89.310508
_cell_angle_beta                  97.797509
_cell_angle_gamma                 90.623782
_cell_volume                      899.816158632

loop_
_atom_site_label
_atom_site_type_symbol
_atom_type_description
_atom_site_fract_x
_atom_site_fract_y
_atom_site_fract_z
_atom_type_partial_charge
C1    C     C_R   0.499077 0.260373 0.500494 0.883022
C2    C     C_R   0.490114 0.936944 0.372762 -0.221669
C3    C     C_R   0.505835 0.870513 0.497088 -0.062764
C4    C     C_R   0.521223 0.935645 0.617618 0.074294
C5    C     C_3   0.540358 0.919687 0.768220 -0.535922
C6    C     C_3   0.529355 0.062700 0.772593 0.315630
C7    C     C_R   0.361493 0.504384 0.055061 0.231655
C8    C     C_R   0.637615 0.505512 0.087837 -0.148461
C9    C     C_R   0.637616 0.505611 0.944192 -0.144814
C10   C     C_R   0.361351 0.503944 0.912593 0.264453
C11   C     C_3   0.230833 0.409728 0.894529 -0.501457
C12   C     C_R   0.201532 0.503067 0.465214 0.997703
C13   C     C_3   0.230176 0.411682 0.048013 -0.536981
C14   C     C_R   0.502340 0.739394 0.499334 0.907279
C15   C     C_R   0.798112 0.508238 0.534505 0.925566
C16   C     C_2   0.037192 0.493808 0.450163 -0.423066
C17   C     C_2   0.959954 0.537635 0.547500 -0.033025
C18   C     C_R   0.513440 0.059528 0.619725 0.104026
C19   C     C_R   0.498845 0.128852 0.499586 -0.116939
C20   C     C_R   0.487952 0.065974 0.374118 -0.223760
H1    H     H_    0.981209 0.436310 0.366946 0.142562
H2    H     H_    0.748945 0.508410 0.903732 0.169858
H3    H     H_    0.120039 0.446087 0.837261 0.230851
H4    H     H_    0.269121 0.320530 0.855511 0.253018
H5    H     H_    0.120960 0.452379 0.077812 0.210553
H6    H     H_    0.266924 0.322907 0.100845 0.216362
H7    H     H_    0.477475 0.115661 0.277436 0.164534
H8    H     H_    0.478691 0.890243 0.275321 0.171924
H9    H     H_    0.438543 0.868960 0.802812 0.243159
H10   H     H_    0.658855 0.883639 0.809583 0.181733
H11   H     H_    0.637968 0.112504 0.819546 0.068701
H12   H     H_    0.748948 0.508176 0.154326 0.159479
N1    N     N_R   0.498950 0.499140 0.142680 -0.113182
N2    N     N_R   0.498950 0.499180 0.857030 -0.111230
O1    O     O_R   0.500020 0.316790 0.614690 -0.606526
O2    O     O_R   0.500000 0.316760 0.385350 -0.630556
O3    O     O_R   0.271760 0.500010 0.587850 -0.585845
O4    O     O_R   0.271740 0.499970 0.358500 -0.627722
O5    O     O_R   0.500000 0.683240 0.614650 -0.602482
O6    O     O_R   0.499980 0.683210 0.385310 -0.629943
O7    O     O_R   0.728260 0.500030 0.641500 -0.621274
O8    O     O_R   0.728240 0.499990 0.412150 -0.633200
Zn1   Zn    Zn3+2 0.500010 0.500020 0.653130 0.976167
Zn2   Zn    Zn3+2 0.499990 0.499980 0.346870 0.941226
I1    I     I_    0.043207 0.681918 0.687878 -0.416203
O9    O     O_3   0.387607 0.101200 0.816884 -0.575261
C21   C     C_3   0.400513 0.091837 0.960954 0.082016
H13   H     H_    0.446081 0.181284 0.006413 0.145272
H14   H     H_    0.480844 0.016465 0.005787 0.133082
C22   C     C_3   0.237738 0.064147 0.001081 -0.830333
H15   H     H_    0.195081 0.971999 0.961123 0.269569
H16   H     H_    0.243578 0.062614 0.113952 0.207120
H17   H     H_    0.152335 0.136105 0.958220 0.261802

loop_
_geom_bond_atom_site_label_1
_geom_bond_atom_site_label_2
_ccdc_geom_bond_type
O3    Zn1   S    
C7    C10   A    
C22   H16   S    
O4    Zn2   S    
C16   H1    S    
C20   H7    S    
C11   C13   S    
C15   O8    A    
C19   C20   A    
C7    C13   S    
C4    C18   A    
C2    C3    A    
C8    C9    A    
C10   N2    A    
O7    Zn1   S    
C1    O1    A    
C5    C6    S    
C3    C14   S    
O8    Zn2   S    
C11   H3    S    
C17   I1    S    
C6    H11   S    
C21   C22   S    
C5    H9    S    
C8    N1    A    
C12   O4    A    
C9    N2    A    
C6    C18   S    
C16   C17   D    
C13   H6    S    
O2    Zn2   S    
C22   H17   S    
C1    C19   S    
C10   C11   S    
C7    N1    A    
C14   O6    A    
C3    C4    A    
C8    H12   S    
C21   H13   S    
C11   H4    S    
O6    Zn2   S    
O1    Zn1   S    
C15   O7    A    
C21   H14   S    
C9    H2    S    
C5    H10   S    
C12   O3    A    
C15   C17   S    
O9    C21   S    
C18   C19   A    
C2    H8    S    
C6    O9    S    
C22   H15   S    
C14   O5    A    
O5    Zn1   S    
N1    Zn2   S    
C2    C20   A    
N2    Zn1   S    
C12   C16   S    
C1    O2    A    
C4    C5    S    
C13   H5    S    
