data_mof_unit_14616.cif
_audit_creation_date              2012-12-10T17:25:30-0500
_audit_creation_method            fapswitch 2.2
_symmetry_space_group_name_H-M    P1
_symmetry_Int_Tables_number       1
_space_group_crystal_system       triclinic
_cell_length_a                    10.110276
_cell_length_b                    10.549602
_cell_length_c                    23.264357
_cell_angle_alpha                 89.809869
_cell_angle_beta                  82.236968
_cell_angle_gamma                 93.929196
_cell_volume                      2452.6434217

loop_
_atom_site_label
_atom_site_type_symbol
_atom_type_description
_atom_site_fract_x
_atom_site_fract_y
_atom_site_fract_z
_atom_type_partial_charge
C1    C     C_R   0.553706 0.734279 0.492826 0.973048
C2    C     C_R   0.555474 0.369265 0.303795 -0.266853
C3    C     C_R   0.426171 0.554379 0.770131 0.238616
C4    C     C_R   0.551848 0.337974 0.245977 0.238991
C5    C     C_R   0.493896 0.457258 0.792659 0.285142
C6    C     C_R   0.483807 0.414495 0.211856 0.283489
C7    C     C_2   0.577922 0.868632 0.478208 -0.491007
C8    C     C_2   0.419802 0.131445 0.490219 -0.491459
C9    C     C_2   0.486811 0.930252 0.453367 0.444457
C10   C     C_2   0.504896 0.070063 0.451987 0.450188
C11   C     C_2   0.926998 0.510532 0.504920 -0.138309
C12   C     C_R   0.445854 0.265757 0.500604 0.967048
C13   C     C_2   0.073081 0.489672 0.494967 -0.120146
C14   C     C_R   0.500785 0.496496 0.610706 0.877779
C15   C     C_R   0.498251 0.498303 0.389271 0.896923
C16   C     C_R   0.387465 0.343092 0.127626 0.515090
C17   C     C_R   0.605951 0.487881 0.876335 0.521916
C18   C     C_R   0.607131 0.445479 0.117141 0.521818
C19   C     C_R   0.388954 0.379469 0.885853 0.520910
C20   C     C_R   0.617064 0.441516 0.056304 -0.063741
C21   C     C_R   0.386045 0.364610 0.946324 -0.063223
C22   C     C_R   0.502810 0.396324 0.031368 -0.100177
C23   C     C_R   0.563256 0.372931 0.755766 -0.137391
C24   C     C_R   0.501505 0.409515 0.971089 -0.099930
C25   C     C_R   0.390590 0.336716 0.066890 -0.060536
C26   C     C_R   0.613015 0.473403 0.936140 -0.060259
C27   C     C_R   0.734896 0.487005 0.020188 0.186853
C28   C     C_R   0.273513 0.304799 0.982338 0.175715
C29   C     C_R   0.727794 0.518057 0.961778 0.173638
C30   C     C_R   0.283311 0.278038 0.041013 0.187503
C31   C     C_3   0.870253 0.491870 0.041951 -0.798865
C32   C     C_3   0.139375 0.277767 0.960474 -0.798096
C33   C     C_3   0.839330 0.605234 0.929194 -0.783052
C34   C     C_R   0.417074 0.517633 0.236087 -0.143857
C35   C     C_3   0.186052 0.178099 0.073719 -0.796644
C36   C     C_3   0.640777 0.287919 0.657807 -0.839614
C37   C     C_3   0.351967 0.663191 0.318396 -0.859353
C38   C     C_3   0.351200 0.648131 0.808293 -0.859905
C39   C     C_3   0.622456 0.224391 0.222121 -0.877479
C40   C     C_3   0.673696 0.067991 0.372412 -0.356835
C41   C     C_3   0.302939 0.933487 0.401782 -0.339490
C42   C     C_R   0.568242 0.383948 0.695824 0.146144
C43   C     C_R   0.419193 0.548157 0.294334 0.139739
C44   C     C_R   0.501309 0.482065 0.672957 -0.086246
C45   C     C_R   0.490793 0.473707 0.328141 -0.092061
C46   C     C_R   0.429607 0.564988 0.710171 -0.272598
H1    H     H_    0.119154 0.615479 0.553510 0.171999
H2    H     H_    0.890311 0.579166 0.536796 0.168267
H3    H     H_    0.875043 0.412160 0.072743 0.256612
H4    H     H_    0.952243 0.478306 0.006220 0.216208
H5    H     H_    0.890306 0.584377 0.062849 0.267964
H6    H     H_    0.113285 0.361957 0.936702 0.257669
H7    H     H_    0.142339 0.192970 0.932326 0.270489
H8    H     H_    0.055049 0.261102 0.995997 0.216748
H9    H     H_    0.905926 0.652739 0.957910 0.215605
H10   H     H_    0.901813 0.550873 0.896385 0.267714
H11   H     H_    0.796325 0.685057 0.908569 0.263599
H12   H     H_    0.880767 0.384376 0.446539 0.181365
H13   H     H_    0.145825 0.108045 0.043869 0.218663
H14   H     H_    0.237820 0.120268 0.102574 0.258302
H15   H     H_    0.101635 0.223775 0.099176 0.263842
H16   H     H_    0.573365 0.243281 0.628532 0.230942
H17   H     H_    0.731001 0.334818 0.631736 0.260520
H18   H     H_    0.674407 0.210831 0.683844 0.227832
H19   H     H_    0.426234 0.728600 0.336413 0.254028
H20   H     H_    0.309895 0.715879 0.284447 0.225916
H21   H     H_    0.268532 0.634155 0.352941 0.266899
H22   H     H_    0.243799 0.638975 0.802418 0.249712
H23   H     H_    0.613657 0.298622 0.774425 0.147563
H24   H     H_    0.358457 0.633819 0.854962 0.235469
H25   H     H_    0.392460 0.746170 0.795924 0.237484
H26   H     H_    0.731017 0.239372 0.225255 0.250779
H27   H     H_    0.610205 0.206246 0.176154 0.240500
H28   H     H_    0.581193 0.138339 0.247795 0.225374
H29   H     H_    0.597913 0.032097 0.344937 0.153960
H30   H     H_    0.729626 0.989322 0.386649 0.177759
H31   H     H_    0.747349 0.132914 0.344968 0.196383
H32   H     H_    0.370749 0.969890 0.362795 0.155096
H33   H     H_    0.251247 0.011713 0.424950 0.171863
H34   H     H_    0.366989 0.576126 0.208577 0.147738
H35   H     H_    0.224118 0.868954 0.386472 0.202144
H36   H     H_    0.377811 0.639486 0.692356 0.168330
H37   H     H_    0.608619 0.311275 0.330180 0.202149
H38   H     H_    0.332281 0.081428 0.514639 0.135294
H39   H     H_    0.669036 0.918557 0.488800 0.134624
H40   H     H_    0.109818 0.421171 0.463032 0.163167
N1    N     N_R   0.493898 0.397608 0.150651 -0.349573
N2    N     N_R   0.495078 0.443231 0.853611 -0.349527
N3    N     N_2   0.842710 0.448880 0.476480 -0.184560
N4    N     N_2   0.157290 0.551120 0.523520 -0.179446
O1    O     O_R   0.431060 0.692470 0.504730 -0.539590
O2    O     O_2   0.709417 0.542702 0.840020 -0.567829
O3    O     O_2   0.705780 0.503640 0.143224 -0.556812
O4    O     O_2   0.289464 0.328041 0.858322 -0.562218
O5    O     O_3   0.615917 0.136657 0.420281 -0.593196
O6    O     O_3   0.370919 0.863964 0.439208 -0.585269
O7    O     O_R   0.568940 0.307530 0.495270 -0.544140
O8    O     O_R   0.651120 0.659650 0.489640 -0.620779
O9    O     O_R   0.348880 0.340350 0.510360 -0.620800
O10   O     O_R   0.389950 0.516450 0.591390 -0.612660
O11   O     O_R   0.610050 0.483550 0.408610 -0.601406
O12   O     O_R   0.610020 0.483630 0.576300 -0.615380
O13   O     O_R   0.389980 0.516370 0.423700 -0.603019
O14   O     O_2   0.277060 0.302159 0.163828 -0.565244
Zn1   Zn    Zn3+2 0.353060 0.521920 0.510080 0.976161
Zn2   Zn    Zn3+2 0.646940 0.478080 0.489920 0.970836

loop_
_geom_bond_atom_site_label_1
_geom_bond_atom_site_label_2
_ccdc_geom_bond_type
C33   H9    S    
C38   H24   S    
C13   N4    D    
C27   C29   A    
C17   N2    A    
C23   H23   S    
C36   C42   S    
C11   H2    S    
O10   Zn1   S    
C23   C42   A    
C30   C35   S    
C17   C26   A    
C19   C21   A    
C24   C26   A    
C14   O12   A    
C41   O6    S    
C29   C33   S    
C16   C25   A    
C35   H13   S    
C39   H28   S    
O1    Zn1   S    
C32   H6    S    
C12   O9    A    
C34   H34   S    
C46   H36   S    
C5    N2    S    
C16   O14   S    
C3    C38   S    
C22   C25   A    
C37   H19   S    
C13   H40   S    
C16   N1    A    
C39   H26   S    
C36   H17   S    
C9    C10   S    
C33   H10   S    
C1    O1    A    
C1    C7    S    
C2    H37   S    
C17   O2    S    
C42   C44   A    
C31   H3    S    
C36   H16   S    
C32   H8    S    
C44   C46   A    
C2    C45   A    
O9    Zn1   S    
C27   C31   S    
C28   C32   S    
O13   Zn1   S    
C19   N2    A    
C31   H5    S    
C41   H32   S    
C6    N1    S    
C6    C34   A    
C35   H14   S    
C37   C43   S    
C2    C4    A    
C11   N3    D    
C5    C23   A    
C4    C39   S    
C8    C12   S    
C41   H35   S    
C37   H20   S    
C35   H15   S    
C15   O11   A    
C43   C45   A    
C9    O6    S    
C12   O7    A    
C19   O4    S    
O7    Zn2   S    
C4    C6    A    
C21   C28   A    
C38   H22   S    
H1    N4    S    
C22   C24   A    
C15   C45   S    
C31   H4    S    
C32   H7    S    
O11   Zn2   S    
C14   C44   S    
C25   C30   A    
C7    C9    D    
C38   H25   S    
C33   H11   S    
C8    H38   S    
C34   C43   A    
N4    Zn1   S    
C20   C22   A    
C3    C5    A    
C1    O8    A    
C41   H33   S    
C14   O10   A    
C20   C27   A    
C3    C46   A    
C18   N1    A    
O8    Zn2   S    
C40   H29   S    
N3    Zn2   S    
C28   C30   A    
C11   C13   S    
C7    H39   S    
C10   O5    S    
C37   H21   S    
O12   Zn2   S    
C18   C20   A    
C39   H27   S    
H12   N3    S    
C40   H30   S    
C26   C29   A    
C8    C10   D    
C21   C24   A    
C18   O3    S    
C40   H31   S    
C40   O5    S    
C15   O13   A    
C36   H18   S    
