data_mof_unit_67760.cif
_audit_creation_date              2012-12-10T16:50:02-0500
_audit_creation_method            fapswitch 2.2
_symmetry_space_group_name_H-M    P1
_symmetry_Int_Tables_number       1
_space_group_crystal_system       triclinic
_cell_length_a                    7.799853
_cell_length_b                    8.696474
_cell_length_c                    10.663119
_cell_angle_alpha                 92.515283
_cell_angle_beta                  88.19462
_cell_angle_gamma                 92.629522
_cell_volume                      721.519416363

loop_
_atom_site_label
_atom_site_type_symbol
_atom_type_description
_atom_site_fract_x
_atom_site_fract_y
_atom_site_fract_z
_atom_type_partial_charge
Br1   Br    Br    0.745939 0.249584 0.836540 -0.263795
Br2   Br    Br    0.602084 0.862830 0.783605 -0.381026
Br3   Br    Br    0.298222 0.088709 0.910628 -0.306344
Br4   Br    Br    0.050826 0.958171 0.145528 -0.258828
Br5   Br    Br    0.058825 0.587120 0.196663 -0.326047
Br6   Br    Br    0.662084 0.202550 0.138351 -0.277788
Br7   Br    Br    0.213265 0.985450 0.593863 -0.248359
Br8   Br    Br    0.022282 0.277007 0.382396 -0.151372
C1    C     C_R   0.542798 0.793166 0.490057 0.847989
C2    C     C_R   0.455257 0.206184 0.501514 0.948678
C3    C     C_R   0.492108 0.495270 0.259710 0.887591
C4    C     C_R   0.435220 0.782819 0.902263 0.202334
C5    C     C_R   0.324730 0.884237 0.966934 0.262577
C6    C     C_R   0.226054 0.832402 0.069853 0.184958
C7    C     C_R   0.253943 0.687387 0.116557 0.205959
C8    C     C_R   0.388958 0.598791 0.064358 -0.087996
C9    C     C_R   0.449990 0.632250 0.944406 -0.100484
C10   C     C_R   0.529508 0.514981 0.873021 -0.147626
C11   C     C_R   0.602347 0.392204 0.930214 0.246054
C12   C     C_R   0.574855 0.377079 0.058221 0.263096
C13   C     C_R   0.472447 0.482747 0.125891 -0.134464
C14   C     C_2   0.560213 0.954115 0.471153 0.218156
C15   C     C_2   0.431135 0.045288 0.510724 0.062747
C16   C     C_R   0.507714 0.504654 0.739915 0.943582
H1    H     H_    0.899058 0.647342 0.642757 0.371546
H2    H     H_    0.777288 0.928735 0.375318 0.395994
N1    N     N_2   0.950330 0.457950 0.466250 0.115322
N2    N     N_2   0.049670 0.542050 0.533750 0.145672
O1    O     O_R   0.389250 0.738570 0.508280 -0.571970
O2    O     O_3   0.704538 0.013303 0.406974 -0.664505
O3    O     O_R   0.678390 0.711630 0.486650 -0.596346
O4    O     O_R   0.355400 0.513470 0.694050 -0.582338
O5    O     O_R   0.644540 0.486530 0.672420 -0.636294
O6    O     O_R   0.321610 0.288370 0.513350 -0.591784
O7    O     O_R   0.610750 0.261430 0.491720 -0.536938
O8    O     O_R   0.355460 0.513470 0.327580 -0.594516
O9    O     O_R   0.644600 0.486530 0.305950 -0.568325
O10   O     O_3   0.986837 0.675256 0.577832 -0.568814
Zn1   Zn    Zn3+2 0.306930 0.517990 0.514440 1.150983
Zn2   Zn    Zn3+2 0.693070 0.482010 0.485560 1.142721

loop_
_geom_bond_atom_site_label_1
_geom_bond_atom_site_label_2
_ccdc_geom_bond_type
C4    C9    A    
C16   O4    A    
C8    C13   A    
C1    O1    A    
C2    C15   S    
Br6   C12   S    
C16   O5    A    
Br3   C5    S    
N2    O10   S    
N1    Zn2   S    
Br2   C4    S    
O1    Zn1   S    
C9    C10   A    
C2    O6    A    
C5    C6    A    
C4    C5    A    
C2    O7    A    
Br7   C15   S    
C3    O8    A    
H2    O2    S    
O9    Zn2   S    
Br4   C6    S    
H1    O10   S    
C10   C16   S    
C1    C14   S    
Br5   C7    S    
O5    Zn2   S    
Br1   C11   S    
C1    O3    A    
O7    Zn2   S    
C7    C8    A    
C12   C13   A    
C10   C11   A    
O4    Zn1   S    
N1    N2    D    
C3    O9    A    
Br8   N1    S    
C6    C7    A    
C14   O2    S    
N2    Zn1   S    
O3    Zn2   S    
C14   C15   D    
O6    Zn1   S    
C3    C13   S    
O8    Zn1   S    
C11   C12   A    
C8    C9    A    
