data_mof_unit_34385.cif
_audit_creation_date              2013-03-05T15:55:20-0500
_audit_creation_method            fapswitch 2.2
_symmetry_space_group_name_H-M    P1
_symmetry_Int_Tables_number       1
_space_group_crystal_system       triclinic
_cell_length_a                    27.725442
_cell_length_b                    10.666684
_cell_length_c                    9.878431
_cell_angle_alpha                 89.494558
_cell_angle_beta                  90.16512
_cell_angle_gamma                 91.636273
_cell_volume                      2920.11766379

loop_
_atom_site_label
_atom_site_type_symbol
_atom_site_description
_atom_site_fract_x
_atom_site_fract_y
_atom_site_fract_z
_atom_type_partial_charge
O1    O     O_R   0.500000 0.316780 0.614690 -0.653693
O2    O     O_R   0.500000 0.316750 0.385360 -0.638555
C1    C     C_R   0.502657 0.259369 0.501539 0.866883
O3    O     O_R   0.428760 0.500030 0.614650 -0.631857
O4    O     O_R   0.428750 0.500010 0.385320 -0.645256
C2    C     C_R   0.406093 0.498704 0.499792 0.859685
Zn1   Zn    Zn3+2 0.500000 0.500020 0.653130 0.951191
Zn2   Zn    Zn3+2 0.500000 0.499980 0.346870 0.933391
O5    O     O_R   0.500000 0.683250 0.614640 -0.588371
O6    O     O_R   0.500000 0.683220 0.385310 -0.629280
O7    O     O_R   0.571250 0.499990 0.614680 -0.594462
O8    O     O_R   0.571240 0.499970 0.385350 -0.616571
C3    C     C_R   0.493495 0.738127 0.499774 0.926477
C4    C     C_R   0.593889 0.499683 0.500085 0.882868
C5    C     C_R   0.176567 0.375792 0.485542 0.501590
O9    O     O_2   0.200305 0.267816 0.472499 -0.559705
N1    N     N_R   0.201838 0.486712 0.498252 -0.358985
C6    C     C_R   0.179389 0.598120 0.511340 0.502939
C7    C     C_R   0.278138 0.517777 0.379156 -0.113665
C8    C     C_R   0.328239 0.521538 0.379581 -0.234189
C9    C     C_R   0.328098 0.462277 0.617817 -0.246474
C10   C     C_R   0.277986 0.458383 0.616961 -0.105987
C11   C     C_R   0.253125 0.486583 0.497844 0.334559
C12   C     C_R   0.101931 0.487850 0.498671 -0.051965
C13   C     C_R   0.126090 0.374180 0.485660 -0.019649
C14   C     C_R   0.099552 0.261958 0.472014 -0.139163
C15   C     C_R   0.129006 0.600880 0.511644 -0.021309
C16   C     C_R   0.353496 0.494420 0.499161 -0.040537
H1    H     H_    0.346881 0.440339 0.710959 0.164311
H2    H     H_    0.258407 0.434502 0.708753 0.136351
H3    H     H_    0.117348 0.173651 0.459701 0.188750
C17   C     C_R   0.646437 0.497604 0.499738 -0.039130
C18   C     C_R   0.973037 0.373694 0.496498 0.046401
C19   C     C_R   0.976083 0.605529 0.500577 0.047148
C20   C     C_R   0.949326 0.489988 0.498501 0.070120
C21   C     C_R   0.944636 0.261400 0.502229 -0.214646
C22   C     C_R   0.894672 0.263379 0.503888 -0.134861
C23   C     C_R   0.871096 0.377134 0.500762 -0.021370
C24   C     C_R   0.898225 0.490773 0.498431 -0.051943
C25   C     C_R   0.874123 0.605217 0.496048 -0.020038
C26   C     C_R   0.823671 0.603888 0.496316 0.503420
N2    N     N_R   0.798220 0.492377 0.498447 -0.357674
C27   C     C_R   0.820683 0.380080 0.500556 0.504024
C28   C     C_R   0.721391 0.454370 0.614248 -0.097974
C29   C     C_R   0.671317 0.456121 0.614772 -0.224707
C30   C     C_R   0.672111 0.535695 0.383525 -0.213256
C31   C     C_R   0.722183 0.533691 0.383150 -0.098251
C32   C     C_R   0.746824 0.493360 0.498577 0.315250
O10   O     O_2   0.794231 0.271826 0.501393 -0.552038
C33   C     C_R   0.024089 0.373274 0.489893 0.047017
C34   C     C_R   0.050833 0.488522 0.498687 0.070070
C35   C     C_R   0.027112 0.604466 0.507481 0.046572
C36   C     C_R   0.049548 0.261257 0.473671 -0.215196
H4    H     H_    0.652106 0.423308 0.704032 0.153671
H5    H     H_    0.740501 0.422716 0.703407 0.143257
H6    H     H_    0.874563 0.174809 0.507886 0.191955
H7    H     H_    0.959791 0.169724 0.508346 0.138252
H8    H     H_    0.032000 0.171042 0.459100 0.138359
O11   O     O_2   0.205862 0.705593 0.524276 -0.556090
C37   C     C_R   0.105419 0.713723 0.525622 -0.137223
H9    H     H_    0.347135 0.546313 0.286889 0.166201
H10   H     H_    0.258677 0.539650 0.287129 0.135433
H11   H     H_    0.125506 0.801531 0.538081 0.191144
C38   C     C_R   0.950664 0.718642 0.494517 -0.215022
C39   C     C_R   0.900682 0.718199 0.492796 -0.136866
O12   O     O_2   0.800128 0.712965 0.495558 -0.553510
C40   C     C_R   0.055473 0.715727 0.524065 -0.215256
H12   H     H_    0.968220 0.809815 0.488137 0.137544
H13   H     H_    0.653553 0.567856 0.293594 0.157099
H14   H     H_    0.882925 0.807354 0.488630 0.189341
H15   H     H_    0.741915 0.563454 0.293473 0.142424
H16   H     H_    0.040300 0.806326 0.539009 0.139186
H17   H     H_    0.502280 0.112563 0.285649 0.171252
C41   C     C_R   0.511213 0.104525 0.758443 -0.158397
H18   H     H_    0.533867 0.187787 0.769957 0.173633
C42   C     C_R   0.496837 0.042215 0.876822 -0.178831
H19   H     H_    0.506188 0.081379 0.974519 0.155277
C43   C     C_R   0.468383 0.933161 0.869288 -0.248881
H20   H     H_    0.454263 0.890780 0.961547 0.138993
C44   C     C_R   0.458358 0.878699 0.743302 0.240725
C45   C     C_R   0.479108 0.933813 0.624076 0.071983
C46   C     C_R   0.497987 0.056473 0.629818 0.055427
C47   C     C_R   0.502649 0.124435 0.505719 -0.107950
C48   C     C_R   0.498635 0.063037 0.381516 -0.196430
H21   H     H_    0.493051 0.888915 0.282313 0.168330
C49   C     C_R   0.491389 0.935839 0.378996 -0.216322
C50   C     C_R   0.484327 0.870028 0.500254 -0.133010
H22   H     H_    0.552106 0.645050 0.126391 0.154631
C51   C     C_R   0.436993 0.334740 0.141162 -0.180887
H23   H     H_    0.435623 0.330385 0.248218 0.216026
C52   C     C_R   0.405719 0.252135 0.071809 0.223534
C53   C     C_R   0.406451 0.252479 0.930967 -0.265335
H24   H     H_    0.382981 0.188652 0.874829 0.154989
C54   C     C_R   0.437198 0.334780 0.860576 -0.181777
H25   H     H_    0.435103 0.329248 0.753324 0.218745
C55   C     C_R   0.469033 0.418415 0.928100 0.097061
C56   C     C_R   0.469014 0.418377 0.072675 0.102874
N3    N     N_R   0.499540 0.498800 0.142780 -0.124234
C57   C     C_R   0.528912 0.579803 0.071573 -0.179039
C58   C     C_R   0.529372 0.579431 0.927660 0.240038
N4    N     N_R   0.499520 0.498720 0.857170 -0.136817
N5    N     N_2   0.424906 0.774866 0.736642 -0.287121
H26   H     H_    0.420169 0.726599 0.826849 0.222527
C59   C     C_3   0.379634 0.802507 0.671210 -0.756600
H27   H     H_    0.355528 0.717770 0.672905 0.252568
H28   H     H_    0.385617 0.830736 0.563983 0.241770
H29   H     H_    0.361478 0.878765 0.725541 0.238578
N6    N     N_2   0.375084 0.164438 0.143092 -0.315049
H30   H     H_    0.357829 0.098488 0.082778 0.228645
C60   C     C_3   0.343510 0.215993 0.243651 -0.732186
H31   H     H_    0.319362 0.140331 0.285223 0.255164
H32   H     H_    0.320913 0.289405 0.197286 0.243582
H33   H     H_    0.364610 0.255747 0.329456 0.235770
N7    N     N_2   0.559893 0.665348 0.855495 -0.252842
H34   H     H_    0.549557 0.756903 0.865081 0.221362
C61   C     C_3   0.610972 0.651898 0.879659 -0.757308
H35   H     H_    0.621125 0.688427 0.981107 0.213227
H36   H     H_    0.631707 0.706024 0.801708 0.252806
H37   H     H_    0.620714 0.551913 0.873419 0.241340

loop_
_geom_bond_atom_site_label_1
_geom_bond_atom_site_label_2
_geom_bond_distance
_ccdc_geom_bond_type
C26   N2    1.365605 A    
C7    C11   1.396749 A    
C7    C8    1.388504 A    
C12   C15   1.408556 A    
C59   H28   1.110269 S    
C56   N3    1.377482 A    
H21   C49   1.083887 S    
C61   H35   1.111021 S    
Zn1   O7    2.012706 S    
N1    C11   1.422018 S    
C41   C42   1.393547 A    
C37   H11   1.083700 S    
C38   H12   1.076456 S    
C21   C22   1.386184 A    
C48   C49   1.366328 A    
C40   H16   1.076457 S    
C15   C37   1.394253 A    
C23   C24   1.408242 A    
N5    C59   1.446827 S    
O7    C4    1.296044 A    
C43   C44   1.401838 A    
C5    C13   1.399107 A    
C7    H10   1.082877 S    
C39   H14   1.083688 S    
C18   C21   1.415341 A    
N6    H30   1.032109 S    
C5    N1    1.364291 A    
C19   C20   1.420491 A    
C17   C29   1.402489 A    
C8    H9    1.083196 S    
O5    C3    1.286788 A    
C60   H31   1.110471 S    
C53   H24   1.083403 S    
C30   H13   1.083382 S    
Zn2   N3    2.016241 S    
C22   H6    1.083665 S    
C2    C16   1.457694 S    
C57   C58   1.421771 A    
C37   C40   1.385614 A    
N6    C60   1.448341 S    
C51   C52   1.400430 A    
H17   C48   1.083883 S    
C12   C34   1.416944 A    
C14   H3    1.083693 S    
C55   N4    1.375007 A    
N5    H26   1.032042 S    
C41   C46   1.417641 A    
O3    Zn1   2.010335 S    
C19   C38   1.415292 A    
C59   H27   1.108711 S    
C45   C46   1.396805 A    
C33   C36   1.415553 A    
C41   H18   1.079686 S    
C42   C43   1.389186 A    
C34   C35   1.420654 A    
C58   N7    1.418381 S    
C12   C13   1.408871 A    
O3    C2    1.295434 A    
C21   H7    1.076447 S    
C52   C53   1.391476 A    
C43   H20   1.083008 S    
C27   O10   1.350105 S    
C8    C16   1.403640 A    
C33   C34   1.420577 A    
C18   C33   1.417250 A    
C9    H1    1.083017 S    
C51   C56   1.410434 A    
O1    C1    1.282553 A    
C20   C24   1.417057 A    
C22   C23   1.394645 A    
C31   C32   1.398423 A    
Zn2   O8    2.010332 S    
C55   C56   1.428170 A    
C3    C50   1.436898 S    
C53   C54   1.389535 A    
N1    C6    1.364439 A    
N2    C32   1.425325 S    
C42   H19   1.082873 S    
C54   C55   1.407832 A    
C60   H33   1.108964 S    
C31   H15   1.082948 S    
C45   C50   1.414676 A    
C35   C40   1.415264 A    
C25   C26   1.398467 A    
C9    C16   1.403986 A    
O8    C4    1.294166 A    
C29   H4    1.081800 S    
N3    C57   1.362685 A    
C25   C39   1.394426 A    
C1    C47   1.439521 S    
C47   C48   1.398528 A    
N2    C27   1.365724 A    
C14   C36   1.386350 A    
C24   C25   1.408300 A    
C28   C29   1.389016 A    
C49   C50   1.394494 A    
Zn1   O5    1.987803 S    
C30   C31   1.389059 A    
C10   H2    1.082878 S    
O1    Zn1   1.994393 S    
C17   C30   1.403442 A    
C52   N6    1.427847 S    
O2    Zn2   1.987801 S    
C6    C15   1.398043 A    
C4    C17   1.457741 S    
C44   C45   1.426919 A    
O6    C3    1.293439 A    
O4    Zn2   2.012708 S    
N7    C61   1.446430 S    
C36   H8    1.076444 S    
N7    H34   1.030818 S    
C26   O12   1.350198 S    
C19   C35   1.416626 A    
C61   H37   1.109908 S    
C38   C39   1.385685 A    
O2    C1    1.298798 A    
C13   C14   1.394427 A    
C23   C27   1.398962 A    
C28   H5    1.082928 S    
O4    C2    1.294924 A    
C58   N4    1.370279 A    
C18   C20   1.420709 A    
C61   H36   1.110194 S    
C54   H25   1.062973 S    
C60   H32   1.111535 S    
H22   C57   1.081773 S    
C28   C32   1.398335 A    
C6    O11   1.350270 S    
Zn2   O6    1.994393 S    
C46   C47   1.423005 A    
Zn1   N4    2.015599 S    
C44   N5    1.425999 S    
C10   C11   1.396820 A    
C51   H23   1.058891 S    
C9    C10   1.388830 A    
C59   H29   1.111636 S    
C5    O9    1.350072 S    
