data_mof_unit_22621.cif
_audit_creation_date              2012-12-10T17:01:39-0500
_audit_creation_method            fapswitch 2.2
_symmetry_space_group_name_H-M    P1
_symmetry_Int_Tables_number       1
_space_group_crystal_system       triclinic
_cell_length_a                    9.837842
_cell_length_b                    11.026695
_cell_length_c                    12.975288
_cell_angle_alpha                 89.937936
_cell_angle_beta                  75.803114
_cell_angle_gamma                 111.010046
_cell_volume                      1267.66072278

loop_
_atom_site_label
_atom_site_type_symbol
_atom_type_description
_atom_site_fract_x
_atom_site_fract_y
_atom_site_fract_z
_atom_type_partial_charge
C1    C     C_R   0.439630 0.253938 0.507681 0.899114
C2    C     C_R   0.560370 0.746062 0.492319 0.899061
C3    C     C_2   0.082908 0.511375 0.491355 -0.074901
C4    C     C_2   0.917092 0.488626 0.508646 -0.074902
C5    C     C_R   0.471859 0.488792 0.702642 0.856729
C6    C     C_R   0.528142 0.511210 0.297358 0.856689
C7    C     C_R   0.545329 0.527429 0.182846 -0.171565
C8    C     C_R   0.454672 0.472560 0.817153 -0.171541
C9    C     C_R   0.312113 0.373760 0.997375 0.201565
C10   C     C_R   0.687922 0.626162 0.002614 0.201565
C11   C     C_R   0.323647 0.381024 0.887185 -0.045508
C12   C     C_R   0.676383 0.618917 0.112805 -0.045439
C13   C     C_R   0.573209 0.552250 0.855739 -0.267902
C14   C     C_R   0.426784 0.447748 0.144262 -0.267875
C15   C     C_R   0.566222 0.544547 0.964172 0.063946
C16   C     C_R   0.433787 0.455417 0.035825 0.063989
C17   C     C_2   0.405505 0.114503 0.512208 -0.323683
C18   C     C_2   0.594495 0.885497 0.487792 -0.323670
C19   C     C_2   0.516903 0.069613 0.497829 -0.146566
C20   C     C_2   0.483097 0.930387 0.502172 -0.146584
Cu1   Cu    Cu3+1 0.647370 0.522180 0.481340 0.967360
Cu2   Cu    Cu3+1 0.352630 0.477820 0.518660 0.967352
H1    H     H_    0.329855 0.377611 0.200547 0.167506
H2    H     H_    0.670116 0.622421 0.799461 0.167512
H3    H     H_    0.365976 0.864243 0.517318 0.179203
H4    H     H_    0.634024 0.135757 0.482682 0.179205
H5    H     H_    0.711434 0.951908 0.472614 0.145490
H6    H     H_    0.288566 0.048092 0.527385 0.145472
H7    H     H_    0.835021 0.413396 0.570028 0.165943
H8    H     H_    0.164980 0.586606 0.429973 0.165946
H9    H     H_    0.949321 0.626943 0.396042 0.204068
H10   H     H_    0.050679 0.373056 0.603957 0.204064
N1    N     N_2   0.131210 0.444490 0.546730 -0.284810
N2    N     N_2   0.868790 0.555510 0.453270 -0.284806
O1    O     O_R   0.578710 0.332530 0.490040 -0.585886
O2    O     O_R   0.421290 0.667470 0.509960 -0.585890
O3    O     O_R   0.329810 0.295070 0.521560 -0.568089
O4    O     O_R   0.670190 0.704930 0.478440 -0.568095
O5    O     O_R   0.604230 0.515670 0.637800 -0.587876
O6    O     O_R   0.395770 0.484330 0.362200 -0.587878
O7    O     O_R   0.355330 0.478200 0.669330 -0.560553
O8    O     O_R   0.644670 0.521800 0.330670 -0.560552
C21   C     C_2   0.799117 0.711137 0.153822 0.883050
O9    O     O_2   0.930682 0.725900 0.112807 -0.569813
O10   O     O_R   0.763982 0.782795 0.238177 -0.779549
H11   H     H_    0.856828 0.842682 0.258666 0.321136
C22   C     C_2   0.200945 0.288757 0.846160 0.883100
O11   O     O_2   0.069355 0.273884 0.887208 -0.569817
O12   O     O_R   0.236146 0.217181 0.761760 -0.779564
H12   H     H_    0.143320 0.157241 0.741281 0.321139
N3    N     N_2   0.178133 0.282919 0.067918 -0.409185
H13   H     H_    0.132824 0.319224 0.135366 0.256841
C23   C     C_3   0.181661 0.155012 0.087488 -0.627441
H14   H     H_    0.268357 0.161242 0.130432 0.211180
H15   H     H_    0.207094 0.112340 0.010925 0.246717
H16   H     H_    0.069660 0.089202 0.137131 0.233415
N4    N     N_2   0.821970 0.716885 0.932049 -0.409192
H17   H     H_    0.867164 0.680518 0.864596 0.256834
C24   C     C_3   0.818682 0.844876 0.912480 -0.627319
H18   H     H_    0.731855 0.838787 0.869697 0.211163
H19   H     H_    0.930651 0.910520 0.862678 0.233323
H20   H     H_    0.793599 0.887670 0.989030 0.246771

loop_
_geom_bond_atom_site_label_1
_geom_bond_atom_site_label_2
_ccdc_geom_bond_type
C14   H1    S    
C3    H8    S    
C21   O9    D    
C19   H4    S    
C8    C13   A    
Cu1   O1    S    
C14   C16   A    
C2    C18   S    
C21   O10   S    
C6    O6    A    
C2    O4    A    
C11   C22   S    
C19   C20   S    
C9    N3    S    
C1    O3    A    
Cu2   O6    S    
H10   N1    S    
C23   H15   S    
H9    N2    S    
C24   H18   S    
C22   O12   S    
C23   H14   S    
Cu2   O3    S    
C9    C11   A    
N4    H17   S    
C6    C7    S    
C10   C12   A    
C8    C11   A    
C17   C19   D    
C9    C16   A    
C12   C21   S    
C18   C20   D    
C10   C15   A    
C13   C15   A    
C6    O8    A    
C7    C12   A    
C4    N2    D    
N4    C24   S    
Cu2   O7    S    
C24   H19   S    
C15   C16   A    
C3    N1    D    
N3    H13   S    
C22   O11   D    
O10   H11   S    
C10   N4    S    
Cu2   O2    S    
C1    O1    A    
O12   H12   S    
C20   H3    S    
C23   H16   S    
C2    O2    A    
Cu2   N1    S    
C5    O5    A    
C5    C8    S    
Cu1   O4    S    
C24   H20   S    
C5    O7    A    
Cu1   O8    S    
Cu1   Cu2   S    
C17   H6    S    
C1    C17   S    
Cu1   N2    S    
C7    C14   A    
C18   H5    S    
C3    C4    S    
C13   H2    S    
C4    H7    S    
N3    C23   S    
Cu1   O5    S    
