data_mof_unit_51414.cif
_audit_creation_date              2013-03-05T16:22:59-0500
_audit_creation_method            fapswitch 2.2
_symmetry_space_group_name_H-M    P1
_symmetry_Int_Tables_number       1
_space_group_crystal_system       triclinic
_cell_length_a                    23.481365
_cell_length_b                    10.610046
_cell_length_c                    9.799385
_cell_angle_alpha                 89.623622
_cell_angle_beta                  90.0596
_cell_angle_gamma                 90.404535
_cell_volume                      2441.28800308

loop_
_atom_site_label
_atom_site_type_symbol
_atom_site_description
_atom_site_fract_x
_atom_site_fract_y
_atom_site_fract_z
_atom_type_partial_charge
O1    O     O_R   0.500000 0.313960 0.616610 -0.607046
O2    O     O_R   0.500000 0.686040 0.383390 -0.584399
O3    O     O_R   0.500030 0.313950 0.383350 -0.632117
O4    O     O_R   0.499970 0.686050 0.616650 -0.626335
C1    C     C_R   0.499358 0.258007 0.500833 0.906181
C2    C     C_R   0.499472 0.742011 0.499307 0.970458
O5    O     O_R   0.416140 0.499970 0.616650 -0.594145
O6    O     O_R   0.583860 0.500030 0.383350 -0.645067
O7    O     O_R   0.416170 0.499960 0.383400 -0.600324
O8    O     O_R   0.583830 0.500040 0.616600 -0.553332
C3    C     C_R   0.389631 0.500476 0.499968 0.900264
C4    C     C_R   0.610510 0.501476 0.499788 0.851757
Zn1   Zn    Zn3+2 0.499980 0.500010 0.655740 1.034366
Zn2   Zn    Zn3+2 0.500020 0.499990 0.344260 1.021592
C5    C     C_R   0.881532 0.634942 0.484107 0.518972
C6    C     C_R   0.116850 0.393572 0.522734 0.565591
N1    N     N_R   0.851965 0.530879 0.525184 -0.343934
N2    N     N_R   0.147344 0.502701 0.509424 -0.324615
C7    C     C_R   0.878048 0.424477 0.569908 0.538192
C8    C     C_R   0.121477 0.616971 0.501049 0.612076
C9    C     C_R   0.937268 0.411501 0.554488 -0.092205
C10   C     C_R   0.061781 0.624989 0.490340 -0.101346
C11   C     C_R   0.969403 0.520656 0.518798 0.004262
C12   C     C_R   0.029292 0.514041 0.512590 -0.013326
C13   C     C_R   0.941565 0.636437 0.490469 -0.087725
C14   C     C_R   0.056725 0.396058 0.526069 -0.058464
C15   C     C_R   0.964681 0.293277 0.568044 -0.064750
C16   C     C_R   0.034061 0.739536 0.457576 -0.113160
C17   C     C_R   0.023495 0.284856 0.542452 -0.035901
C18   C     C_R   0.974163 0.746666 0.461375 -0.030182
O9    O     O_2   0.852421 0.733861 0.433226 -0.526135
O10   O     O_2   0.145139 0.284028 0.536386 -0.513239
O11   O     O_2   0.845986 0.332114 0.626708 -0.517450
O12   O     O_2   0.154035 0.722107 0.506931 -0.528505
C19   C     C_R   0.237227 0.553615 0.392556 0.528622
C20   C     C_R   0.765742 0.462720 0.402090 0.522359
C21   C     C_R   0.296903 0.569426 0.399123 -0.226241
C22   C     C_R   0.706030 0.452060 0.397365 -0.159868
C23   C     C_R   0.327349 0.500109 0.499750 -0.262725
C24   C     C_R   0.672902 0.512250 0.499415 -0.322090
C25   C     C_R   0.297417 0.432082 0.602492 0.447948
C26   C     C_R   0.700194 0.585690 0.601390 0.455054
C27   C     C_R   0.238741 0.441699 0.609495 -0.152726
C28   C     C_R   0.758989 0.589203 0.608105 -0.090109
H1    H     H_    0.216311 0.398361 0.694408 0.210818
H2    H     H_    0.779810 0.641531 0.688857 0.200837
C29   C     C_R   0.208372 0.498646 0.503648 0.127723
C30   C     C_R   0.791588 0.528789 0.510636 0.058800
C31   C     C_3   0.494891 0.038098 0.631293 -0.148355
C32   C     C_3   0.501608 0.962244 0.369714 -0.133893
C33   C     C_3   0.542494 0.957611 0.570241 0.417706
C34   C     C_3   0.454046 0.042868 0.431092 0.324507
C35   C     C_3   0.497850 0.876409 0.497346 -0.141062
C36   C     C_3   0.498846 0.123598 0.503645 -0.207709
C37   C     C_3   0.449742 0.956927 0.557578 -0.191054
C38   C     C_3   0.546808 0.043093 0.443579 -0.148981
C39   C     C_3   0.481902 0.393697 0.047902 -0.130946
C40   C     C_3   0.518159 0.606179 0.951970 -0.144199
C41   C     C_3   0.532168 0.414161 0.953117 0.454315
C42   C     C_3   0.467896 0.585879 0.046747 0.485306
N3    N     N_3   0.499960 0.500030 0.863290 -0.139751
N4    N     N_3   0.500040 0.499970 0.136710 -0.131816
C43   C     C_3   0.448729 0.480478 0.950692 -0.188630
C44   C     C_3   0.551296 0.519516 0.049267 -0.152009
H3    H     H_    0.405929 0.465365 0.905181 0.212567
H4    H     H_    0.594091 0.534777 0.094760 0.200009
C45   C     C_2   0.931682 0.175252 0.592628 0.488660
H5    H     H_    0.896180 0.150829 0.526673 0.130577
O13   O     O_2   0.943642 0.105771 0.688076 -0.557357
C46   C     C_2   0.067317 0.851027 0.412505 0.651790
H6    H     H_    0.090276 0.906908 0.486858 0.086244
O14   O     O_2   0.070562 0.877809 0.291411 -0.424664
O15   O     O_3   0.566858 0.321399 0.897139 -0.685108
H7    H     H_    0.585132 0.279190 0.976212 0.354897
O16   O     O_3   0.433557 0.679404 0.102338 -0.758889
H8    H     H_    0.415892 0.722642 0.023132 0.326352
C47   C     C_2   0.462474 0.268917 0.102740 0.545318
H9    H     H_    0.492711 0.206565 0.151853 0.077963
O17   O     O_2   0.412994 0.235427 0.089292 -0.526103
C48   C     C_2   0.537653 0.730412 0.896188 0.643367
H10   H     H_    0.507402 0.792419 0.846732 0.071842
O18   O     O_2   0.587157 0.763822 0.909249 -0.432034
C49   C     C_2   0.047548 0.158896 0.514941 0.549010
H11   H     H_    0.042972 0.083020 0.588785 0.056859
O19   O     O_2   0.070684 0.138635 0.405810 -0.474224
C50   C     C_2   0.946483 0.872074 0.448471 0.479247
H12   H     H_    0.915294 0.900405 0.523644 0.118197
O20   O     O_2   0.957078 0.942861 0.352984 -0.501162
O21   O     O_3   0.205553 0.594116 0.282247 -0.673401
H13   H     H_    0.228127 0.578605 0.198730 0.373550
O22   O     O_3   0.797671 0.403501 0.302912 -0.667507
H14   H     H_    0.837743 0.432575 0.307031 0.341293
C51   C     C_2   0.325943 0.670003 0.316005 0.557023
H15   H     H_    0.369990 0.695120 0.334992 0.113085
O23   O     O_2   0.300504 0.732411 0.230813 -0.519373
C52   C     C_2   0.679099 0.374736 0.287904 0.579980
H16   H     H_    0.638660 0.328058 0.304827 0.035320
O24   O     O_2   0.701493 0.363206 0.176316 -0.453757
O25   O     O_3   0.323695 0.356458 0.698435 -0.724510
H17   H     H_    0.357241 0.316925 0.655510 0.336883
O26   O     O_3   0.671150 0.656923 0.695290 -0.657573
H18   H     H_    0.636449 0.689995 0.650856 0.380578
O27   O     O_3   0.589034 0.909123 0.641828 -0.720540
H19   H     H_    0.610785 0.983614 0.673983 0.377895
O28   O     O_3   0.407623 0.092416 0.359742 -0.719641
H20   H     H_    0.386198 0.018278 0.325447 0.354232
C53   C     C_2   0.490103 0.080290 0.776582 0.483516
H21   H     H_    0.454308 0.137580 0.807242 0.077272
O29   O     O_2   0.525996 0.050519 0.860663 -0.526017
C54   C     C_2   0.503666 0.922298 0.223550 0.584709
H22   H     H_    0.468876 0.945020 0.155010 0.063465
O30   O     O_2   0.544315 0.863268 0.181308 -0.474911
C55   C     C_2   0.394539 0.912728 0.618545 0.406315
H23   H     H_    0.364535 0.981357 0.656459 0.114496
O31   O     O_2   0.382994 0.800628 0.625825 -0.581370
C56   C     C_2   0.602133 0.092723 0.389037 0.467071
H24   H     H_    0.630764 0.143612 0.456259 0.035436
O32   O     O_2   0.615378 0.076058 0.270221 -0.488721

loop_
_geom_bond_atom_site_label_1
_geom_bond_atom_site_label_2
_geom_bond_distance
_ccdc_geom_bond_type
C43   H3    1.110116 S    
C51   H15   1.082486 S    
C15   C17   1.407450 A    
C53   O29   1.219786 D    
O15   H7    0.991247 S    
C35   C37   1.541408 S    
N1    C30   1.424775 S    
O7    Zn2   2.006309 S    
C19   C29   1.404270 A    
N2    C29   1.435173 S    
C39   N4    1.488453 S    
C31   C53   1.499832 S    
C47   H9    1.084026 S    
O5    C3    1.301300 A    
C41   C44   1.531303 S    
O26   H18   0.988921 S    
C42   C43   1.531352 S    
O1    C1    1.283955 A    
C7    C9    1.406735 A    
C12   C14   1.417199 A    
C17   C49   1.481030 S    
C50   O20   1.220717 D    
C39   C41   1.516254 S    
C33   O27   1.397376 S    
C31   C36   1.542849 S    
Zn2   N4    2.033863 S    
C32   C54   1.497305 S    
C56   H24   1.084464 S    
C42   N4    1.474952 S    
C33   C38   1.535463 S    
O4    Zn1   2.008248 S    
N3    C43   1.489983 S    
C54   H22   1.084486 S    
N4    C44   1.490668 S    
C49   H11   1.083774 S    
C34   C36   1.529548 S    
C31   C33   1.535654 S    
C52   O24   1.221096 D    
C32   C34   1.537025 S    
C11   C12   1.409917 A    
C25   O25   1.379981 S    
C46   H6    1.083230 S    
C18   C50   1.489549 S    
C41   O15   1.397291 S    
C34   C37   1.536913 S    
C40   C48   1.492756 S    
C8    O12   1.349393 S    
C40   N3    1.487110 S    
C24   C26   1.420668 A    
C9    C15   1.419312 A    
C51   O23   1.220446 D    
C10   C16   1.417547 A    
C6    C14   1.412661 A    
C25   C27   1.384102 A    
O2    C2    1.285345 A    
C26   C28   1.382321 A    
C28   H2    1.083800 S    
C39   C43   1.535922 S    
C47   O17   1.219854 D    
C40   C44   1.535264 S    
C36   C38   1.538176 S    
C41   N3    1.474676 S    
C32   C35   1.544545 S    
C45   H5    1.085283 S    
C39   C47   1.494086 S    
C1    C36   1.426140 S    
C15   C45   1.486365 S    
C23   C25   1.418926 A    
C7    O11   1.349167 S    
O22   H14   0.989012 S    
C50   H12   1.084652 S    
C37   C55   1.498821 S    
C31   C37   1.543085 S    
C32   C38   1.542708 S    
C45   O13   1.220862 D    
C44   H4    1.110172 S    
C4    C24   1.468706 S    
O16   H8    0.991099 S    
C27   H1    1.083358 S    
O25   H17   0.990458 S    
O6    C4    1.300909 A    
C52   H16   1.080311 S    
C38   C56   1.496219 S    
C21   C51   1.498870 S    
C3    C23   1.462441 S    
O7    C3    1.301850 A    
O3    Zn2   2.008248 S    
O8    C4    1.305423 A    
C19   O21   1.379506 S    
C20   O22   1.384781 S    
O4    C2    1.290747 A    
C49   O19   1.221012 D    
C8    C10   1.408687 A    
C34   O28   1.398271 S    
C9    C11   1.419817 A    
C10   C12   1.414044 A    
O1    Zn1   2.013372 S    
C53   H21   1.084603 S    
C26   O26   1.378680 S    
C55   H23   1.084424 S    
C13   C18   1.420713 A    
C5    N1    1.359058 A    
O6    Zn2   2.005205 S    
C19   C21   1.411555 A    
C16   C46   1.478164 S    
C48   H10   1.083493 S    
O3    C1    1.291853 A    
O8    Zn1   2.006311 S    
C5    O9    1.349054 S    
C6    O10   1.348581 S    
O28   H20   0.991133 S    
C42   O16   1.396761 S    
C16   C18   1.409603 A    
C21   C23   1.421545 A    
C22   C24   1.424796 A    
C27   C29   1.394898 A    
C20   C22   1.406604 A    
N1    C7    1.358066 A    
C48   O18   1.219716 D    
C56   O32   1.219793 D    
C20   C30   1.411950 A    
N2    C8    1.361829 A    
C11   C13   1.421240 A    
O2    Zn2   2.013371 S    
C54   O30   1.219576 D    
C5    C13   1.410940 A    
O5    Zn1   2.005202 S    
Zn1   N3    2.033864 S    
C14   C17   1.418253 A    
C6    N2    1.362677 A    
C22   C52   1.492109 S    
O27   H19   0.990974 S    
C46   O14   1.220709 D    
C2    C35   1.426743 S    
C33   C35   1.531417 S    
O21   H13   0.990846 S    
C40   C42   1.515905 S    
C28   C30   1.387663 A    
C55   O31   1.219668 D    
