data_mof_unit_43452.cif
_audit_creation_date              2012-12-10T19:11:32-0500
_audit_creation_method            fapswitch 2.2
_symmetry_space_group_name_H-M    P1
_symmetry_Int_Tables_number       1
_space_group_crystal_system       triclinic
_cell_length_a                    10.629055
_cell_length_b                    9.759353
_cell_length_c                    10.488255
_cell_angle_alpha                 89.670855
_cell_angle_beta                  89.07022
_cell_angle_gamma                 89.93312
_cell_volume                      1087.81317994

loop_
_atom_site_label
_atom_site_type_symbol
_atom_type_description
_atom_site_fract_x
_atom_site_fract_y
_atom_site_fract_z
_atom_type_partial_charge
C1    C     C_R   0.257854 0.500323 0.502327 0.819985
C2    C     C_3   0.500010 0.501668 0.122271 0.023872
C3    C     C_3   0.071337 0.649829 0.520882 -0.399068
C4    C     C_3   0.070651 0.411448 0.615429 -0.396452
C5    C     C_3   0.928446 0.649726 0.520371 -0.388214
C6    C     C_3   0.926143 0.411725 0.615499 -0.410378
C7    C     C_3   0.074870 0.444168 0.375517 -0.421318
C8    C     C_3   0.121532 0.501379 0.503667 0.193857
C9    C     C_3   0.878980 0.501197 0.503367 0.165352
C10   C     C_3   0.930611 0.443364 0.375678 -0.375690
C11   C     C_3   0.404444 0.081521 0.409634 -0.242533
C12   C     C_3   0.404608 0.919781 0.409471 -0.243999
C13   C     C_3   0.624974 0.081398 0.457714 0.223085
C14   C     C_3   0.625018 0.918515 0.457870 0.219411
C15   C     C_3   0.470052 0.080232 0.625663 -0.338974
C16   C     C_3   0.469909 0.918383 0.625641 -0.332351
C17   C     C_R   0.500001 0.500510 0.257288 0.908753
C18   C     C_R   0.742457 0.500219 0.501749 0.863292
C19   C     C_R   0.500169 0.499513 0.742599 0.857731
C20   C     C_3   0.495390 0.630920 0.039361 -0.113765
C21   C     C_3   0.398894 0.431281 0.044435 -0.192114
C22   C     C_3   0.394313 0.560340 0.958792 -0.206662
C23   C     C_3   0.500222 0.498482 0.877612 0.013711
C24   C     C_3   0.601311 0.568916 0.955438 -0.180111
C25   C     C_3   0.504831 0.369247 0.960525 -0.121169
C26   C     C_3   0.605926 0.439877 0.041054 -0.143634
H1    H     H_    0.308358 0.609058 0.920238 0.128204
H2    H     H_    0.896022 0.505781 0.294200 0.177116
H3    H     H_    0.897612 0.336532 0.362399 0.216020
H4    H     H_    0.421156 0.120384 0.311086 0.194617
H5    H     H_    0.421697 0.882298 0.310907 0.188117
H6    H     H_    0.309173 0.118827 0.438029 0.146408
H7    H     H_    0.309361 0.882142 0.437565 0.145626
H8    H     H_    0.539811 0.117143 0.695495 0.156993
H9    H     H_    0.539471 0.880379 0.695654 0.162960
H10   H     H_    0.376824 0.118612 0.659607 0.173912
H11   H     H_    0.376539 0.880036 0.659398 0.173590
H12   H     H_    0.695972 0.115027 0.527812 0.077680
H13   H     H_    0.695756 0.884203 0.528380 0.075290
H14   H     H_    0.491318 0.737595 0.075429 0.168298
H15   H     H_    0.316654 0.375608 0.085744 0.128971
H16   H     H_    0.683577 0.624621 0.914236 0.135699
H17   H     H_    0.508701 0.262582 0.924383 0.142245
H18   H     H_    0.692250 0.391626 0.079174 0.167190
H19   H     H_    0.106668 0.717356 0.442140 0.177925
H20   H     H_    0.105136 0.304156 0.605947 0.175683
H21   H     H_    0.104351 0.693283 0.612445 0.165913
H22   H     H_    0.104587 0.451420 0.707944 0.151707
H23   H     H_    0.891681 0.693868 0.611351 0.163120
H24   H     H_    0.889331 0.452402 0.707814 0.153030
H25   H     H_    0.896570 0.716662 0.441036 0.219582
H26   H     H_    0.891797 0.304519 0.606590 0.181825
H27   H     H_    0.110909 0.508329 0.294753 0.157949
H28   H     H_    0.110516 0.338012 0.360598 0.174896
N1    N     N_3   0.499750 0.138610 0.497240 -0.065387
N2    N     N_3   0.499750 0.861390 0.497240 -0.065825
O1    O     O_R   0.314910 0.616040 0.499970 -0.638295
O2    O     O_R   0.314910 0.383960 0.499970 -0.636771
O3    O     O_R   0.500080 0.616020 0.313900 -0.592684
O4    O     O_R   0.500080 0.383980 0.313900 -0.585314
O5    O     O_R   0.685320 0.616040 0.499930 -0.607145
O6    O     O_R   0.685320 0.383960 0.499930 -0.605779
O7    O     O_R   0.500150 0.616060 0.686000 -0.632470
O8    O     O_R   0.500150 0.383940 0.686000 -0.637985
Zn1   Zn    Zn3+2 0.500150 0.654960 0.499940 0.934943
Zn2   Zn    Zn3+2 0.500150 0.345040 0.499940 0.935868
Br1   Br    Br    0.686326 0.162598 0.296727 -0.536724
Br2   Br    Br    0.686970 0.837814 0.297348 -0.529618

loop_
_geom_bond_atom_site_label_1
_geom_bond_atom_site_label_2
_ccdc_geom_bond_type
C7    C10   S    
C19   C23   S    
C23   C24   S    
O7    Zn1   S    
C18   O5    A    
C5    C9    S    
C1    O1    A    
C1    C8    S    
C24   H16   S    
C9    C10   S    
C16   H11   S    
C15   H8    S    
C14   N2    S    
C4    C8    S    
C19   O8    A    
C11   C12   S    
O1    Zn1   S    
C20   C24   S    
C25   H17   S    
C2    C21   S    
C16   N2    S    
C25   C26   S    
C26   H18   S    
C7    C8    S    
C2    C26   S    
C15   N1    S    
C4    H20   S    
C21   C22   S    
O3    Zn1   S    
C2    C17   S    
C10   H3    S    
C5    H23   S    
C13   H12   S    
C12   N2    S    
C1    O2    A    
C9    C18   S    
C17   O3    A    
C21   H15   S    
C5    H25   S    
C3    H21   S    
C16   H9    S    
C24   C26   S    
C11   H6    S    
C3    H19   S    
C14   Br2   S    
C22   H1    S    
C23   C25   S    
C12   H5    S    
C4    H22   S    
C14   H13   S    
C20   H14   S    
C13   N1    S    
C20   C22   S    
C17   O4    A    
O4    Zn2   S    
C15   C16   S    
O5    Zn1   S    
C15   H10   S    
C6    C9    S    
C11   N1    S    
C4    C6    S    
C3    C8    S    
C13   Br1   S    
C10   H2    S    
O6    Zn2   S    
C7    H27   S    
C22   C23   S    
C18   O6    A    
C21   C25   S    
C7    H28   S    
C6    H26   S    
C12   H7    S    
C13   C14   S    
C2    C20   S    
O2    Zn2   S    
C6    H24   S    
N2    Zn1   S    
C11   H4    S    
C19   O7    A    
N1    Zn2   S    
C3    C5    S    
O8    Zn2   S    
