data_mof_unit_13029.cif
_audit_creation_date              2012-12-11T17:02:19-0500
_audit_creation_method            fapswitch 2.2
_symmetry_space_group_name_H-M    P1
_symmetry_Int_Tables_number       1
_space_group_crystal_system       triclinic
_cell_length_a                    21.706263
_cell_length_b                    7.057668
_cell_length_c                    14.963734
_cell_angle_alpha                 89.999647
_cell_angle_beta                  107.235784
_cell_angle_gamma                 89.998954
_cell_volume                      2189.43547516

loop_
_atom_site_label
_atom_site_type_symbol
_atom_type_description
_atom_site_fract_x
_atom_site_fract_y
_atom_site_fract_z
_atom_type_partial_charge
O1    O     O_R   0.585850 0.505770 0.002130 -0.558777
O2    O     O_R   0.414150 0.005770 0.997870 -0.558736
O3    O     O_R   0.467530 0.173560 0.861970 -0.557587
O4    O     O_R   0.532470 0.673560 0.138030 -0.557560
C1    C     C_R   0.457939 0.344389 0.824746 0.747183
C2    C     C_R   0.542058 0.844383 0.175255 0.747253
O5    O     O_R   0.588690 0.175900 0.993250 -0.517333
O6    O     O_R   0.411310 0.675900 0.006750 -0.517311
O7    O     O_R   0.536170 0.007950 0.130090 -0.519443
O8    O     O_R   0.463830 0.507950 0.869910 -0.519524
C3    C     C_R   0.615478 0.344717 0.999069 0.698202
C4    C     C_R   0.384523 0.844720 0.000935 0.698195
O9    O     O_3   0.482630 0.339970 0.044740 -0.374681
O10   O     O_3   0.517370 0.839970 0.955260 -0.374799
V1    V     V_3+5 0.503220 0.064200 0.991700 1.538243
V2    V     V_3+5 0.496780 0.564200 0.008300 1.538258
C5    C     C_R   0.273734 0.000229 0.952031 0.062017
C6    C     C_R   0.726266 0.500216 0.047985 0.061871
C7    C     C_R   0.314935 0.851895 0.996367 -0.106742
C8    C     C_R   0.685066 0.351888 0.003644 -0.106836
C9    C     C_R   0.286221 0.702216 0.032635 -0.053180
C10   C     C_R   0.713782 0.202216 0.967371 -0.052753
H1    H     H_    0.314723 0.580964 0.064707 0.125277
H2    H     H_    0.685282 0.080966 0.935299 0.125147
C11   C     C_R   0.221196 0.712227 0.032832 -0.146738
C12   C     C_R   0.778807 0.212235 0.967172 -0.146430
H3    H     H_    0.201626 0.597317 0.063856 0.120056
H4    H     H_    0.798377 0.097330 0.936144 0.120035
C13   C     C_R   0.183359 0.874403 0.998956 -0.094362
C14   C     C_R   0.816641 0.374409 0.001049 -0.094367
C15   C     C_R   0.211123 0.013650 0.957668 0.081505
C16   C     C_R   0.788877 0.513644 0.042347 0.081464
C17   C     C_3   0.214506 0.221869 0.971662 -0.438586
C18   C     C_3   0.785491 0.721869 0.028369 -0.438578
C19   C     C_3   0.281217 0.210953 0.957291 0.278799
C20   C     C_3   0.718781 0.710942 0.042740 0.278836
H5    H     H_    0.216689 0.260103 0.044618 0.131401
H6    H     H_    0.783308 0.760132 0.955416 0.131315
H7    H     H_    0.176268 0.297056 0.917508 0.231578
H8    H     H_    0.823728 0.797041 0.082529 0.231575
H9    H     H_    0.321340 0.258644 0.018324 0.072368
H10   H     H_    0.678657 0.758651 0.981712 0.072092
C21   C     C_R   0.925148 0.893050 0.723440 -0.097424
C22   C     C_R   0.074864 0.393063 0.276555 -0.097405
C23   C     C_R   0.565407 0.845714 0.278113 -0.052256
C24   C     C_R   0.434588 0.345782 0.721890 -0.051936
C25   C     C_R   0.926905 0.020110 0.574209 0.329993
C26   C     C_R   0.073102 0.520112 0.425784 0.329983
C27   C     C_R   0.958623 0.974400 0.666822 -0.137460
C28   C     C_R   0.041384 0.474363 0.333178 -0.137443
C29   C     C_R   0.859585 0.850800 0.686529 -0.203474
C30   C     C_R   0.140440 0.350958 0.313445 -0.203589
C31   C     C_R   0.825301 0.895678 0.592477 0.081839
C32   C     C_R   0.174737 0.395966 0.407476 0.081801
C33   C     C_R   0.859966 0.986289 0.537148 0.034446
C34   C     C_R   0.140050 0.486403 0.462830 0.034412
C35   C     C_R   0.757604 0.858624 0.552588 0.009839
C36   C     C_R   0.242457 0.359164 0.447332 0.009824
C37   C     C_R   0.725145 0.921159 0.459870 0.053851
C38   C     C_R   0.274885 0.421496 0.540097 0.053590
C39   C     C_R   0.761249 0.019006 0.410003 -0.077084
C40   C     C_R   0.238752 0.519109 0.589999 -0.077229
C41   C     C_R   0.826972 0.046869 0.446950 -0.090761
C42   C     C_R   0.173027 0.546913 0.553045 -0.090761
C43   C     C_R   0.721934 0.757044 0.601767 -0.255620
C44   C     C_R   0.278199 0.258151 0.398055 -0.256059
C45   C     C_R   0.656990 0.711275 0.562021 0.447491
C46   C     C_R   0.343160 0.212543 0.437789 0.447192
C47   C     C_R   0.625328 0.764639 0.468743 -0.020642
C48   C     C_R   0.374756 0.265388 0.531163 -0.020034
C49   C     C_R   0.658539 0.875702 0.418050 0.032128
C50   C     C_R   0.341495 0.376088 0.581922 0.031823
C51   C     C_R   0.561999 0.702170 0.423078 -0.014466
C52   C     C_R   0.438068 0.202787 0.576840 -0.015273
C53   C     C_R   0.533659 0.736311 0.328301 -0.136974
C54   C     C_R   0.466361 0.236575 0.671663 -0.137439
C55   C     C_R   0.624982 0.926089 0.324412 -0.076928
C56   C     C_R   0.375013 0.426187 0.675611 -0.077428
H11   H     H_    0.851433 0.119656 0.403649 0.195507
H12   H     H_    0.148548 0.619551 0.596368 0.195538
H13   H     H_    0.645432 0.016403 0.283163 0.164756
H14   H     H_    0.354536 0.516314 0.716900 0.164888
H15   H     H_    0.487362 0.672710 0.293229 0.126843
H16   H     H_    0.512652 0.172927 0.706727 0.126635
H17   H     H_    0.009162 0.010332 0.696157 0.158639
H18   H     H_    0.990837 0.510216 0.303852 0.158636
H19   H     H_    0.836150 0.796465 0.735344 0.109463
H20   H     H_    0.163857 0.296555 0.264624 0.109419
H21   H     H_    0.740768 0.074334 0.340645 0.179995
H22   H     H_    0.259213 0.574339 0.659380 0.180047
H23   H     H_    0.744254 0.704036 0.671026 0.174659
H24   H     H_    0.255946 0.205575 0.328696 0.174611
H25   H     H_    0.534948 0.616130 0.457835 0.214307
H26   H     H_    0.465137 0.116912 0.542042 0.214059
O11   O     O_R   0.036080 0.231270 0.130120 -0.535096
O12   O     O_R   0.963920 0.731270 0.869880 -0.535085
O13   O     O_R   0.911300 0.558970 0.006750 -0.543738
O14   O     O_R   0.088700 0.058970 0.993250 -0.543745
C57   C     C_R   0.884530 0.389541 0.999800 0.704218
C58   C     C_R   0.115469 0.889538 0.000202 0.704154
O15   O     O_R   0.032450 0.561140 0.138040 -0.541408
O16   O     O_R   0.967550 0.061140 0.861960 -0.541396
O17   O     O_R   0.085870 0.728910 0.002130 -0.541699
O18   O     O_R   0.914130 0.228910 0.997870 -0.541703
C59   C     C_R   0.045272 0.393169 0.175106 0.713156
C60   C     C_R   0.954728 0.893170 0.824893 0.713205
O19   O     O_3   0.017320 0.394650 0.955270 -0.373115
O20   O     O_3   0.982680 0.894650 0.044730 -0.373124
V3    V     V_3+5 0.996780 0.670490 0.008300 1.458826
V4    V     V_3+5 0.003220 0.170490 0.991700 1.458839
S1    S     S_3+6 0.618215 0.575820 0.630153 -0.039718
O21   O     O_2   0.661640 0.550461 0.728491 -0.365896
O22   O     O_2   0.557505 0.674351 0.633378 -0.333896
O23   O     O_3   0.599261 0.361946 0.579753 -0.507584
H27   H     H_    0.597357 0.275772 0.631084 0.359870
S2    S     S_3+6 0.382069 0.078150 0.369456 -0.039774
O24   O     O_2   0.338750 0.053737 0.270986 -0.366421
O25   O     O_2   0.442800 0.177101 0.366647 -0.333373
O26   O     O_3   0.401009 0.863787 0.419318 -0.507794
H28   H     H_    0.402043 0.777623 0.367561 0.359788
Br1   Br    Br    0.977628 0.138032 0.503916 -0.455600
Br2   Br    Br    0.022366 0.637979 0.496077 -0.455603
S3    S     S_3+6 0.282939 0.308081 0.846956 -0.016043
O27   O     O_2   0.217814 0.381785 0.791767 -0.314458
O28   O     O_2   0.329844 0.469423 0.865711 -0.369204
O29   O     O_3   0.305522 0.142660 0.781987 -0.490850
H29   H     H_    0.345799 0.087832 0.823354 0.323951
S4    S     S_3+6 0.717057 0.808036 0.153083 -0.016022
O30   O     O_2   0.782186 0.881681 0.208285 -0.314459
O31   O     O_2   0.670163 0.969414 0.134342 -0.369187
O32   O     O_3   0.694458 0.642609 0.218032 -0.490844
H30   H     H_    0.654204 0.587716 0.176637 0.323953

loop_
_geom_bond_atom_site_label_1
_geom_bond_atom_site_label_2
_ccdc_geom_bond_type
C44   C46   A    
O29   H29   S    
O14   V4    S    
C2    C23   S    
C42   H12   S    
C52   H26   S    
C20   H10   S    
S1    O21   D    
O1    C3    A    
C51   H25   S    
O2    C4    A    
S4    O30   D    
C54   H16   S    
C2    O7    A    
C24   C54   A    
O23   H27   S    
S3    O27   D    
C25   C27   A    
C41   H11   S    
C22   C59   S    
O20   V3    S    
O5    C3    A    
C17   H7    S    
C52   C54   A    
C18   H8    S    
C7    C9    A    
C26   Br2   S    
C25   Br1   S    
C38   C50   A    
C36   C38   A    
S2    O24   D    
C38   C40   A    
C47   C49   A    
C50   C56   A    
O11   C59   A    
S3    O28   D    
C17   C19   S    
C36   C44   A    
C30   C32   A    
C43   C45   A    
C33   C41   A    
C48   C52   A    
C40   C42   A    
C34   C42   A    
C47   C51   A    
C14   C16   A    
C18   C20   S    
C26   C34   A    
C22   C30   A    
O5    V1    S    
C57   O18   A    
O6    V2    S    
C11   C13   A    
C51   C53   A    
C20   S4    S    
O13   C57   A    
C39   H21   S    
C31   C33   A    
O15   C59   A    
C32   C34   A    
C3    C8    S    
C37   C39   A    
O12   C60   A    
C53   H15   S    
C27   H17   S    
C30   H20   S    
O4    C2    A    
S2    O25   D    
C29   H19   S    
C24   C56   A    
C31   C35   A    
C21   C27   A    
S3    O29   S    
C44   H24   S    
C14   C57   S    
C58   O17   A    
C17   H5    S    
C45   C47   A    
C21   C60   S    
C16   C18   S    
O4    V2    S    
O13   V3    S    
C56   H14   S    
C55   H13   S    
O6    C4    A    
C15   C17   S    
S1    O22   D    
O1    V2    S    
O2    V1    S    
O12   V3    S    
C46   S2    S    
C45   S1    S    
C8    C10   A    
C12   C14   A    
O14   C58   A    
C9    H1    S    
C5    C15   A    
O19   V4    S    
C10   H2    S    
O16   V4    S    
C6    C16   A    
O32   H30   S    
S4    O32   S    
C49   C55   A    
O3    V1    S    
C25   C33   A    
C32   C36   A    
C22   C28   A    
C43   H23   S    
C9    C11   A    
C13   C58   S    
C18   H6    S    
C39   C41   A    
C35   C43   A    
O3    C1    A    
O11   V4    S    
S4    O31   D    
C48   C50   A    
O26   H28   S    
C11   H3    S    
C1    C24   S    
C12   H4    S    
S2    O26   S    
O17   V3    S    
C23   C53   A    
C19   S3    S    
O7    V1    S    
C1    O8    A    
C13   C15   A    
O8    V2    S    
O18   V4    S    
C21   C29   A    
O19   V3    S    
C6    C20   S    
C40   H22   S    
C4    C7    S    
C26   C28   A    
C5    C7    A    
O20   V4    S    
O16   C60   A    
S1    O23   S    
C6    C8    A    
C19   H9    S    
C35   C37   A    
C28   H18   S    
C46   C48   A    
C10   C12   A    
O9    V2    S    
O10   V1    S    
C23   C55   A    
C5    C19   S    
C29   C31   A    
O15   V3    S    
C37   C49   A    
