data_mof_unit_13236.cif
_audit_creation_date              2013-03-05T15:53:04-0500
_audit_creation_method            fapswitch 2.2
_symmetry_space_group_name_H-M    P1
_symmetry_Int_Tables_number       1
_space_group_crystal_system       triclinic
_cell_length_a                    6.954718
_cell_length_b                    20.452218
_cell_length_c                    24.40416
_cell_angle_alpha                 89.594549
_cell_angle_beta                  90.542095
_cell_angle_gamma                 89.350715
_cell_volume                      3470.76547337

loop_
_atom_site_label
_atom_site_type_symbol
_atom_site_description
_atom_site_fract_x
_atom_site_fract_y
_atom_site_fract_z
_atom_type_partial_charge
O1    O     O_R   0.507320 0.423560 0.460500 -0.590275
O2    O     O_R   0.170760 0.556250 0.437010 -0.576125
O3    O     O_R   0.004030 0.576440 0.539500 -0.589630
C1    C     C_R   0.338532 0.576381 0.421060 0.967559
O4    O     O_R   0.177370 0.422820 0.454110 -0.591465
O5    O     O_R   0.010680 0.442050 0.556720 -0.592207
C2    C     C_R   0.346370 0.398935 0.443425 0.923316
O6    O     O_R   0.500680 0.557950 0.443280 -0.582130
O7    O     O_3   0.340380 0.506470 0.533650 -0.276617
V1    V     V_3+5 0.064130 0.498800 0.493760 1.182946
O8    O     O_R   0.681160 0.443750 0.562990 -0.593843
C3    C     C_R   0.851077 0.423673 0.578876 0.974436
O9    O     O_R   0.674560 0.577180 0.545890 -0.592230
C4    C     C_R   0.842607 0.601085 0.556564 0.929790
V2    V     V_3+5 0.564560 0.501200 0.506240 1.173793
O10   O     O_3   0.838180 0.493530 0.466350 -0.263624
C5    C     C_R   0.976680 0.838139 0.911248 -0.096500
C6    C     C_R   0.847203 0.661781 0.588768 -0.103151
C7    C     C_R   0.041865 0.722046 0.906099 -0.178843
C8    C     C_R   0.032469 0.779359 0.936372 -0.164982
C9    C     C_R   0.930760 0.839347 0.854974 -0.246785
C10   C     C_R   0.942484 0.781545 0.822726 0.109478
C11   C     C_R   0.998868 0.722623 0.849782 0.186981
C12   C     C_R   0.902983 0.780111 0.764791 0.061845
C13   C     C_R   0.920732 0.719786 0.735243 0.062187
C14   C     C_R   0.976699 0.662938 0.764653 -0.198219
C15   C     C_R   0.014384 0.664514 0.820572 -0.241537
C16   C     C_R   0.846918 0.836953 0.735388 -0.198211
C17   C     C_R   0.809163 0.835374 0.679474 -0.239218
C18   C     C_R   0.824753 0.777272 0.650260 0.184122
C19   C     C_R   0.881266 0.718357 0.677305 0.110791
C20   C     C_R   0.781693 0.777851 0.593947 -0.177222
C21   C     C_R   0.791206 0.720549 0.563664 -0.154754
C22   C     C_R   0.893158 0.660568 0.645042 -0.247693
H1    H     H_    0.057488 0.619492 0.841216 0.130852
H2    H     H_    0.932909 0.613672 0.662304 0.101055
H3    H     H_    0.753494 0.721943 0.520483 0.122301
H4    H     H_    0.765953 0.880390 0.658837 0.131578
H5    H     H_    0.085623 0.677099 0.926715 0.115598
H6    H     H_    0.070129 0.777965 0.979557 0.108469
H7    H     H_    0.891201 0.886254 0.837699 0.101289
H8    H     H_    0.993470 0.615935 0.745630 0.130387
H9    H     H_    0.830053 0.883950 0.754414 0.130545
H10   H     H_    0.737802 0.822790 0.573344 0.119681
C23   C     C_3   0.843052 0.307096 0.768696 -0.159549
C24   C     C_3   0.033124 0.273501 0.788049 -0.160701
H11   H     H_    0.133204 0.292651 0.819636 0.113302
H12   H     H_    0.785868 0.354427 0.783911 0.114075
H13   H     H_    0.228443 0.267319 0.709031 0.116747
C25   C     C_1   0.960182 0.121793 0.875270 -0.295372
C26   C     C_1   0.864135 0.378156 0.624701 -0.293680
C27   C     C_3   0.738920 0.240584 0.772351 -0.159616
C28   C     C_3   0.928781 0.207614 0.791089 0.229996
C29   C     C_3   0.791209 0.226448 0.711923 -0.160398
C30   C     C_3   0.895552 0.292335 0.708882 0.230078
C31   C     C_3   0.981280 0.192853 0.731275 -0.159144
C32   C     C_3   0.085413 0.259365 0.727621 -0.159547
C33   C     C_1   0.946854 0.160304 0.837235 -0.044676
C34   C     C_1   0.877473 0.339645 0.662737 -0.045489
H14   H     H_    0.038465 0.145522 0.716061 0.114494
H15   H     H_    0.691129 0.207298 0.680336 0.113598
H16   H     H_    0.595890 0.232630 0.790941 0.116770
C35   C     C_3   0.514379 0.720683 0.210212 0.100431
C36   C     C_3   0.316424 0.697130 0.231121 -0.173895
H17   H     H_    0.235216 0.654296 0.216134 0.151611
H18   H     H_    0.099140 0.785269 0.212662 0.135211
C37   C     C_1   0.347604 0.621931 0.375079 -0.255018
C38   C     C_1   0.476661 0.877973 0.124877 -0.308817
C39   C     C_3   0.580556 0.730787 0.269701 0.350011
C40   C     C_3   0.386340 0.707389 0.290904 0.037935
C41   C     C_3   0.508664 0.802366 0.268343 -0.315516
C42   C     C_3   0.438849 0.791920 0.208723 0.059522
C43   C     C_3   0.310791 0.778762 0.289559 -0.102451
C44   C     C_3   0.240947 0.769078 0.229432 -0.082040
C45   C     C_1   0.362184 0.660339 0.337033 0.136903
C46   C     C_1   0.462332 0.839385 0.162815 0.011266
H19   H     H_    0.227625 0.803011 0.322407 0.171514
H20   H     H_    0.589079 0.845249 0.283591 0.171061
C47   C     C_R   0.471674 0.161878 0.088728 -0.096938
C48   C     C_R   0.352965 0.338256 0.411215 -0.096704
C49   C     C_R   0.528281 0.278055 0.093770 -0.177576
C50   C     C_R   0.521038 0.220703 0.063535 -0.164544
C51   C     C_R   0.430185 0.160658 0.145037 -0.245211
C52   C     C_R   0.439888 0.218498 0.177245 0.109753
C53   C     C_R   0.489553 0.277476 0.150116 0.184327
C54   C     C_R   0.404700 0.219917 0.235206 0.061297
C55   C     C_R   0.419784 0.280295 0.264702 0.059610
C56   C     C_R   0.468906 0.337212 0.235218 -0.192084
C57   C     C_R   0.502566 0.335641 0.179276 -0.237743
C58   C     C_R   0.355574 0.163002 0.264685 -0.195553
C59   C     C_R   0.321989 0.164558 0.320625 -0.237891
C60   C     C_R   0.335059 0.222707 0.349792 0.185477
C61   C     C_R   0.384640 0.281699 0.322669 0.108700
C62   C     C_R   0.296470 0.222087 0.406144 -0.177202
C63   C     C_R   0.303746 0.279415 0.436398 -0.165443
C64   C     C_R   0.394324 0.339525 0.354894 -0.241978
H21   H     H_    0.540480 0.380714 0.158575 0.134640
H22   H     H_    0.428922 0.386474 0.337577 0.105566
H23   H     H_    0.269639 0.277981 0.479621 0.108878
H24   H     H_    0.284104 0.119483 0.341323 0.133672
H25   H     H_    0.566941 0.323042 0.073096 0.115552
H26   H     H_    0.555241 0.222108 0.020318 0.108763
H27   H     H_    0.395459 0.113722 0.162355 0.102179
H28   H     H_    0.483268 0.384261 0.254198 0.135727
H29   H     H_    0.341182 0.115955 0.245708 0.132200
H30   H     H_    0.257890 0.177086 0.426809 0.116372
O11   O     O_R   0.323550 0.942140 0.056770 -0.589093
O12   O     O_R   0.647080 0.077200 0.045890 -0.590718
O13   O     O_R   0.813610 0.057920 0.943260 -0.589773
C65   C     C_R   0.478136 0.101161 0.056548 0.924779
O14   O     O_R   0.653470 0.943760 0.063000 -0.590585
O15   O     O_R   0.820050 0.923540 0.960490 -0.590170
C66   C     C_R   0.485691 0.923648 0.078964 0.977126
O16   O     O_R   0.317110 0.076520 0.039540 -0.589548
O17   O     O_3   0.483830 0.993580 0.966380 -0.272109
V3    V     V_3+5 0.760140 0.001190 0.006240 1.162478
O18   O     O_R   0.149510 0.922740 0.954070 -0.591316
C67   C     C_R   0.981417 0.898850 0.943431 0.922993
O19   O     O_R   0.143120 0.056170 0.936970 -0.592013
C68   C     C_R   0.973219 0.076276 0.921097 0.979631
V4    V     V_3+5 0.259690 0.998700 0.993700 1.162570
O20   O     O_3   0.986130 0.006420 0.033620 -0.271425
C69   C     C_3   0.632723 0.690127 0.164241 -0.343977
C70   C     C_3   0.635781 0.615595 0.167330 -0.869050
H31   H     H_    0.693869 0.598246 0.207344 0.295128
H32   H     H_    0.488492 0.596297 0.161468 0.244915
H33   H     H_    0.728475 0.595932 0.134374 0.241748
H34   H     H_    0.569322 0.705355 0.124132 0.187871
H35   H     H_    0.782069 0.708681 0.166612 0.191894
N1    N     N_R   0.765334 0.710325 0.293114 0.230059
O21   O     O_R   0.874282 0.752956 0.317026 -0.447339
O22   O     O_R   0.812377 0.648683 0.295631 -0.430269

loop_
_geom_bond_atom_site_label_1
_geom_bond_atom_site_label_2
_geom_bond_distance
_ccdc_geom_bond_type
C13   C19   1.438351 A    
C47   C51   1.406904 A    
C55   C56   1.411135 A    
O17   V4    1.703642 S    
C30   C34   1.483028 S    
C43   C44   1.555982 S    
C4    C6    1.474422 S    
O2    C1    1.303716 A    
C7    C8    1.391220 A    
C42   C46   1.488589 S    
C49   C50   1.391308 A    
C58   C59   1.387711 A    
C69   C70   1.525558 S    
C49   H25   1.083966 S    
C23   C24   1.550987 S    
C14   C15   1.387837 A    
V3    O20   1.706779 S    
C25   C68   1.451537 S    
C7    H5    1.083960 S    
C16   C17   1.387792 A    
C52   C54   1.438223 A    
O5    C3    1.297547 A    
C18   C19   1.419533 A    
C8    H6    1.083639 S    
C63   H23   1.083621 S    
C28   C31   1.539166 S    
O17   V3    2.153321 S    
H18   C44   1.110334 S    
C5    C8    1.395066 A    
H13   C32   1.110376 S    
C31   C32   1.550731 S    
C39   C41   1.541649 S    
O18   V4    1.992554 S    
O11   C66   1.297634 A    
O13   V3    1.960133 S    
C24   H11   1.110123 S    
O16   V4    1.993802 S    
O8    V2    1.972398 S    
C35   C39   1.534912 S    
C39   N1    1.457238 S    
C64   H22   1.077011 S    
C17   H4    1.084378 S    
O14   V3    1.965925 S    
O1    V2    1.989208 S    
C11   C15   1.393814 A    
C59   H24   1.084380 S    
C48   C64   1.407015 A    
O7    V1    2.153378 S    
C65   O16   1.298989 A    
C1    O6    1.297589 A    
C38   C66   1.455976 S    
O9    C4    1.296840 A    
C69   H35   1.110974 S    
C62   C63   1.391135 A    
C56   H28   1.076149 S    
C27   C29   1.550591 S    
O19   V4    1.972216 S    
C20   H10   1.083955 S    
C29   C31   1.550988 S    
C35   C42   1.543219 S    
C25   C33   1.215306 T    
C52   C53   1.419541 A    
C42   C44   1.546741 S    
C54   C58   1.411075 A    
C59   C60   1.393724 A    
O4    C2    1.297173 A    
C53   C57   1.393892 A    
C54   C55   1.438098 A    
C23   C27   1.550731 S    
C15   H1    1.084376 S    
C13   C14   1.411057 A    
C21   H3    1.083637 S    
C31   H14   1.110069 S    
C57   H21   1.084416 S    
N1    O22   1.299782 A    
C17   C18   1.393792 A    
C18   C20   1.403688 A    
C47   C50   1.395062 A    
C51   C52   1.426785 A    
O8    C3    1.301325 A    
C40   C43   1.545836 S    
C60   C62   1.403655 A    
C50   H26   1.083613 S    
C19   C22   1.426836 A    
O14   C66   1.303734 A    
C38   C46   1.217861 T    
C12   C13   1.438122 A    
C48   C63   1.394982 A    
C6    C22   1.407049 A    
V4    O20   2.150370 S    
O3    C4    1.298770 A    
C51   H27   1.076970 S    
C5    C67   1.474417 S    
C70   H33   1.110253 S    
C9    H7    1.076976 S    
C61   C64   1.426753 A    
C36   C40   1.549902 S    
O9    V2    1.992625 S    
C24   C32   1.550592 S    
C10   C12   1.438327 A    
C26   C34   1.215305 T    
O11   V4    1.963325 S    
O2    V1    1.965891 S    
O15   V3    1.990267 S    
C3    C26   1.451538 S    
C27   C28   1.539925 S    
C14   H8    1.076117 S    
C70   H32   1.110292 S    
C23   H12   1.110069 S    
C29   C30   1.539395 S    
C62   H30   1.083966 S    
C43   H19   1.109500 S    
C47   C65   1.474460 S    
O1    C2    1.298909 A    
C12   C16   1.411055 A    
C58   H29   1.076091 S    
O5    V1    1.959963 S    
C1    C37   1.455655 S    
C35   C69   1.530474 S    
C28   C33   1.483029 S    
C29   H15   1.110124 S    
O6    V2    1.963531 S    
C16   H9    1.076110 S    
C20   C21   1.391192 A    
O12   V3    1.994806 S    
C30   C32   1.539927 S    
N1    O21   1.299476 A    
O7    V2    1.704945 S    
O4    V1    1.994817 S    
O3    V1    1.990238 S    
V1    O10   1.706866 S    
O18   C67   1.296841 A    
C36   H17   1.109975 S    
O15   C67   1.298753 A    
C69   H34   1.110816 S    
C55   C61   1.438310 A    
C24   C28   1.539395 S    
C60   C61   1.419574 A    
O12   C65   1.297258 A    
C22   H2    1.076983 S    
C39   C40   1.531511 S    
C6    C21   1.395034 A    
C5    C9    1.407000 A    
C35   C36   1.553262 S    
C7    C11   1.403719 A    
C41   C42   1.546529 S    
C37   C45   1.217647 T    
C56   C57   1.387861 A    
C23   C30   1.539166 S    
O19   C68   1.301319 A    
C41   C43   1.555599 S    
C40   C45   1.487749 S    
C36   C44   1.556838 S    
C10   C11   1.419529 A    
C70   H31   1.107736 S    
C27   H16   1.110376 S    
C9    C10   1.426804 A    
C41   H20   1.110080 S    
C49   C53   1.403713 A    
V2    O10   2.150334 S    
O13   C68   1.297538 A    
C2    C48   1.474231 S    
