data_mof_unit_38664.cif
_audit_creation_date              2012-12-10T17:53:18-0500
_audit_creation_method            fapswitch 2.2
_symmetry_space_group_name_H-M    P1
_symmetry_Int_Tables_number       1
_space_group_crystal_system       triclinic
_cell_length_a                    23.067405
_cell_length_b                    10.677859
_cell_length_c                    9.877064
_cell_angle_alpha                 92.389437
_cell_angle_beta                  89.911185
_cell_angle_gamma                 91.250713
_cell_volume                      2430.12969149

loop_
_atom_site_label
_atom_site_type_symbol
_atom_type_description
_atom_site_fract_x
_atom_site_fract_y
_atom_site_fract_z
_atom_type_partial_charge
C1    C     C_R   0.504572 0.260616 0.497174 0.924486
C2    C     C_R   0.968812 0.543950 0.237633 0.146115
C3    C     C_R   0.029532 0.543527 0.237227 0.458283
C4    C     C_R   0.060535 0.578106 0.356678 -0.155325
C5    C     C_R   0.031390 0.636338 0.467597 -0.129122
C6    C     C_R   0.063098 0.683662 0.581367 -0.145578
C7    C     C_R   0.034665 0.753606 0.685144 0.449446
C8    C     C_R   0.973932 0.759018 0.686913 0.136272
C9    C     C_R   0.119985 0.555453 0.369210 0.586665
C10   C     C_R   0.122468 0.657419 0.588789 0.579510
C11   C     C_R   0.248529 0.663612 0.463581 -0.272627
C12   C     C_R   0.389231 0.501823 0.500085 0.990853
C13   C     C_R   0.308406 0.644727 0.471479 0.472653
C14   C     C_R   0.327413 0.524231 0.499956 -0.279911
C15   C     C_R   0.287773 0.426729 0.527834 0.379719
C16   C     C_R   0.228298 0.450435 0.530157 0.171099
C17   C     C_R   0.209112 0.568321 0.494288 0.117843
C18   C     C_R   0.752027 0.652087 0.395588 0.548266
C19   C     C_R   0.693976 0.613303 0.396197 -0.325860
C20   C     C_R   0.672596 0.537441 0.498288 -0.181320
C21   C     C_R   0.709480 0.500234 0.600540 -0.355267
C22   C     C_R   0.768638 0.530513 0.595249 0.514377
C23   C     C_R   0.497195 0.740677 0.504087 0.919281
C24   C     C_R   0.789878 0.606487 0.492177 0.074322
C25   C     C_R   0.575977 0.128766 0.691701 0.402330
C26   C     C_R   0.583666 0.085270 0.822172 0.277159
C27   C     C_R   0.553234 0.976290 0.860928 0.308261
C28   C     C_R   0.517412 0.910258 0.765694 0.451362
C29   C     C_R   0.514875 0.948308 0.628538 -0.207786
C30   C     C_R   0.534662 0.069226 0.603466 -0.173263
C31   C     C_R   0.511620 0.128001 0.491263 -0.005072
C32   C     C_R   0.484830 0.059181 0.385458 -0.249463
C33   C     C_R   0.478893 0.932098 0.393710 -0.177137
C34   C     C_R   0.610917 0.505593 0.499846 0.969079
C35   C     C_R   0.493796 0.875132 0.513663 -0.036527
C36   C     C_R   0.425431 0.335267 0.134555 -0.176431
C37   C     C_R   0.387869 0.254371 0.062275 -0.246765
C38   C     C_R   0.386230 0.255759 0.922424 0.202754
C39   C     C_R   0.422794 0.337510 0.854081 -0.135298
C40   C     C_R   0.461944 0.420434 0.924587 -0.008388
C41   C     C_R   0.462663 0.419616 0.069233 0.142462
C42   C     C_R   0.536641 0.575088 0.075377 -0.220193
C43   C     C_R   0.538117 0.572786 0.931017 0.626548
C44   C     C_R   0.880030 0.697119 0.577160 0.638858
C45   C     C_R   0.878693 0.573232 0.370240 0.617600
C46   C     C_R   0.938905 0.587597 0.355645 -0.147474
C47   C     C_R   0.970483 0.643895 0.466236 -0.086251
C48   C     C_R   0.941132 0.701760 0.578231 -0.139473
H1    H     H_    0.665462 0.644419 0.317821 0.169171
H2    H     H_    0.692964 0.444100 0.681410 0.211135
H3    H     H_    0.467851 0.103459 0.297519 0.165902
H4    H     H_    0.460990 0.878613 0.307283 0.202270
H5    H     H_    0.565504 0.637208 0.133800 0.155649
H6    H     H_    0.424378 0.328491 0.241326 0.202597
H7    H     H_    0.359828 0.190372 0.115596 0.164901
H8    H     H_    0.419252 0.332121 0.746750 0.224882
H9    H     H_    0.231690 0.752095 0.433715 0.163247
N1    N     N_R   0.851029 0.628212 0.478614 -0.334117
N2    N     N_R   0.148760 0.592565 0.484895 -0.332902
N3    N     N_R   0.499460 0.498800 0.142780 -0.139077
N4    N     N_R   0.499440 0.498720 0.857170 -0.154360
O1    O     O_R   0.500000 0.316780 0.614690 -0.628107
O2    O     O_2   0.847689 0.500083 0.281286 -0.508272
O3    O     O_2   0.148905 0.494037 0.268784 -0.489886
O4    O     O_2   0.153691 0.692861 0.699853 -0.510868
O5    O     O_R   0.500000 0.316750 0.385360 -0.667507
O6    O     O_R   0.416160 0.499970 0.614690 -0.622277
O7    O     O_R   0.416150 0.499950 0.385360 -0.620506
O8    O     O_R   0.500000 0.683250 0.614640 -0.534197
O9    O     O_R   0.500000 0.683220 0.385310 -0.621817
O10   O     O_R   0.583850 0.500050 0.614640 -0.559912
O11   O     O_R   0.583840 0.500030 0.385310 -0.637228
O12   O     O_2   0.849062 0.758398 0.673481 -0.508163
Zn1   Zn    Zn3+2 0.500000 0.500020 0.653130 1.029406
Zn2   Zn    Zn3+2 0.500000 0.499980 0.346870 0.944764
I1    I     I_    0.927469 0.484237 0.050056 -0.133864
O13   O     O_3   0.805721 0.489802 0.693178 -0.562594
C49   C     C_3   0.818953 0.363680 0.661586 -0.237408
H10   H     H_    0.838700 0.352287 0.558939 0.156447
H11   H     H_    0.779893 0.301448 0.669672 0.157687
H12   H     H_    0.851232 0.333301 0.735902 0.220179
O14   O     O_3   0.610331 0.227684 0.649882 -0.572091
C50   C     C_3   0.654203 0.178081 0.564748 -0.324286
H13   H     H_    0.635880 0.127352 0.473261 0.155490
H14   H     H_    0.682742 0.115460 0.620926 0.179799
H15   H     H_    0.681615 0.255941 0.528157 0.180570
O15   O     O_3   0.621278 0.149171 0.910672 -0.581714
C51   C     C_3   0.591082 0.247354 0.976833 -0.236456
H16   H     H_    0.552741 0.211432 0.033216 0.163643
H17   H     H_    0.577717 0.317306 0.903590 0.171061
H18   H     H_    0.620497 0.296061 0.051601 0.181115
O16   O     O_3   0.552019 0.938883 0.994122 -0.576139
C52   C     C_3   0.608413 0.920683 0.044244 -0.132055
H19   H     H_    0.624355 0.006383 0.101060 0.185267
H20   H     H_    0.640057 0.891705 0.964090 0.159631
H21   H     H_    0.606126 0.845421 0.118083 0.138484
O17   O     O_3   0.481615 0.816505 0.813646 -0.528053
C53   C     C_3   0.425858 0.864385 0.835370 -0.201417
H22   H     H_    0.426888 0.943972 0.911892 0.170871
H23   H     H_    0.406300 0.893242 0.739132 0.158070
H24   H     H_    0.397592 0.789205 0.875571 0.193648
O18   O     O_3   0.058033 0.502671 0.120675 -0.561932
C54   C     C_3   0.074678 0.608505 0.047509 -0.073317
H25   H     H_    0.096088 0.575867 0.952172 0.227965
H26   H     H_    0.106324 0.669854 0.105377 0.153829
H27   H     H_    0.036484 0.663705 0.019317 0.168870
I2    I     I_    0.327913 0.133007 0.815782 -0.376257
O19   O     O_3   0.576498 0.649173 0.863053 -0.560574
C55   C     C_3   0.633972 0.617557 0.893728 -0.309484
H28   H     H_    0.663544 0.664471 0.822094 0.211960
H29   H     H_    0.646476 0.651832 0.997477 0.148676
H30   H     H_    0.640768 0.514785 0.881698 0.167514
O20   O     O_3   0.065835 0.812438 0.790120 -0.590415
C56   C     C_3   0.083270 0.932934 0.749982 -0.142803
H31   H     H_    0.112285 0.927720 0.659866 0.162369
H32   H     H_    0.108025 0.980606 0.834183 0.210022
H33   H     H_    0.045233 0.991433 0.728864 0.155289
I3    I     I_    0.937840 0.848922 0.865830 -0.199069
O21   O     O_3   0.349681 0.738083 0.445069 -0.605432
C57   C     C_3   0.331915 0.858106 0.492139 -0.316023
H34   H     H_    0.310564 0.856273 0.593342 0.190097
H35   H     H_    0.303355 0.899947 0.416543 0.175509
H36   H     H_    0.370569 0.920691 0.503873 0.191174
O22   O     O_3   0.307494 0.310259 0.559188 -0.569130
C58   C     C_3   0.311313 0.235524 0.438501 -0.264412
H37   H     H_    0.339665 0.280091 0.362506 0.126255
H38   H     H_    0.267678 0.214719 0.394332 0.197140
H39   H     H_    0.330868 0.145129 0.462359 0.184923
I4    I     I_    0.167954 0.309165 0.588668 -0.258852
O23   O     O_3   0.773379 0.725425 0.293858 -0.561021
C59   C     C_3   0.754573 0.849192 0.317613 -0.300514
H40   H     H_    0.767814 0.887118 0.420004 0.166055
H41   H     H_    0.706836 0.855278 0.304646 0.133782
H42   H     H_    0.775366 0.909582 0.241922 0.216121

loop_
_geom_bond_atom_site_label_1
_geom_bond_atom_site_label_2
_ccdc_geom_bond_type
C28   O17   S    
O15   C51   S    
C52   H19   S    
C9    O3    S    
C23   O8    A    
C19   C20   A    
C59   H42   S    
C1    O1    A    
C56   H31   S    
C8    I3    S    
C7    C8    A    
O13   C49   S    
C2    C46   A    
C33   H4    S    
C12   O7    A    
C26   C27   A    
C29   C30   A    
C18   C24   A    
C28   C29   A    
C55   H29   S    
C42   H5    S    
C30   C31   A    
C49   H11   S    
C15   C16   A    
C25   O14   S    
C1    C31   S    
O19   C55   S    
C18   C19   A    
C38   I2    S    
C47   C48   A    
C44   N1    A    
C26   O15   S    
C58   H39   S    
C13   C14   A    
C57   H36   S    
C20   C34   S    
C52   H20   S    
C21   C22   A    
C23   O9    A    
C36   C41   A    
O18   C54   S    
O11   Zn2   S    
C21   H2    S    
C13   O21   S    
C57   H35   S    
O17   C53   S    
C38   C39   A    
C12   O6    A    
C45   N1    A    
C15   O22   S    
O8    Zn1   S    
C22   O13   S    
C55   H30   S    
C42   N3    A    
C39   C40   A    
C49   H10   S    
C16   C17   A    
C25   C26   A    
C45   C46   A    
C45   O2    S    
C40   N4    A    
O7    Zn2   S    
C8    C48   A    
C32   H3    S    
C37   C38   A    
C5    C47   A    
C19   H1    S    
C50   H13   S    
C51   H18   S    
C1    O5    A    
C27   O16   S    
C54   H26   S    
O6    Zn1   S    
C20   C21   A    
C16   I4    S    
C17   N2    S    
C3    O18   S    
C24   N1    S    
C40   C41   A    
C50   H14   S    
C12   C14   S    
C53   H22   S    
C52   H21   S    
C53   H23   S    
C58   H37   S    
C22   C24   A    
C18   O23   S    
C42   C43   A    
C3    C4    A    
C39   H8    S    
C34   O11   A    
O9    Zn2   S    
C2    I1    S    
C57   H34   S    
C43   N4    A    
O20   C56   S    
C10   O4    S    
C25   C30   A    
C46   C47   A    
C11   C17   A    
C31   C32   A    
C41   N3    A    
C51   H17   S    
C4    C5    A    
C59   H41   S    
C6    C10   A    
O10   Zn1   S    
C56   H32   S    
O21   C57   S    
C6    C7    A    
N4    Zn1   S    
C53   H24   S    
C29   C35   A    
N3    Zn2   S    
C23   C35   S    
C32   C33   A    
C7    O20   S    
O23   C59   S    
C55   H28   S    
C11   C13   A    
C49   H12   S    
C5    C6    A    
O5    Zn2   S    
O16   C52   S    
C33   C35   A    
C2    C3    A    
C54   H27   S    
C43   O19   S    
C44   O12   S    
C56   H33   S    
C36   H6    S    
C37   H7    S    
C44   C48   A    
C50   H15   S    
C51   H16   S    
C36   C37   A    
O14   C50   S    
C54   H25   S    
C58   H38   S    
C14   C15   A    
O1    Zn1   S    
C9    N2    A    
C4    C9    A    
C11   H9    S    
C10   N2    A    
C34   O10   A    
C59   H40   S    
O22   C58   S    
C27   C28   A    
