data_mof_unit_40753.cif
_audit_creation_date              2012-12-10T19:00:46-0500
_audit_creation_method            fapswitch 2.2
_symmetry_space_group_name_H-M    P1
_symmetry_Int_Tables_number       1
_space_group_crystal_system       triclinic
_cell_length_a                    15.049503
_cell_length_b                    10.824383
_cell_length_c                    9.573061
_cell_angle_alpha                 90.020519
_cell_angle_beta                  90.32097
_cell_angle_gamma                 90.289884
_cell_volume                      1559.42225947

loop_
_atom_site_label
_atom_site_type_symbol
_atom_type_description
_atom_site_fract_x
_atom_site_fract_y
_atom_site_fract_z
_atom_type_partial_charge
C1    C     C_R   0.501562 0.262557 0.499732 0.841900
C2    C     C_R   0.907639 0.552351 0.611384 0.135624
C3    C     C_R   0.952281 0.396585 0.270332 0.434292
C4    C     C_R   0.045592 0.397059 0.271649 -0.321581
C5    C     C_R   0.092680 0.449834 0.383514 0.049392
C6    C     C_R   0.046587 0.500953 0.497399 0.060409
C7    C     C_R   0.093655 0.551217 0.612340 0.131809
C8    C     C_R   0.047470 0.602081 0.725069 -0.224500
C9    C     C_R   0.954927 0.603217 0.724254 -0.228362
C10   C     C_R   0.185364 0.450708 0.384456 -0.219381
C11   C     C_R   0.232024 0.500018 0.498835 -0.064418
C12   C     C_R   0.328778 0.499780 0.499647 0.798894
C13   C     C_R   0.186213 0.549479 0.612685 -0.258147
C14   C     C_R   0.451219 0.064421 0.596223 -0.056124
C15   C     C_R   0.500049 0.129038 0.496820 -0.155579
C16   C     C_R   0.543505 0.063500 0.390113 0.399086
C17   C     C_R   0.540082 0.934352 0.389791 -0.305034
C18   C     C_R   0.495486 0.870419 0.496307 -0.130016
C19   C     C_R   0.447693 0.936635 0.595652 0.027603
C20   C     C_3   0.450158 0.927933 0.751914 -0.534330
C21   C     C_3   0.457672 0.068472 0.752379 0.342241
C22   C     C_R   0.574697 0.531418 0.074303 0.242770
C23   C     C_R   0.498989 0.737362 0.499753 0.831914
C24   C     C_R   0.429331 0.455994 0.073638 -0.089181
C25   C     C_R   0.429244 0.456217 0.925050 -0.067234
C26   C     C_R   0.575241 0.529986 0.927427 0.267748
C27   C     C_3   0.626475 0.648291 0.923230 -0.521888
C28   C     C_3   0.624581 0.650094 0.081745 -0.495484
C29   C     C_R   0.671225 0.499768 0.500137 0.811600
C30   C     C_R   0.815156 0.551300 0.611464 -0.257632
C31   C     C_R   0.767991 0.499470 0.499623 -0.085838
C32   C     C_R   0.813232 0.448541 0.386064 -0.198709
C33   C     C_R   0.906121 0.448147 0.383760 0.011296
C34   C     C_R   0.953449 0.500750 0.497219 -0.001976
Cu1   Cu    Cu3+1 0.500000 0.499980 0.640670 0.950831
Cu2   Cu    Cu3+1 0.500000 0.500020 0.359330 0.939610
H1    H     H_    0.385805 0.894123 0.794044 0.170511
H2    H     H_    0.398374 0.113243 0.798592 0.090194
H3    H     H_    0.371557 0.421715 0.128150 0.133113
H4    H     H_    0.371355 0.422163 0.869621 0.137204
H5    H     H_    0.588812 0.724485 0.874604 0.203675
H6    H     H_    0.221224 0.411353 0.297270 0.138723
H7    H     H_    0.222650 0.588080 0.700655 0.148268
N1    N     N_R   0.500570 0.500930 0.147930 -0.183575
N2    N     N_R   0.500570 0.500890 0.852020 -0.180362
O1    O     O_R   0.500000 0.319640 0.618810 -0.546788
O2    O     O_R   0.500010 0.319680 0.381230 -0.575884
O3    O     O_R   0.370250 0.499950 0.618800 -0.596314
O4    O     O_R   0.370260 0.499990 0.381220 -0.592685
O5    O     O_R   0.499990 0.680320 0.618770 -0.581622
O6    O     O_R   0.500000 0.680360 0.381190 -0.582220
O7    O     O_R   0.629740 0.500010 0.618780 -0.582971
O8    O     O_R   0.629750 0.500050 0.381200 -0.590357
H8    H     H_    0.779926 0.591873 0.697901 0.140541
H9    H     H_    0.578689 0.884392 0.313358 0.160769
H10   H     H_    0.508445 0.878375 0.793596 0.185839
O9    O     O_3   0.537889 0.122452 0.805610 -0.571098
C35   C     C_3   0.618356 0.063100 0.767758 0.079161
H11   H     H_    0.612539 0.997031 0.679722 0.155763
H12   H     H_    0.643768 0.011656 0.859929 0.141427
C36   C     C_3   0.687256 0.159707 0.725870 -0.757557
H13   H     H_    0.691836 0.233972 0.805158 0.246280
H14   H     H_    0.753347 0.115632 0.715461 0.198678
H15   H     H_    0.669099 0.201760 0.624091 0.249493
H16   H     H_    0.694511 0.635689 0.882357 0.184719
H17   H     H_    0.691314 0.638732 0.130320 0.197133
H18   H     H_    0.775708 0.408733 0.300047 0.193327
H19   H     H_    0.584139 0.726643 0.124795 0.208640
O10   O     O_3   0.905547 0.335043 0.166251 -0.578854
C37   C     C_3   0.917735 0.395256 0.036974 0.067855
H20   H     H_    0.984164 0.373152 0.993540 0.153154
H21   H     H_    0.910697 0.497498 0.046456 0.128956
C38   C     C_3   0.847248 0.348948 0.935115 -0.808813
H22   H     H_    0.780581 0.380241 0.969025 0.233497
H23   H     H_    0.860470 0.385384 0.829210 0.223005
H24   H     H_    0.848111 0.246443 0.930499 0.257594
H25   H     H_    0.081257 0.353943 0.186734 0.146941
H26   H     H_    0.082910 0.640880 0.813777 0.139824
H27   H     H_    0.920274 0.642754 0.812434 0.138064
O11   O     O_3   0.605108 0.123235 0.307626 -0.582357
C39   C     C_3   0.571554 0.134771 0.170699 0.122023
H28   H     H_    0.502191 0.170640 0.169422 0.145847
H29   H     H_    0.573087 0.044219 0.115684 0.136863
C40   C     C_3   0.630220 0.226408 0.093497 -0.726840
H30   H     H_    0.693796 0.181903 0.064414 0.236844
H31   H     H_    0.595707 0.260108 0.998583 0.229838
H32   H     H_    0.645179 0.307155 0.161256 0.252928

loop_
_geom_bond_atom_site_label_1
_geom_bond_atom_site_label_2
_ccdc_geom_bond_type
C8    C9    A    
C10   H6    S    
C38   H22   S    
C19   C20   S    
C40   H32   S    
C12   O3    A    
C12   O4    A    
C7    C8    A    
C30   H8    S    
C26   C27   S    
C14   C21   S    
C3    O10   S    
C40   H31   S    
C25   H4    S    
C30   C31   A    
C1    O1    A    
C3    C33   A    
C35   H12   S    
C15   C16   A    
C24   H3    S    
Cu2   O2    S    
C18   C19   A    
C9    H27   S    
C36   H14   S    
Cu2   O8    S    
C26   N2    A    
C22   N1    A    
C21   H2    S    
Cu1   Cu2   S    
C16   C17   A    
C37   H20   S    
C1    C15   S    
C17   H9    S    
C20   H10   S    
C2    C34   A    
C35   C36   S    
C22   C28   S    
C8    H26   S    
C38   H23   S    
O10   C37   S    
Cu1   O5    S    
Cu1   O3    S    
C39   H29   S    
C33   C34   A    
C18   C23   S    
C40   H30   S    
C1    O2    A    
C23   O5    A    
C4    H25   S    
C35   H11   S    
C39   H28   S    
C6    C34   A    
C16   O11   S    
C36   H15   S    
C28   H17   S    
C21   O9    S    
C27   H16   S    
C27   H5    S    
C23   O6    A    
C31   C32   A    
C37   C38   S    
C17   C18   A    
C24   C25   A    
Cu2   O6    S    
C32   H18   S    
C24   N1    A    
C38   H24   S    
Cu2   N1    S    
C3    C4    A    
Cu1   N2    S    
C25   N2    A    
C13   H7    S    
C39   C40   S    
C28   H19   S    
C14   C19   A    
O11   C39   S    
C11   C12   S    
C6    C7    A    
Cu1   O1    S    
C2    C30   A    
C32   C33   A    
C5    C10   A    
C29   C31   S    
C20   H1    S    
C11   C13   A    
O9    C35   S    
C5    C6    A    
C29   O8    A    
C4    C5    A    
C36   H13   S    
C10   C11   A    
C7    C13   A    
C20   C21   S    
C22   C26   A    
Cu1   O7    S    
C14   C15   A    
C37   H21   S    
C2    C9    A    
Cu2   O4    S    
C27   C28   S    
C29   O7    A    
