data_mof_unit_11887.cif
_audit_creation_date              2012-12-10T18:05:13-0500
_audit_creation_method            fapswitch 2.2
_symmetry_space_group_name_H-M    P1
_symmetry_Int_Tables_number       1
_space_group_crystal_system       triclinic
_cell_length_a                    9.598733
_cell_length_b                    10.837776
_cell_length_c                    17.043786
_cell_angle_alpha                 86.973994
_cell_angle_beta                  91.916687
_cell_angle_gamma                 89.860253
_cell_volume                      1769.56810975

loop_
_atom_site_label
_atom_site_type_symbol
_atom_type_description
_atom_site_fract_x
_atom_site_fract_y
_atom_site_fract_z
_atom_type_partial_charge
C1    C     C_R   0.500105 0.262243 0.501120 0.782056
C2    C     C_R   0.500115 0.737472 0.502634 0.762095
C3    C     C_R   0.375107 0.935573 0.513225 -0.198649
C4    C     C_R   0.626424 0.063450 0.502155 -0.182239
C5    C     C_R   0.500507 0.871150 0.507125 -0.020124
C6    C     C_R   0.500326 0.128092 0.504193 -0.014437
C7    C     C_R   0.078152 0.420606 0.550376 0.228750
C8    C     C_R   0.921234 0.571135 0.445035 0.230146
C9    C     C_R   0.928514 0.417851 0.548472 0.243303
C10   C     C_R   0.070639 0.571434 0.445060 0.242067
C11   C     C_R   0.514254 0.506748 0.650347 0.791053
C12   C     C_R   0.485617 0.498685 0.349359 0.810982
C13   C     C_R   0.510320 0.530006 0.734556 -0.065259
C14   C     C_R   0.488784 0.489472 0.264006 -0.055306
C15   C     C_R   0.387076 0.578454 0.763510 -0.294973
C16   C     C_R   0.608179 0.438753 0.232420 -0.291686
C17   C     C_R   0.371405 0.589431 0.843918 0.245649
C18   C     C_R   0.623740 0.439285 0.151458 0.246284
C19   C     C_R   0.481664 0.554726 0.896438 0.359992
C20   C     C_R   0.517801 0.489382 0.100806 0.357295
C21   C     C_R   0.609579 0.515965 0.866913 -0.214863
C22   C     C_R   0.395023 0.535964 0.132377 -0.224517
C23   C     C_R   0.623497 0.504257 0.786523 -0.252512
C24   C     C_R   0.381012 0.536005 0.213634 -0.247189
C25   C     C_R   0.374701 0.063425 0.510825 -0.179317
C26   C     C_R   0.626549 0.935731 0.504839 -0.196006
Cu1   Cu    Cu3+1 0.640660 0.500020 0.500000 0.975621
Cu2   Cu    Cu3+1 0.359340 0.499980 0.500000 0.974008
N1    N     N_2   0.460724 0.559980 0.978100 -0.245304
N2    N     N_2   0.537397 0.487430 0.018900 -0.243704
N3    N     N_R   0.852070 0.500030 0.499980 -0.208540
N4    N     N_R   0.147930 0.499970 0.500020 -0.207337
O1    O     O_R   0.618740 0.319660 0.500000 -0.563620
O2    O     O_R   0.381260 0.680340 0.500000 -0.569257
O3    O     O_R   0.381170 0.319630 0.500010 -0.565950
O4    O     O_R   0.618830 0.680370 0.499990 -0.565144
O5    O     O_R   0.631780 0.498870 0.613920 -0.557574
O6    O     O_R   0.368220 0.501130 0.386080 -0.554158
O7    O     O_R   0.394210 0.498840 0.613930 -0.562243
O8    O     O_R   0.605790 0.501160 0.386070 -0.561141
H1    H     H_    0.691730 0.400764 0.270784 0.154036
H2    H     H_    0.300726 0.605559 0.723753 0.158866
N5    N     N_2   0.747227 0.390070 0.120919 -0.421413
H3    H     H_    0.791625 0.318949 0.155940 0.245257
C27   C     C_3   0.848870 0.482263 0.097791 -0.695618
H4    H     H_    0.887522 0.531158 0.149916 0.212316
H5    H     H_    0.802858 0.550431 0.053274 0.243761
H6    H     H_    0.938506 0.436715 0.071413 0.224864
N6    N     N_2   0.243171 0.633019 0.871956 -0.422304
H7    H     H_    0.192518 0.696206 0.833492 0.245664
C28   C     C_3   0.150566 0.536270 0.899778 -0.696648
H8    H     H_    0.117945 0.478032 0.850672 0.214009
H9    H     H_    0.056203 0.578243 0.923544 0.223942
H10   H     H_    0.202225 0.477339 0.947551 0.247033
H11   H     H_    0.698247 0.493353 0.906041 0.168719
H12   H     H_    0.310386 0.572736 0.094467 0.172368
H13   H     H_    0.721440 0.473168 0.765792 0.156061
H14   H     H_    0.288308 0.575300 0.236827 0.160009
H15   H     H_    0.276111 0.111150 0.513833 0.140524
H16   H     H_    0.725283 0.888063 0.504888 0.146063
H17   H     H_    0.277489 0.887632 0.520020 0.142798
H18   H     H_    0.724875 0.111059 0.497773 0.142084
N7    N     N_2   0.155652 0.329409 0.596782 -0.367037
H19   H     H_    0.130357 0.239575 0.585551 0.216198
C29   C     C_3   0.175952 0.349247 0.679849 -0.612421
H20   H     H_    0.287250 0.334750 0.697263 0.235737
H21   H     H_    0.117742 0.280039 0.715712 0.187298
H22   H     H_    0.142980 0.443504 0.694276 0.208693
N8    N     N_2   0.843161 0.625737 0.379688 -0.365367
H23   H     H_    0.861713 0.588180 0.326655 0.222444
C30   C     C_3   0.825029 0.758436 0.374861 -0.620894
H24   H     H_    0.712165 0.780732 0.372172 0.233824
H25   H     H_    0.869139 0.798461 0.319859 0.190670
H26   H     H_    0.875775 0.801826 0.425838 0.201661
N9    N     N_2   0.859035 0.314426 0.583822 -0.367206
H27   H     H_    0.888526 0.231068 0.562981 0.208717
C31   C     C_3   0.842634 0.309818 0.667877 -0.624977
H28   H     H_    0.894509 0.226047 0.695551 0.188694
H29   H     H_    0.730406 0.301316 0.680391 0.231664
H30   H     H_    0.886512 0.393193 0.694470 0.209278
N10   N     N_2   0.139092 0.631615 0.380993 -0.366743
H31   H     H_    0.106196 0.603749 0.326553 0.215809
C32   C     C_3   0.160592 0.763535 0.383146 -0.622138
H32   H     H_    0.105437 0.812511 0.332416 0.188875
H33   H     H_    0.272943 0.783917 0.377292 0.234238
H34   H     H_    0.123271 0.800106 0.438294 0.202334

loop_
_geom_bond_atom_site_label_1
_geom_bond_atom_site_label_2
_ccdc_geom_bond_type
N7    C29   S    
C5    C26   A    
N5    H3    S    
N10   H31   S    
C1    O1    A    
C20   N2    S    
C31   H28   S    
Cu1   O1    S    
C8    N8    S    
C19   C21   A    
C27   H6    S    
C6    C25   A    
C3    H17   S    
C4    H18   S    
C13   C23   A    
C23   H13   S    
C14   C24   A    
N8    C30   S    
Cu2   O3    S    
C29   H21   S    
C18   C20   A    
C2    O2    A    
C27   H5    S    
Cu2   O2    S    
N10   C32   S    
C31   H29   S    
Cu1   N3    S    
C1    C6    S    
Cu2   N4    S    
C4    C6    A    
C17   N6    S    
C30   H25   S    
C22   H12   S    
Cu2   O7    S    
N6    C28   S    
C27   H4    S    
C28   H8    S    
C28   H9    S    
C12   O8    A    
N9    H27   S    
N1    N2    D    
C10   N4    A    
N5    C27   S    
C32   H32   S    
Cu2   O6    S    
Cu1   O8    S    
C29   H22   S    
C32   H34   S    
C16   C18   A    
C11   O7    A    
N9    C31   S    
C7    N7    S    
C8    C10   A    
C32   H33   S    
C12   C14   S    
C29   H20   S    
C13   C15   A    
C14   C16   A    
C2    C5    S    
C19   N1    S    
C1    O3    A    
C11   O5    A    
C31   H30   S    
C2    O4    A    
C15   C17   A    
C21   H11   S    
C7    N4    A    
C8    N3    A    
C15   H2    S    
C20   C22   A    
C3    C5    A    
C30   H26   S    
C4    C26   A    
Cu1   O4    S    
C9    N9    S    
C10   N10   S    
C28   H10   S    
C21   C23   A    
C30   H24   S    
C18   N5    S    
C11   C13   S    
Cu1   O5    S    
C17   C19   A    
C22   C24   A    
C12   O6    A    
N8    H23   S    
C9    N3    A    
N7    H19   S    
C7    C9    A    
C3    C25   A    
C24   H14   S    
N6    H7    S    
Cu1   Cu2   S    
C25   H15   S    
C26   H16   S    
C16   H1    S    
