data_mof_unit_37427.cif
_audit_creation_date              2012-12-11T17:01:16-0500
_audit_creation_method            fapswitch 2.2
_symmetry_space_group_name_H-M    P1
_symmetry_Int_Tables_number       1
_space_group_crystal_system       triclinic
_cell_length_a                    19.401088
_cell_length_b                    7.098906
_cell_length_c                    17.629103
_cell_angle_alpha                 89.999779
_cell_angle_beta                  108.694701
_cell_angle_gamma                 90.000098
_cell_volume                      2299.89347584

loop_
_atom_site_label
_atom_site_type_symbol
_atom_type_description
_atom_site_fract_x
_atom_site_fract_y
_atom_site_fract_z
_atom_type_partial_charge
O1    O     O_R   0.413720 0.494330 0.415730 -0.537231
O2    O     O_R   0.586280 0.994330 0.584270 -0.537233
O3    O     O_R   0.560210 0.819300 0.430070 -0.539556
O4    O     O_R   0.439790 0.319300 0.569930 -0.539558
C1    C     C_R   0.580068 0.654331 0.412790 0.727191
C2    C     C_R   0.419931 0.154331 0.587209 0.727187
O5    O     O_R   0.412670 0.823730 0.406310 -0.540554
O6    O     O_R   0.587330 0.323730 0.593690 -0.540554
O7    O     O_R   0.437690 0.998790 0.560340 -0.545455
O8    O     O_R   0.562310 0.498790 0.439660 -0.545455
C3    C     C_R   0.385439 0.655248 0.383383 0.727684
C4    C     C_R   0.614561 0.155248 0.616617 0.727686
O9    O     O_3   0.508380 0.662350 0.550560 -0.378713
O10   O     O_3   0.491620 0.162350 0.449440 -0.378712
V1    V     V_3+5 0.498450 0.935370 0.490620 1.388901
V2    V     V_3+5 0.501550 0.435370 0.509380 1.388898
C5    C     C_R   0.696882 0.996519 0.740451 0.006582
C6    C     C_R   0.303117 0.496516 0.259551 0.006579
C7    C     C_R   0.682041 0.147567 0.686423 -0.167991
C8    C     C_R   0.317959 0.647567 0.313577 -0.167993
C9    C     C_R   0.733545 0.294499 0.701556 -0.245485
C10   C     C_R   0.266455 0.794500 0.298443 -0.245483
H1    H     H_    0.724396 0.414236 0.661556 0.139886
H2    H     H_    0.275604 0.914238 0.338441 0.139886
C11   C     C_R   0.800119 0.281430 0.764510 0.665106
C12   C     C_R   0.199881 0.781431 0.235489 0.665119
C13   C     C_R   0.816116 0.123251 0.815830 -0.274530
C14   C     C_R   0.183883 0.623251 0.184170 -0.274536
C15   C     C_R   0.761919 0.985697 0.804053 -0.009197
C16   C     C_R   0.238079 0.485694 0.195949 -0.009201
C17   C     C_3   0.767364 0.778833 0.793251 0.533672
C18   C     C_3   0.232633 0.278831 0.206754 0.533679
C19   C     C_3   0.696428 0.790179 0.724377 -0.429141
C20   C     C_3   0.303568 0.290178 0.275629 -0.429141
H3    H     H_    0.815364 0.739699 0.775452 0.123449
H4    H     H_    0.184632 0.239705 0.224553 0.123447
H5    H     H_    0.650468 0.716815 0.736476 0.198334
H6    H     H_    0.349528 0.216806 0.263531 0.198338
H7    H     H_    0.702856 0.758272 0.665264 0.128888
H8    H     H_    0.297140 0.258278 0.334742 0.128885
C21   C     C_R   0.325738 0.295267 0.637932 -0.200514
C22   C     C_R   0.674268 0.795260 0.362075 -0.200526
C23   C     C_R   0.372659 0.143642 0.639192 -0.162521
C24   C     C_R   0.627341 0.643644 0.360809 -0.162514
C25   C     C_R   0.373380 0.986093 0.689704 0.235406
C26   C     C_R   0.626614 0.486103 0.310291 0.235418
C27   C     C_R   0.325350 0.981213 0.735913 -0.072672
C28   C     C_R   0.674648 0.481217 0.264087 -0.072677
C29   C     C_R   0.277605 0.134733 0.732048 -0.038333
C30   C     C_R   0.722398 0.634730 0.267956 -0.038332
C31   C     C_R   0.278328 0.291756 0.683309 0.174441
C32   C     C_R   0.721678 0.791750 0.316698 0.174438
C33   C     C_R   0.323208 0.826311 0.785868 0.633691
C34   C     C_R   0.676790 0.326315 0.214132 0.633701
C35   C     C_R   0.274457 0.823859 0.829365 -0.234708
C36   C     C_R   0.725542 0.323862 0.170635 -0.234708
C37   C     C_R   0.226990 0.974486 0.825155 -0.004010
C38   C     C_R   0.773011 0.474486 0.174847 -0.004010
C39   C     C_R   0.228747 0.131577 0.777015 -0.004884
C40   C     C_R   0.771256 0.631574 0.222989 -0.004886
C41   C     C_R   0.181527 0.285352 0.773664 0.008453
C42   C     C_R   0.818478 0.785345 0.226342 0.008453
C43   C     C_R   0.183246 0.440381 0.724855 -0.145299
C44   C     C_R   0.816761 0.940371 0.275153 -0.145292
C45   C     C_R   0.230981 0.443216 0.680030 -0.132067
C46   C     C_R   0.769026 0.943206 0.319978 -0.132086
C47   C     C_R   0.177995 0.970113 0.868739 -0.206126
C48   C     C_R   0.822005 0.470114 0.131262 -0.206124
C49   C     C_R   0.131161 0.122574 0.866482 -0.182326
C50   C     C_R   0.868840 0.622572 0.133520 -0.182324
C51   C     C_R   0.133391 0.280941 0.818907 0.559073
C52   C     C_R   0.866613 0.780935 0.181098 0.559072
H9    H     H_    0.325108 0.416083 0.600045 0.128871
H10   H     H_    0.674901 0.916072 0.399965 0.128871
H11   H     H_    0.273755 0.702536 0.866459 0.169701
H12   H     H_    0.726244 0.202540 0.133541 0.169700
H13   H     H_    0.177220 0.848526 0.905712 0.170800
H14   H     H_    0.822778 0.348531 0.094285 0.170795
H15   H     H_    0.147729 0.560165 0.721184 0.180146
H16   H     H_    0.852280 0.060153 0.278825 0.180147
H17   H     H_    0.231055 0.564842 0.642890 0.115579
H18   H     H_    0.768954 0.064831 0.357120 0.115580
O11   O     O_R   0.937800 0.775460 0.060470 -0.503827
O12   O     O_R   0.062200 0.275460 0.939530 -0.503825
O13   O     O_R   0.087350 0.441340 0.093710 -0.549587
O14   O     O_R   0.912650 0.941340 0.906290 -0.549589
C53   C     C_R   0.114493 0.610388 0.116797 0.746974
C54   C     C_R   0.885507 0.110388 0.883203 0.746972
O15   O     O_R   0.939820 0.446010 0.069950 -0.556339
O16   O     O_R   0.060180 0.946010 0.930050 -0.556338
O17   O     O_R   0.913690 0.271230 0.915700 -0.502641
O18   O     O_R   0.086310 0.771230 0.084300 -0.502638
C55   C     C_R   0.918847 0.614605 0.085083 0.772239
C56   C     C_R   0.081153 0.114605 0.914918 0.772238
O19   O     O_3   0.991670 0.603050 0.949510 -0.356889
O20   O     O_3   0.008330 0.103050 0.050490 -0.356888
V3    V     V_3+5 0.001550 0.329940 0.009370 1.661826
V4    V     V_3+5 0.998450 0.829940 0.990630 1.661826
F1    F     F_    0.087741 0.428557 0.815085 -0.680843
F2    F     F_    0.912268 0.928544 0.184924 -0.680841
F3    F     F_    0.851393 0.415552 0.770861 -0.683646
F4    F     F_    0.148607 0.915554 0.229137 -0.683641
F5    F     F_    0.760538 0.679274 0.857981 -0.658042
F6    F     F_    0.239458 0.179266 0.142026 -0.658040
N1    N     N_2   0.422564 0.833528 0.695861 -0.461923
H19   H     H_    0.416756 0.759662 0.643920 0.268150
C57   C     C_3   0.496753 0.867616 0.745682 -0.343275
H20   H     H_    0.522989 0.974075 0.717819 0.143634
H21   H     H_    0.528094 0.734288 0.753244 0.187482
H22   H     H_    0.497995 0.917559 0.805842 0.210248
N2    N     N_2   0.577410 0.333571 0.304110 -0.461908
H23   H     H_    0.583203 0.259680 0.356043 0.268166
C58   C     C_3   0.503228 0.367730 0.254284 -0.343319
H24   H     H_    0.476998 0.474176 0.282159 0.143632
H25   H     H_    0.471871 0.234421 0.246691 0.187502
H26   H     H_    0.501997 0.417726 0.194134 0.210230
F7    F     F_    0.367374 0.674516 0.792893 -0.658079
F8    F     F_    0.632624 0.174523 0.207107 -0.658071

loop_
_geom_bond_atom_site_label_1
_geom_bond_atom_site_label_2
_ccdc_geom_bond_type
C43   C45   A    
C36   H12   S    
C13   C15   A    
C5    C15   A    
N2    H23   S    
C47   H13   S    
O2    C4    A    
C2    O7    A    
O19   V4    S    
O18   V4    S    
C27   C29   A    
C43   H15   S    
O5    C3    A    
N1    C57   S    
C19   H7    S    
C22   C24   A    
C20   H8    S    
O12   V3    S    
C18   H4    S    
C10   H2    S    
C7    C9    A    
O14   C54   A    
C37   C39   A    
C38   C40   A    
O11   C55   A    
C40   C42   A    
C31   C45   A    
C25   C27   A    
C49   C51   A    
C42   C44   A    
C44   H16   S    
C24   C26   A    
C29   C31   A    
O11   V4    S    
O20   V4    S    
C30   C32   A    
C57   H20   S    
C17   C19   S    
C6    C16   A    
C6    C8    A    
C27   C33   A    
C58   H26   S    
C35   H11   S    
C41   C51   A    
C28   C30   A    
O6    V2    S    
C53   O18   A    
C21   C23   A    
C5    C19   S    
C37   C47   A    
C25   N1    S    
O16   C56   A    
C26   C28   A    
C33   C35   A    
C48   H14   S    
C34   C36   A    
C3    C8    S    
C22   H10   S    
C39   C41   A    
O13   C53   A    
C50   C55   S    
O4    C2    A    
C49   C56   S    
O5    V1    S    
C51   F1    S    
C19   H5    S    
O15   V3    S    
C47   C49   A    
C17   F5    S    
O4    V2    S    
C28   C34   A    
C46   H18   S    
C23   C25   A    
C45   H17   S    
C54   O17   A    
O6    C4    A    
O20   V3    S    
C14   C53   S    
C18   F6    S    
C42   C52   A    
N2    C58   S    
O1    V2    S    
O12   C56   A    
O17   V3    S    
O2    V1    S    
C6    C20   S    
C44   C46   A    
C38   C48   A    
C1    C24   S    
C8    C10   A    
C2    C23   S    
C9    H1    S    
C57   H22   S    
C17   H3    S    
C34   F8    S    
O3    V1    S    
C58   H24   S    
C52   F2    S    
C9    C11   A    
C20   H6    S    
C41   C43   A    
O3    C1    A    
O19   V3    S    
C21   C31   A    
C11   C13   A    
N1    H19   S    
C12   C14   A    
C29   C39   A    
C30   C40   A    
C35   C37   A    
O7    V1    S    
C1    O8    A    
C15   C17   S    
O8    V2    S    
C12   F4    S    
C16   C18   S    
C11   F3    S    
C57   H21   S    
C4    C7    S    
C14   C16   A    
C5    C7    A    
C36   C38   A    
C33   F7    S    
O15   C55   A    
C13   C54   S    
O14   V4    S    
O13   V3    S    
C21   H9    S    
C32   C46   A    
C48   C50   A    
C10   C12   A    
O9    V2    S    
C22   C32   A    
O10   V1    S    
C50   C52   A    
O1    C3    A    
C26   N2    S    
O16   V4    S    
C18   C20   S    
C58   H25   S    
