data_mof_unit_40589.cif
_audit_creation_date              2012-12-11T15:10:52-0500
_audit_creation_method            fapswitch 2.2
_symmetry_space_group_name_H-M    P1
_symmetry_Int_Tables_number       1
_space_group_crystal_system       triclinic
_cell_length_a                    21.121805
_cell_length_b                    7.236945
_cell_length_c                    18.266219
_cell_angle_alpha                 89.952294
_cell_angle_beta                  93.470009
_cell_angle_gamma                 89.967234
_cell_volume                      2787.00512474

loop_
_atom_site_label
_atom_site_type_symbol
_atom_type_description
_atom_site_fract_x
_atom_site_fract_y
_atom_site_fract_z
_atom_type_partial_charge
O1    O     O_R   0.448880 0.506250 0.415280 -0.529920
O2    O     O_R   0.551120 0.006250 0.584720 -0.529490
O3    O     O_R   0.434830 0.174000 0.557310 -0.520477
O4    O     O_R   0.565170 0.674000 0.442690 -0.520950
C1    C     C_R   0.416971 0.344567 0.579642 0.693937
C2    C     C_R   0.583032 0.844582 0.420360 0.695327
O5    O     O_R   0.441680 0.176440 0.414130 -0.529526
O6    O     O_R   0.558320 0.676440 0.585870 -0.531420
O7    O     O_R   0.558020 0.007570 0.440520 -0.519664
O8    O     O_R   0.441980 0.507570 0.559480 -0.519877
C3    C     C_R   0.428043 0.344945 0.388276 0.704167
C4    C     C_R   0.571980 0.844705 0.611720 0.703785
O9    O     O_3   0.538160 0.339670 0.508820 -0.365135
O10   O     O_3   0.461840 0.839670 0.491180 -0.364284
V1    V     V_3+5 0.492920 0.064260 0.498360 1.429122
V2    V     V_3+5 0.507080 0.564260 0.501640 1.424724
C5    C     C_R   0.876529 0.982187 0.686261 -0.207750
C6    C     C_R   0.123007 0.474214 0.314026 -0.207670
H1    H     H_    0.795947 0.981056 0.569567 0.143472
H2    H     H_    0.203433 0.470338 0.430856 0.143496
H3    H     H_    0.897225 0.011887 0.634692 0.183696
H4    H     H_    0.102092 0.500226 0.365756 0.183881
C7    C     C_R   0.888674 0.942951 0.818243 -0.173071
C8    C     C_R   0.111282 0.441869 0.181762 -0.173266
C9    C     C_R   0.583211 0.811869 0.745827 -0.252092
C10   C     C_R   0.417233 0.318940 0.253913 -0.251340
C11   C     C_R   0.618461 0.804536 0.812983 0.511891
C12   C     C_R   0.382503 0.320794 0.186331 0.513304
C13   C     C_R   0.683536 0.840726 0.816214 -0.243101
C14   C     C_R   0.316881 0.347375 0.183531 -0.235076
C15   C     C_R   0.715614 0.878517 0.752108 0.028585
C16   C     C_R   0.284517 0.380418 0.247819 0.028713
C17   C     C_R   0.678931 0.883628 0.683449 0.059225
C18   C     C_R   0.321077 0.383579 0.316565 0.059782
C19   C     C_R   0.782841 0.910729 0.753850 0.118867
C20   C     C_R   0.217137 0.409963 0.246163 0.119503
C21   C     C_R   0.811196 0.948284 0.686960 0.051898
C22   C     C_R   0.188502 0.442906 0.313237 0.051906
C23   C     C_R   0.774318 0.952588 0.620708 -0.148217
C24   C     C_R   0.225268 0.445375 0.379576 -0.147502
C25   C     C_R   0.709405 0.920551 0.618845 -0.162829
C26   C     C_R   0.290338 0.415999 0.381345 -0.161344
C27   C     C_R   0.823131 0.907675 0.819304 -0.292709
C28   C     C_R   0.176991 0.409298 0.180594 -0.290236
C29   C     C_R   0.915452 0.980177 0.750984 0.455190
C30   C     C_R   0.084203 0.474218 0.249206 0.454976
C31   C     C_R   0.612434 0.850181 0.680910 -0.146092
C32   C     C_R   0.387677 0.351800 0.319048 -0.144457
H5    H     H_    0.805099 0.880785 0.872201 0.112842
H6    H     H_    0.195244 0.386272 0.127545 0.113139
H7    H     H_    0.532547 0.786940 0.744377 0.124426
H8    H     H_    0.467740 0.291207 0.255524 0.123399
H9    H     H_    0.707529 0.836538 0.869909 0.132378
H10   H     H_    0.292822 0.341999 0.129894 0.132936
H11   H     H_    0.683175 0.925182 0.566075 0.106245
H12   H     H_    0.316473 0.418958 0.434191 0.105525
C33   C     C_1   0.864716 0.938971 0.132322 -0.133434
C34   C     C_1   0.135286 0.438999 0.867679 -0.132915
C35   C     C_1   0.821961 0.924876 0.176196 0.034859
C36   C     C_1   0.178041 0.424892 0.823805 0.035481
C37   C     C_1   0.771446 0.905715 0.228371 0.025714
C38   C     C_1   0.228556 0.405712 0.771632 0.026706
C39   C     C_1   0.728866 0.889074 0.272352 0.018577
C40   C     C_1   0.271137 0.389058 0.727652 0.019603
C41   C     C_1   0.678259 0.869968 0.324422 0.010705
C42   C     C_1   0.321744 0.369937 0.675583 0.011319
C43   C     C_1   0.635358 0.855934 0.368122 -0.198909
C44   C     C_1   0.364646 0.355898 0.631883 -0.198846
O11   O     O_R   0.058070 0.289240 0.940580 -0.513049
O12   O     O_R   0.941930 0.789240 0.059420 -0.512873
O13   O     O_R   0.058330 0.616740 0.085880 -0.524926
O14   O     O_R   0.941670 0.116740 0.914120 -0.524945
C45   C     C_R   0.071699 0.448710 0.112045 0.776157
C46   C     C_R   0.928275 0.948916 0.887962 0.775741
O15   O     O_R   0.065180 0.619040 0.942700 -0.522963
O16   O     O_R   0.934820 0.119040 0.057300 -0.523252
O17   O     O_R   0.948870 0.787780 0.915270 -0.521950
O18   O     O_R   0.051130 0.287780 0.084730 -0.521562
C47   C     C_R   0.083147 0.450350 0.920149 0.734599
C48   C     C_R   0.916854 0.950336 0.079853 0.733966
O19   O     O_3   0.961870 0.453310 0.991210 -0.373523
O20   O     O_3   0.038130 0.953310 0.008790 -0.373016
V3    V     V_3+5 0.007070 0.728770 0.001630 1.539434
V4    V     V_3+5 0.992930 0.228770 0.998370 1.538622
S1    S     S_3+6 0.997362 0.028312 0.746329 0.019489
O21   O     O_2   0.016376 0.017229 0.668463 -0.303162
O22   O     O_2   0.010136 0.219972 0.775150 -0.339846
O23   O     O_3   0.040426 0.875612 0.797897 -0.507521
H13   H     H_    0.084056 0.926320 0.801178 0.352159
S2    S     S_3+6 0.002030 0.518471 0.253942 0.019274
O24   O     O_2   0.983181 0.507356 0.331877 -0.303517
O25   O     O_2   0.987957 0.709061 0.224537 -0.339563
O26   O     O_3   0.959944 0.362956 0.202895 -0.507256
H14   H     H_    0.915877 0.410504 0.200071 0.352247
O27   O     O_3   0.588843 0.772612 0.877177 -0.550529
C49   C     C_3   0.576403 0.581834 0.882596 -0.234394
H15   H     H_    0.620800 0.498966 0.881482 0.136518
H16   H     H_    0.541336 0.535410 0.838526 0.134839
H17   H     H_    0.555585 0.554979 0.935903 0.164551
O28   O     O_3   0.411688 0.282845 0.122347 -0.549830
C50   C     C_3   0.445973 0.440318 0.102376 -0.232420
H18   H     H_    0.486273 0.469056 0.142807 0.133505
H19   H     H_    0.414617 0.563767 0.095655 0.140297
H20   H     H_    0.466155 0.413596 0.048711 0.166999

loop_
_geom_bond_atom_site_label_1
_geom_bond_atom_site_label_2
_ccdc_geom_bond_type
C42   C44   T    
C39   C41   S    
O26   H14   S    
C7    C29   A    
C11   C13   A    
C11   O27   S    
O27   C49   S    
O1    C3    A    
O2    C4    A    
O16   V4    S    
C2    O7    A    
C23   C25   A    
S1    O21   D    
O5    C3    A    
C14   H10   S    
C50   H18   S    
C16   C20   A    
C19   C21   A    
C5    C29   A    
C1    C44   S    
H2    C24   S    
C8    C45   S    
C33   C35   T    
O17   V3    S    
C34   C36   T    
C49   H17   S    
C7    C27   A    
C36   C38   S    
C37   C39   T    
C25   H11   S    
C38   C40   T    
C26   H12   S    
C18   C26   A    
C41   C43   T    
C46   O17   A    
C49   H16   S    
C45   O18   A    
C15   C17   A    
C19   C27   A    
C9    C31   A    
C10   C32   A    
C12   O28   S    
O5    V1    S    
C50   H19   S    
C22   C24   A    
C33   C48   S    
C3    C32   S    
C4    C31   S    
C6    C30   A    
O13   V3    S    
S1    O22   D    
C21   C23   A    
C35   C37   S    
O12   C48   A    
O14   C46   A    
O13   C45   A    
C27   H5    S    
C5    H3    S    
C40   C42   S    
O4    V2    S    
C29   S1    S    
C9    H7    S    
O2    V1    S    
C10   H8    S    
S2    O25   D    
O6    C4    A    
C49   H15   S    
O1    V2    S    
C5    C21   A    
O12   V3    S    
O14   V4    S    
H1    C23   S    
C34   C47   S    
O4    C2    A    
C2    C43   S    
C50   H20   S    
C17   C31   A    
C15   C19   A    
C20   C28   A    
C18   C32   A    
C7    C46   S    
C20   C22   A    
O19   V4    S    
O3    V1    S    
S2    O26   S    
S1    O23   S    
C28   H6    S    
C6    H4    S    
O16   C48   A    
O3    C1    A    
C30   S2    S    
C9    C11   A    
C10   C12   A    
C8    C30   A    
C12   C14   A    
C6    C22   A    
C17   C25   A    
C1    O8    A    
C13   C15   A    
O11   V4    S    
O8    V2    S    
C14   C16   A    
O15   V3    S    
S2    O24   D    
C13   H9    S    
C8    C28   A    
C24   C26   A    
O28   C50   S    
O7    V1    S    
O11   C47   A    
O18   V4    S    
O23   H13   S    
O6    V2    S    
O20   V3    S    
O9    V2    S    
O10   V1    S    
O15   C47   A    
C16   C18   A    
