data_mof_unit_60666.cif
_audit_creation_date              2012-12-10T19:18:39-0500
_audit_creation_method            fapswitch 2.2
_symmetry_space_group_name_H-M    P1
_symmetry_Int_Tables_number       1
_space_group_crystal_system       triclinic
_cell_length_a                    24.475055
_cell_length_b                    24.475794
_cell_length_c                    36.240163
_cell_angle_alpha                 90.009274
_cell_angle_beta                  90.016229
_cell_angle_gamma                 90.000724
_cell_volume                      21709.5381801

loop_
_atom_site_label
_atom_site_type_symbol
_atom_type_description
_atom_site_fract_x
_atom_site_fract_y
_atom_site_fract_z
_atom_type_partial_charge
C1    C     C_R   0.728723 0.228638 0.250054 0.112931
C2    C     C_R   0.271375 0.228735 0.249918 0.113193
C3    C     C_R   0.739732 0.823416 0.235529 -0.178496
C4    C     C_R   0.823374 0.260316 0.764570 -0.179795
C5    C     C_R   0.192619 0.723682 0.220051 -0.179902
C6    C     C_R   0.723572 0.807272 0.780059 -0.181006
C7    C     C_R   0.260392 0.176735 0.235261 -0.180250
C8    C     C_R   0.192660 0.276376 0.219944 -0.180579
C9    C     C_R   0.823245 0.739589 0.764761 -0.181321
C10   C     C_R   0.260298 0.823359 0.235394 -0.180099
C11   C     C_R   0.723789 0.192554 0.779929 -0.179894
C12   C     C_R   0.807546 0.723872 0.220102 -0.178591
C13   C     C_R   0.771337 0.271306 0.749973 0.112950
C14   C     C_R   0.176564 0.260249 0.764453 -0.177630
C15   C     C_R   0.739696 0.176615 0.235436 -0.179823
C16   C     C_R   0.260309 0.823375 0.764593 -0.180350
C17   C     C_R   0.636603 0.199305 0.264886 -0.187649
C18   C     C_R   0.363340 0.800739 0.735026 -0.186957
C19   C     C_R   0.816088 0.651967 0.279754 -0.187549
C20   C     C_R   0.199372 0.363489 0.735282 -0.183919
C21   C     C_R   0.363350 0.800757 0.264972 -0.189929
C22   C     C_R   0.652088 0.183756 0.720159 -0.189591
C23   C     C_R   0.183795 0.347896 0.279800 -0.185871
C24   C     C_R   0.228606 0.728729 0.250071 0.113322
C25   C     C_R   0.800711 0.636607 0.735051 -0.191677
C26   C     C_R   0.652176 0.816312 0.720139 -0.191364
C27   C     C_R   0.363434 0.199312 0.264873 -0.190418
C28   C     C_R   0.800673 0.363424 0.735142 -0.187997
C29   C     C_R   0.183647 0.652220 0.279917 -0.189834
C30   C     C_R   0.348031 0.183917 0.720243 -0.185529
C31   C     C_R   0.636501 0.800623 0.264719 -0.186538
C32   C     C_R   0.183592 0.652226 0.720062 -0.191346
C33   C     C_R   0.816305 0.347857 0.279876 -0.188247
C34   C     C_R   0.152132 0.683772 0.779801 -0.187792
C35   C     C_R   0.271307 0.228659 0.749992 0.111488
C36   C     C_R   0.847915 0.316182 0.220206 -0.186169
C37   C     C_R   0.316067 0.151944 0.779746 -0.187308
C38   C     C_R   0.699373 0.863497 0.235276 -0.186432
C39   C     C_R   0.863445 0.300685 0.764834 -0.189320
C40   C     C_R   0.152154 0.683707 0.220166 -0.189939
C41   C     C_R   0.683635 0.847775 0.779910 -0.189859
C42   C     C_R   0.300734 0.136637 0.235034 -0.191054
C43   C     C_R   0.152156 0.316314 0.220103 -0.189671
C44   C     C_R   0.863337 0.699241 0.764999 -0.190398
C45   C     C_R   0.300674 0.863424 0.235117 -0.187878
C46   C     C_R   0.728672 0.771324 0.249995 0.112615
C47   C     C_R   0.683836 0.152066 0.779797 -0.186299
C48   C     C_R   0.848032 0.683917 0.220241 -0.186190
C49   C     C_R   0.136488 0.300614 0.764711 -0.185990
C50   C     C_R   0.699320 0.136552 0.235164 -0.189798
C51   C     C_R   0.300697 0.863427 0.764880 -0.188722
C52   C     C_R   0.647585 0.147568 0.250016 0.000239
C53   C     C_R   0.352402 0.852439 0.749971 -0.000977
C54   C     C_R   0.852428 0.647575 0.249998 -0.002277
C55   C     C_R   0.147565 0.352421 0.749998 -0.001206
C56   C     C_R   0.352393 0.852448 0.250026 0.000245
C57   C     C_R   0.228580 0.728752 0.749902 0.112858
C58   C     C_R   0.647592 0.147550 0.749984 -0.000905
C59   C     C_R   0.147599 0.352458 0.249966 -0.001146
C60   C     C_R   0.852401 0.647562 0.750015 0.000295
C61   C     C_R   0.647552 0.852417 0.750017 0.001091
C62   C     C_R   0.352441 0.147595 0.249971 0.000581
C63   C     C_R   0.852423 0.352426 0.749991 0.000419
C64   C     C_R   0.147551 0.647585 0.250029 0.000705
C65   C     C_R   0.352421 0.147567 0.749996 -0.002929
C66   C     C_R   0.647570 0.852427 0.249999 -0.000101
C67   C     C_R   0.147517 0.647616 0.749951 -0.000531
C68   C     C_R   0.771382 0.271277 0.250056 0.112215
C69   C     C_R   0.852464 0.352397 0.250029 -0.001345
C70   C     C_3   0.621154 0.044455 0.042934 0.146666
C71   C     C_3   0.673395 0.039952 0.065444 -0.817491
C72   C     C_3   0.378860 0.955482 0.957042 0.147181
C73   C     C_3   0.326628 0.959992 0.934524 -0.818969
C74   C     C_3   0.053857 0.617287 0.043006 0.147987
C75   C     C_3   0.053431 0.669563 0.065678 -0.823119
C76   C     C_3   0.946461 0.382617 0.957079 0.146610
C77   C     C_3   0.946942 0.330203 0.934556 -0.817887
C78   C     C_3   0.387805 0.063800 0.042873 0.146705
C79   C     C_1   0.499984 0.999902 0.111627 -0.147988
C80   C     C_3   0.335536 0.067950 0.065366 -0.819179
C81   C     C_3   0.612126 0.936105 0.957052 0.148698
C82   C     C_3   0.664220 0.931927 0.934376 -0.824907
C83   C     C_3   0.055199 0.383331 0.042965 0.148440
C84   C     C_3   0.055376 0.331049 0.065621 -0.824003
C85   C     C_3   0.945136 0.616781 0.957112 0.147033
C86   C     C_3   0.945028 0.669202 0.934605 -0.819908
C87   C     C_3   0.102786 0.577452 0.550254 0.121602
C88   C     C_3   0.152803 0.582176 0.574945 -0.802851
C89   C     C_3   0.896560 0.428513 0.457662 0.158900
C90   C     C_1   0.500019 0.000080 0.888369 -0.149760
C91   C     C_3   0.845929 0.417407 0.434522 -0.830122
C92   C     C_3   0.552874 0.117728 0.543004 0.147536
C93   C     C_3   0.552015 0.170001 0.565672 -0.820633
C94   C     C_3   0.447419 0.882177 0.457085 0.146663
C95   C     C_3   0.448327 0.829763 0.434567 -0.817980
C96   C     C_3   0.874297 0.535406 0.543103 0.140998
C97   C     C_3   0.822775 0.524312 0.565304 -0.813853
C98   C     C_3   0.099108 0.579007 0.447233 0.125076
C99   C     C_3   0.158344 0.596626 0.442886 -0.810998
C100  C     C_3   0.556178 0.883794 0.542955 0.148330
C101  C     C_1   0.999948 0.499990 0.111632 -0.150184
C102  C     C_3   0.556801 0.831511 0.565606 -0.823246
C103  C     C_3   0.444141 0.116313 0.457119 0.146147
C104  C     C_3   0.443586 0.168733 0.434614 -0.814609
C105  C     C_R   0.271242 0.771388 0.749903 0.112509
C106  C     C_1   0.000130 0.500012 0.888373 -0.148746
C107  C     C_1   0.999943 0.501081 0.611617 -0.148743
C108  C     C_1   0.000074 0.501477 0.388381 -0.159170
C109  C     C_1   0.499951 0.999989 0.611632 -0.149289
C110  C     C_1   0.500122 0.000011 0.388373 -0.147936
C111  C     C_R   0.048589 0.517920 0.480762 0.342971
C112  C     C_R   0.950825 0.496996 0.519298 0.308881
C113  C     C_R   0.498468 0.049802 0.480615 0.309390
C114  C     C_R   0.501780 0.950200 0.519398 0.309069
C115  C     C_R   0.951386 0.495231 0.480520 0.316875
C116  C     C_R   0.771322 0.728676 0.249995 0.111825
C117  C     C_R   0.048469 0.517083 0.519562 0.345433
C118  C     C_R   0.499868 0.950177 0.480598 0.309067
C119  C     C_R   0.500377 0.049822 0.519414 0.309090
C120  C     C_R   0.549572 0.994893 0.980605 0.308840
C121  C     C_R   0.450434 0.005037 0.019386 0.309407
C122  C     C_R   0.998897 0.549816 0.980614 0.308858
C123  C     C_R   0.001368 0.450190 0.019398 0.308664
C124  C     C_R   0.450279 0.003141 0.980587 0.308688
C125  C     C_R   0.549729 0.996792 0.019405 0.309084
C126  C     C_R   0.999464 0.450183 0.980598 0.309340
C127  C     C_R   0.228659 0.271310 0.749993 0.112281
C128  C     C_R   0.000799 0.549820 0.019414 0.309001
C129  C     C_R   0.000072 0.506095 0.461282 -0.237210
C130  C     C_R   0.999758 0.505589 0.538717 -0.239404
C131  C     C_R   0.499762 0.000000 0.461305 -0.218518
C132  C     C_R   0.500455 1.000000 0.538705 -0.218663
C133  C     C_R   0.499976 0.999630 0.961296 -0.218447
C134  C     C_R   0.500030 0.000311 0.038697 -0.218582
C135  C     C_R   0.999775 0.500005 0.961305 -0.218526
C136  C     C_R   0.000457 0.499999 0.038705 -0.218611
C137  C     C_R   0.500036 0.000004 0.348901 0.808928
C138  C     C_R   0.271254 0.771377 0.250077 0.112587
C139  C     C_R   0.499971 0.999996 0.651101 0.807185
C140  C     C_R   0.000013 0.499987 0.348909 0.806843
C141  C     C_R   0.999989 0.499939 0.651092 0.808870
C142  C     C_R   0.000038 0.500004 0.848901 0.808268
C143  C     C_R   0.999969 0.499996 0.151101 0.806590
C144  C     C_R   0.500007 0.000034 0.848899 0.807142
C145  C     C_R   0.499993 0.999966 0.151099 0.808944
C146  C     C_R   0.605237 0.894762 0.250000 0.787861
C147  C     C_R   0.394761 0.105237 0.749999 0.788764
C148  C     C_R   0.105237 0.605239 0.250006 0.783479
C149  C     C_R   0.728695 0.228650 0.749972 0.112529
C150  C     C_R   0.894756 0.394763 0.749999 0.785605
C151  C     C_R   0.394759 0.105244 0.249996 0.782423
C152  C     C_R   0.605237 0.894759 0.750004 0.782842
C153  C     C_R   0.894771 0.394753 0.250006 0.787541
C154  C     C_R   0.105224 0.605250 0.749989 0.784543
C155  C     C_R   0.605246 0.105232 0.749997 0.786320
C156  C     C_R   0.394751 0.894765 0.250003 0.784970
C157  C     C_R   0.105236 0.394760 0.750000 0.789003
C158  C     C_R   0.894762 0.605239 0.250000 0.787307
C159  C     C_R   0.394760 0.894757 0.749997 0.786438
C160  C     C_R   0.228730 0.271388 0.249923 0.112215
C161  C     C_R   0.605238 0.105242 0.250002 0.785034
C162  C     C_R   0.894753 0.605240 0.750002 0.782736
C163  C     C_R   0.105247 0.394767 0.249993 0.785824
C164  C     C_1   0.000194 0.503389 0.421569 0.096926
C165  C     C_1   0.999871 0.502717 0.578428 0.121118
C166  C     C_1   0.500103 0.000010 0.421573 0.121776
C167  C     C_1   0.500038 0.999989 0.578434 0.121474
C168  C     C_1   0.500011 0.000019 0.921567 0.120945
C169  C     C_1   0.499994 0.999945 0.078428 0.121738
C170  C     C_1   0.000115 0.500012 0.921573 0.121304
C171  C     C_R   0.771272 0.728642 0.750044 0.113040
C172  C     C_1   0.000036 0.499991 0.078434 0.120897
C173  C     C_R   0.676702 0.239648 0.264654 -0.179059
C174  C     C_R   0.323230 0.760405 0.735243 -0.179274
C175  C     C_R   0.776131 0.692451 0.279890 -0.179036
C176  C     C_R   0.239727 0.323404 0.735536 -0.177045
C177  C     C_R   0.323251 0.760414 0.264747 -0.180225
C178  C     C_R   0.692575 0.223711 0.720016 -0.179213
C179  C     C_R   0.223760 0.307422 0.279917 -0.178832
C180  C     C_R   0.760338 0.676675 0.735317 -0.181592
C181  C     C_R   0.692650 0.776346 0.720014 -0.181254
C182  C     C_R   0.728621 0.771289 0.750041 0.113610
C183  C     C_R   0.323374 0.239690 0.264592 -0.180380
C184  C     C_R   0.760320 0.323335 0.735386 -0.179126
C185  C     C_R   0.223581 0.692729 0.280073 -0.181181
C186  C     C_R   0.307540 0.223867 0.720103 -0.177472
C187  C     C_R   0.676582 0.760263 0.264462 -0.178089
C188  C     C_R   0.223531 0.692730 0.719904 -0.179915
C189  C     C_R   0.776357 0.307362 0.280025 -0.178876
C190  C     C_R   0.192602 0.723741 0.779915 -0.180009
C191  C     C_R   0.807437 0.276220 0.220081 -0.179616
C192  C     C_R   0.276106 0.192423 0.779882 -0.178405
H1    H     H_    0.666718 0.279649 0.275480 0.130676
H2    H     H_    0.333370 0.279672 0.275450 0.130621
H3    H     H_    0.925961 0.625483 0.984361 0.168243
H4    H     H_    0.920144 0.585838 0.942109 0.117373
H5    H     H_    0.963278 0.661621 0.907013 0.261377
H6    H     H_    0.902440 0.683889 0.930954 0.200291
H7    H     H_    0.969067 0.701219 0.949045 0.258536
H8    H     H_    0.066627 0.591458 0.566352 0.112319
H9    H     H_    0.108580 0.605003 0.526216 0.134364
H10   H     H_    0.189946 0.569550 0.559541 0.260275
H11   H     H_    0.157831 0.625138 0.584202 0.194126
H12   H     H_    0.147906 0.555589 0.599564 0.261292
H13   H     H_    0.720309 0.333333 0.724577 0.130374
H14   H     H_    0.890860 0.408933 0.485132 0.171422
H15   H     H_    0.932258 0.409519 0.443501 0.126431
H16   H     H_    0.850739 0.435840 0.406702 0.260731
H17   H     H_    0.839939 0.372660 0.431471 0.201941
H18   H     H_    0.809366 0.435217 0.448117 0.260250
H19   H     H_    0.571881 0.126945 0.515780 0.168775
H20   H     H_    0.578439 0.087166 0.557918 0.116514
H21   H     H_    0.533909 0.161911 0.593240 0.260574
H22   H     H_    0.594325 0.185449 0.569371 0.199653
H23   H     H_    0.527389 0.201659 0.551330 0.259966
H24   H     H_    0.250049 0.696266 0.303896 0.129706
H25   H     H_    0.421821 0.912625 0.442092 0.117368
H26   H     H_    0.428427 0.873100 0.484335 0.168260
H27   H     H_    0.472994 0.798223 0.448995 0.258778
H28   H     H_    0.406032 0.814245 0.430922 0.199837
H29   H     H_    0.466413 0.837700 0.406973 0.261841
H30   H     H_    0.862087 0.553070 0.515994 0.164184
H31   H     H_    0.899417 0.565779 0.558537 0.116473
H32   H     H_    0.833696 0.507306 0.592750 0.261744
H33   H     H_    0.799714 0.562934 0.569301 0.198823
H34   H     H_    0.796421 0.494630 0.550438 0.258218
H35   H     H_    0.304202 0.250530 0.696375 0.133197
H36   H     H_    0.077948 0.610037 0.464699 0.088431
H37   H     H_    0.079906 0.578958 0.419471 0.148343
H38   H     H_    0.180303 0.567645 0.424547 0.261796
H39   H     H_    0.160143 0.638125 0.430562 0.195885
H40   H     H_    0.178773 0.597450 0.470253 0.256517
H41   H     H_    0.580878 0.915060 0.557875 0.116192
H42   H     H_    0.575426 0.875124 0.515725 0.168316
H43   H     H_    0.533068 0.799176 0.551259 0.259691
H44   H     H_    0.599531 0.817260 0.569290 0.198586
H45   H     H_    0.538490 0.839081 0.593181 0.261022
H46   H     H_    0.666531 0.720212 0.275167 0.130807
H47   H     H_    0.424900 0.124852 0.484371 0.169071
H48   H     H_    0.419406 0.085162 0.442118 0.117472
H49   H     H_    0.461891 0.161308 0.407019 0.261315
H50   H     H_    0.400875 0.183063 0.430970 0.201454
H51   H     H_    0.467361 0.200950 0.449052 0.258984
H52   H     H_    0.249988 0.696242 0.696085 0.130778
H53   H     H_    0.749838 0.303905 0.303816 0.131292
H54   H     H_    0.196137 0.750238 0.803721 0.130782
H55   H     H_    0.803960 0.249672 0.196297 0.130782
H56   H     H_    0.249443 0.195755 0.803608 0.131954
H57   H     H_    0.333183 0.720430 0.724359 0.130842
H58   H     H_    0.779782 0.833468 0.224822 0.130443
H59   H     H_    0.833393 0.220314 0.775375 0.130407
H60   H     H_    0.196139 0.750160 0.196242 0.130586
H61   H     H_    0.750024 0.803728 0.803888 0.129609
H62   H     H_    0.220411 0.166762 0.224388 0.130334
H63   H     H_    0.196134 0.249874 0.196138 0.129510
H64   H     H_    0.833202 0.779547 0.775676 0.130501
H65   H     H_    0.220315 0.833333 0.224526 0.130279
H66   H     H_    0.750361 0.196002 0.803705 0.130807
H67   H     H_    0.804202 0.750529 0.196371 0.132080
H68   H     H_    0.749476 0.695793 0.303620 0.131708
H69   H     H_    0.166507 0.220197 0.775153 0.130437
H70   H     H_    0.779693 0.166603 0.224621 0.130395
H71   H     H_    0.220337 0.833367 0.775458 0.130366
H72   H     H_    0.596782 0.208836 0.276224 0.155231
H73   H     H_    0.403134 0.791227 0.723639 0.156797
H74   H     H_    0.819039 0.624612 0.303162 0.158351
H75   H     H_    0.208947 0.403367 0.724055 0.157524
H76   H     H_    0.403152 0.791257 0.276364 0.154994
H77   H     H_    0.624812 0.180699 0.696704 0.155524
H78   H     H_    0.180712 0.375102 0.303285 0.159396
H79   H     H_    0.279781 0.333456 0.724835 0.131541
H80   H     H_    0.791236 0.596830 0.723611 0.154490
H81   H     H_    0.625020 0.819468 0.696628 0.154848
H82   H     H_    0.403235 0.208802 0.276275 0.154911
H83   H     H_    0.791138 0.403251 0.723812 0.154659
H84   H     H_    0.180513 0.625043 0.303409 0.155914
H85   H     H_    0.375394 0.180979 0.696840 0.159194
H86   H     H_    0.596626 0.791053 0.275952 0.155230
H87   H     H_    0.180442 0.625028 0.696573 0.155413
H88   H     H_    0.819394 0.375105 0.303341 0.156138
H89   H     H_    0.124975 0.680651 0.803302 0.158078
H90   H     H_    0.333220 0.720446 0.275631 0.130578
H91   H     H_    0.875134 0.319248 0.196734 0.158373
H92   H     H_    0.319013 0.124580 0.803151 0.158359
H93   H     H_    0.708942 0.903374 0.224043 0.155038
H94   H     H_    0.903278 0.291167 0.776172 0.154915
H95   H     H_    0.124987 0.680559 0.196660 0.155313
H96   H     H_    0.680485 0.874942 0.803414 0.155210
H97   H     H_    0.291223 0.096834 0.223649 0.154775
H98   H     H_    0.124919 0.319411 0.196631 0.155206
H99   H     H_    0.903119 0.708726 0.776432 0.156251
H100  H     H_    0.291183 0.903213 0.223712 0.155185
H101  H     H_    0.696000 0.250262 0.696238 0.130799
H102  H     H_    0.680802 0.124813 0.803254 0.158476
H103  H     H_    0.875387 0.680969 0.196834 0.158810
H104  H     H_    0.096608 0.291045 0.775939 0.155258
H105  H     H_    0.708825 0.096730 0.223810 0.154815
H106  H     H_    0.291222 0.903219 0.776292 0.156453
H107  H     H_    0.592529 0.072056 0.057940 0.117747
H108  H     H_    0.631494 0.062809 0.015689 0.167908
H109  H     H_    0.703176 0.013211 0.050999 0.258501
H110  H     H_    0.691760 0.081086 0.069105 0.200094
H111  H     H_    0.664256 0.022417 0.093031 0.261962
H112  H     H_    0.250289 0.303934 0.303712 0.132027
H113  H     H_    0.368512 0.937119 0.984283 0.168353
H114  H     H_    0.407492 0.927888 0.942037 0.117961
H115  H     H_    0.335777 0.977541 0.906942 0.261372
H116  H     H_    0.308266 0.918860 0.930851 0.200618
H117  H     H_    0.296840 0.986726 0.948969 0.258397
H118  H     H_    0.072941 0.626350 0.015783 0.168163
H119  H     H_    0.079168 0.586512 0.057918 0.116585
H120  H     H_    0.035259 0.661619 0.093245 0.260715
H121  H     H_    0.095868 0.684659 0.069378 0.199503
H122  H     H_    0.029069 0.701426 0.051338 0.259422
H123  H     H_    0.720375 0.666709 0.724410 0.129790
H124  H     H_    0.921115 0.413277 0.942089 0.117388
H125  H     H_    0.927393 0.373690 0.984328 0.167964
H126  H     H_    0.971348 0.298458 0.948982 0.258602
H127  H     H_    0.904522 0.315032 0.930906 0.200140
H128  H     H_    0.965097 0.337997 0.906964 0.261883
H129  H     H_    0.380614 0.083581 0.015618 0.168198
H130  H     H_    0.420576 0.086339 0.057879 0.116863
H131  H     H_    0.341679 0.049183 0.092964 0.261659
H132  H     H_    0.324166 0.111542 0.069002 0.199943
H133  H     H_    0.301770 0.046440 0.050923 0.258737
H134  H     H_    0.696187 0.749884 0.696192 0.129192
H135  H     H_    0.579236 0.913578 0.942154 0.116211
H136  H     H_    0.619503 0.916323 0.984283 0.168684
H137  H     H_    0.698109 0.953419 0.948700 0.259706
H138  H     H_    0.675537 0.888330 0.930698 0.199298
H139  H     H_    0.657874 0.950697 0.906799 0.260277
H140  H     H_    0.080156 0.414392 0.057886 0.116424
H141  H     H_    0.074384 0.374495 0.015739 0.168561
H142  H     H_    0.031380 0.298911 0.051272 0.259482
H143  H     H_    0.097984 0.316442 0.069314 0.199252
H144  H     H_    0.037118 0.338778 0.093192 0.260591
O1    O     O_3   0.500000 0.000000 0.250000 -0.473822
O2    O     O_R   0.500000 0.045450 0.668550 -0.636081
O3    O     O_R   0.045450 0.500000 0.331450 -0.636233
O4    O     O_R   0.954550 0.500000 0.668550 -0.633722
O5    O     O_R   0.000000 0.545450 0.831450 -0.634671
O6    O     O_R   0.000000 0.454550 0.168550 -0.635776
O7    O     O_R   0.454550 0.000000 0.831450 -0.634846
O8    O     O_R   0.545450 0.000000 0.168550 -0.633730
O9    O     O_R   0.000000 0.454550 0.831450 -0.632834
O10   O     O_R   0.000000 0.545450 0.168550 -0.635560
O11   O     O_R   0.545450 0.000000 0.831450 -0.635349
O12   O     O_3   0.500000 1.000000 0.750000 -0.473747
O13   O     O_R   0.454550 0.000000 0.168550 -0.632365
O14   O     O_R   0.564020 0.890520 0.271340 -0.644969
O15   O     O_R   0.435980 0.109480 0.728660 -0.643450
O16   O     O_R   0.109480 0.564020 0.271340 -0.645218
O17   O     O_R   0.890520 0.435980 0.728660 -0.644934
O18   O     O_R   0.435980 0.109480 0.271340 -0.647331
O19   O     O_R   0.564020 0.890520 0.728660 -0.647643
O20   O     O_R   0.890520 0.435980 0.271340 -0.645038
O21   O     O_R   0.109480 0.564020 0.728660 -0.647134
O22   O     O_R   0.564020 0.109480 0.728660 -0.645786
O23   O     O_3   0.000000 0.500000 0.250000 -0.474009
O24   O     O_R   0.435980 0.890520 0.271340 -0.647692
O25   O     O_R   0.109480 0.435980 0.728660 -0.642811
O26   O     O_R   0.890520 0.564020 0.271340 -0.644273
O27   O     O_R   0.435980 0.890520 0.728660 -0.643559
O28   O     O_R   0.564020 0.109480 0.271340 -0.644717
O29   O     O_R   0.890520 0.564020 0.728660 -0.648000
O30   O     O_R   0.109480 0.435980 0.271340 -0.643493
O31   O     O_R   0.064020 0.390520 0.771340 -0.645235
O32   O     O_R   0.935980 0.609480 0.228660 -0.644172
O33   O     O_R   0.609480 0.064020 0.771340 -0.643944
O34   O     O_3   1.000000 0.500000 0.750000 -0.473701
O35   O     O_R   0.390520 0.935980 0.228660 -0.644745
O36   O     O_R   0.935980 0.609480 0.771340 -0.646017
O37   O     O_R   0.064020 0.390520 0.228660 -0.646007
O38   O     O_R   0.390520 0.935980 0.771340 -0.646480
O39   O     O_R   0.609480 0.064020 0.228660 -0.647746
O40   O     O_R   0.064020 0.609480 0.228660 -0.645973
O41   O     O_R   0.935980 0.390520 0.771340 -0.647587
O42   O     O_R   0.609480 0.935980 0.228660 -0.645035
O43   O     O_R   0.390520 0.064020 0.771340 -0.645641
O44   O     O_R   0.935980 0.390520 0.228660 -0.643862
O45   O     O_R   0.500000 0.045450 0.331450 -0.632701
O46   O     O_R   0.064020 0.609480 0.771340 -0.645472
O47   O     O_R   0.390520 0.064020 0.228660 -0.647447
O48   O     O_R   0.609480 0.935980 0.771340 -0.645597
O49   O     O_3   0.598418 0.991872 0.038479 -0.582523
O50   O     O_3   0.401592 0.008064 0.961511 -0.583295
O51   O     O_3   0.999664 0.598738 0.038491 -0.582744
O52   O     O_3   0.000633 0.401264 0.961525 -0.582312
O53   O     O_3   0.401600 0.008195 0.038443 -0.582220
O54   O     O_3   0.598403 0.991717 0.961545 -0.582722
O55   O     O_3   0.000797 0.401257 0.038458 -0.582886
O56   O     O_R   0.500000 0.954550 0.668550 -0.633817
O57   O     O_3   0.999515 0.598750 0.961558 -0.583035
O58   O     O_3   0.097256 0.522700 0.538504 -0.546182
O59   O     O_3   0.903483 0.485511 0.461350 -0.584488
O60   O     O_3   0.498836 0.098728 0.538491 -0.582487
O61   O     O_3   0.501436 0.901269 0.461525 -0.582429
O62   O     O_3   0.903040 0.485952 0.538218 -0.580091
O63   O     O_3   0.097648 0.525812 0.462490 -0.552835
O64   O     O_3   0.501625 0.901265 0.538458 -0.582161
O65   O     O_3   0.498670 0.098739 0.461558 -0.582511
O66   O     O_R   0.954550 0.500000 0.331450 -0.633918
O67   O     O_R   0.045450 0.500000 0.668550 -0.634271
O68   O     O_R   0.500000 0.954550 0.331450 -0.633295
Zn1   Zn    Zn3+2 0.564990 0.000000 0.219470 0.970794
Zn2   Zn    Zn3+2 0.935010 0.500000 0.280530 0.971732
Zn3   Zn    Zn3+2 0.500000 0.064990 0.719470 0.971601
Zn4   Zn    Zn3+2 0.500000 0.935010 0.280530 0.971173
Zn5   Zn    Zn3+2 0.935010 0.500000 0.719470 0.968441
Zn6   Zn    Zn3+2 0.064990 0.500000 0.280530 0.970143
Zn7   Zn    Zn3+2 0.500000 0.935010 0.719470 0.969538
Zn8   Zn    Zn3+2 0.500000 0.064990 0.280530 0.969676
Zn9   Zn    Zn3+2 0.435010 1.000000 0.780530 0.970511
Zn10  Zn    Zn3+2 0.000000 0.564990 0.219470 0.969550
Zn11  Zn    Zn3+2 1.000000 0.435010 0.780530 0.971650
Zn12  Zn    Zn3+2 0.435010 0.000000 0.219470 0.969780
Zn13  Zn    Zn3+2 0.564990 1.000000 0.780530 0.969705
Zn14  Zn    Zn3+2 1.000000 0.435010 0.219470 0.970515
Zn15  Zn    Zn3+2 0.000000 0.564990 0.780530 0.968579
Zn16  Zn    Zn3+2 0.064990 0.500000 0.719470 0.972355

loop_
_geom_bond_atom_site_label_1
_geom_bond_atom_site_label_2
_ccdc_geom_bond_type
C102  H44   S    
C35   C192  A    
C36   C191  A    
C191  H55   S    
C100  H42   S    
C3    H58   S    
C41   C61   A    
C91   H16   S    
C143  O10   A    
C108  C164  T    
C124  C133  A    
C80   H133  S    
C153  O44   A    
C87   O58   S    
C92   O60   S    
C43   H98   S    
C85   O57   S    
C1    C68   S    
C33   C189  A    
C120  C133  A    
C7    C42   A    
C47   H102  S    
O31   Zn11  S    
C118  C131  A    
C131  C166  S    
C134  C169  S    
C50   C52   A    
C8    C43   A    
C1    C15   A    
C25   C60   A    
C65   C147  S    
O29   Zn5   S    
O34   Zn5   S    
C23   C179  A    
O45   Zn8   S    
C72   H114  S    
C52   C161  S    
C29   H84   S    
C21   C177  A    
C97   H34   S    
C29   C64   A    
C39   H94   S    
C141  O4    A    
C147  O43   A    
C87   H8    S    
C91   H18   S    
C17   C52   A    
C17   C173  A    
C106  C142  S    
C78   O53   S    
C53   C159  S    
C154  O46   A    
C120  C125  A    
C85   H3    S    
C123  C126  A    
C189  H53   S    
C184  H13   S    
C129  C164  S    
C24   C185  A    
O10   Zn10  S    
O13   Zn12  S    
C18   H73   S    
O4    Zn5   S    
C13   C184  A    
C10   H65   S    
C152  O19   A    
C148  O16   A    
C142  O9    A    
C35   C127  S    
C37   H92   S    
C157  O25   A    
C86   H6    S    
C19   H74   S    
C139  O2    A    
O5    Zn15  S    
C9    C171  A    
O15   Zn3   S    
C113  O65   S    
C127  C176  A    
O23   Zn14  S    
C40   H95   S    
C93   H22   S    
O21   Zn16  S    
O44   Zn14  S    
C158  O32   A    
C72   C73   S    
C22   C58   A    
C99   H39   S    
O23   Zn10  S    
C111  O63   S    
O1    Zn4   S    
C153  O20   A    
C185  H24   S    
C130  C165  S    
O34   Zn15  S    
C89   H15   S    
C68   C189  A    
C146  O42   A    
C77   H126  S    
C155  O33   A    
O48   Zn13  S    
C2    C183  A    
C27   C183  A    
O34   Zn11  S    
C66   C146  S    
C28   C63   A    
C147  O15   A    
C98   C99   S    
O41   Zn11  S    
C31   C187  A    
O38   Zn9   S    
C10   C138  A    
C88   H10   S    
C159  O27   A    
C51   H106  S    
C114  O64   S    
C107  C165  T    
C23   H78   S    
C155  O22   A    
C2    C7    A    
C16   C51   A    
C56   C156  S    
C25   C180  A    
O3    Zn6   S    
C85   C86   S    
C23   C59   A    
C3    C46   A    
C1    C173  A    
O1    Zn8   S    
O32   Zn10  S    
C6    C182  A    
C67   C154  S    
C78   C80   S    
C104  H49   S    
C183  H2    S    
C144  O11   A    
C152  O48   A    
C135  C170  S    
C162  O29   A    
C74   H119  S    
O23   Zn6   S    
O66   Zn2   S    
C94   O61   S    
C99   H40   S    
O16   Zn6   S    
C186  H35   S    
C103  H48   S    
C78   H129  S    
C37   C65   A    
C60   C162  S    
C70   H107  S    
O6    Zn14  S    
C107  C141  S    
C42   C62   A    
C21   H76   S    
C43   C59   A    
C64   C148  S    
C106  C170  T    
C5    H60   S    
C10   C45   A    
C111  C129  A    
O18   Zn8   S    
C190  H54   S    
O42   Zn1   S    
C34   C190  A    
C45   C56   A    
C133  C168  S    
C28   H83   S    
C76   H125  S    
C68   C191  A    
C49   C55   A    
C77   H128  S    
C94   H25   S    
C6    H61   S    
C51   C53   A    
C144  O7    A    
C63   C150  S    
O30   Zn6   S    
C27   C62   A    
C98   O63   S    
C95   H27   S    
C83   C84   S    
C96   H31   S    
C178  H101  S    
O25   Zn16  S    
C88   H12   S    
C32   H87   S    
C75   H121  S    
C161  O28   A    
C16   C105  A    
C32   C67   A    
C181  H134  S    
C18   C174  A    
C22   H77   S    
C103  H47   S    
C7    H62   S    
C46   C187  A    
C92   H20   S    
C73   H115  S    
C187  H46   S    
C19   C54   A    
C112  O62   S    
C102  H45   S    
C116  C175  A    
C90   C168  T    
C137  O45   A    
C140  O3    A    
C89   O59   S    
C26   H81   S    
C174  H57   S    
C156  O35   A    
C33   C69   A    
C104  H51   S    
C86   H7    S    
C83   O55   S    
C192  H56   S    
O35   Zn12  S    
C111  C117  A    
C98   H36   S    
O24   Zn4   S    
C17   H72   S    
C28   C184  A    
C20   C176  A    
C163  O30   A    
C81   H136  S    
C35   C186  A    
O1    Zn1   S    
C149  C178  A    
C29   C185  A    
C179  H112  S    
C19   C175  A    
C30   C65   A    
C145  O13   A    
O33   Zn13  S    
C177  H90   S    
C37   C192  A    
C2    C160  S    
C100  O64   S    
C80   H131  S    
C112  C130  A    
C138  C177  A    
C70   O49   S    
C90   C144  S    
C176  H79   S    
C12   C116  A    
C33   H88   S    
C125  C134  A    
C81   H135  S    
C97   H33   S    
C87   C88   S    
O26   Zn2   S    
C44   H99   S    
O8    Zn1   S    
C11   C47   A    
C132  C167  S    
C91   H17   S    
C181  C182  A    
C84   H143  S    
C95   H29   S    
C26   C61   A    
C71   H111  S    
O67   Zn16  S    
C128  C136  A    
C93   H23   S    
O14   Zn4   S    
C151  O18   A    
C20   H75   S    
C82   H138  S    
C31   H86   S    
O36   Zn15  S    
C18   C53   A    
C113  C119  A    
C16   H71   S    
C11   C149  A    
C136  C172  S    
C9    C44   A    
O39   Zn1   S    
C71   H110  S    
C72   O50   S    
C70   C71   S    
C12   H67   S    
C121  C134  A    
C73   H117  S    
O2    Zn3   S    
C175  H68   S    
C42   H97   S    
C102  H43   S    
O1    Zn12  S    
O40   Zn10  S    
C100  H41   S    
O9    Zn11  S    
C62   C151  S    
C141  O67   A    
C93   H21   S    
C125  O49   S    
C36   H91   S    
O56   Zn7   S    
O43   Zn9   S    
C121  O53   S    
C96   O62   S    
C69   C153  S    
C14   C127  A    
O7    Zn9   S    
C83   H140  S    
O34   Zn16  S    
C89   H14   S    
C76   H124  S    
C95   H28   S    
C81   O54   S    
C159  O38   A    
C139  O56   A    
C158  O26   A    
C72   H113  S    
C119  O60   S    
C126  C135  A    
C96   H30   S    
C173  H1    S    
C188  H52   S    
C8    C160  A    
C156  O24   A    
C110  C137  S    
C71   H109  S    
C4    H59   S    
C34   C67   A    
C21   C56   A    
C85   H4    S    
C180  H123  S    
C8    H63   S    
C97   H32   S    
C46   C116  S    
O20   Zn2   S    
C79   C169  T    
C44   C60   A    
C143  O6    A    
C104  H50   S    
C92   C93   S    
C122  C128  A    
C94   C95   S    
C122  C135  A    
C163  O37   A    
C86   H5    S    
C26   C181  A    
C55   C157  S    
C150  O41   A    
C151  O47   A    
C78   H130  S    
C34   H89   S    
C103  C104  S    
C70   H108  S    
O12   Zn9   S    
C87   H9    S    
O12   Zn13  S    
C31   C66   A    
C57   C105  S    
C82   H137  S    
C110  C166  T    
C171  C182  S    
C12   C48   A    
C126  O52   S    
C22   C178  A    
C81   C82   S    
C124  O50   S    
C79   C145  S    
C48   C54   A    
C101  C172  T    
C30   C186  A    
O22   Zn3   S    
C115  O59   S    
C50   H105  S    
C14   C49   A    
C77   H127  S    
C128  O51   S    
C84   H142  S    
C94   H26   S    
C103  O65   S    
C49   H104  S    
C15   C50   A    
C4    C13   A    
C57   C188  A    
C109  C167  T    
O23   Zn2   S    
C38   C66   A    
C122  O57   S    
C121  C124  A    
C6    C41   A    
O19   Zn7   S    
O17   Zn5   S    
C41   H96   S    
C76   O52   S    
C20   C55   A    
C120  O54   S    
C154  O21   A    
C74   C75   S    
C32   C188  A    
C162  O36   A    
C25   H80   S    
C11   H66   S    
C59   C163  S    
C76   C77   S    
C3    C38   A    
C108  C140  S    
C24   C138  S    
C160  C179  A    
C74   H118  S    
C14   H69   S    
C54   C158  S    
C98   H37   S    
C137  O68   A    
C117  O58   S    
O28   Zn8   S    
C4    C39   A    
C118  O61   S    
C96   C97   S    
O12   Zn3   S    
C100  C102  S    
C119  C132  A    
C83   H141  S    
C150  O17   A    
C117  C130  A    
C114  C118  A    
C48   H103  S    
C27   H82   S    
C75   H120  S    
C105  C174  A    
C80   H132  S    
C171  C180  A    
C9    H64   S    
C89   C91   S    
O46   Zn15  S    
C145  O8    A    
C99   H38   S    
C36   C69   A    
C115  C129  A    
C30   H85   S    
C113  C131  A    
C114  C132  A    
O68   Zn4   S    
O37   Zn14  S    
C39   C63   A    
C84   H144  S    
C40   C64   A    
C123  C136  A    
C109  C139  S    
C13   C149  S    
C57   C190  A    
C15   H70   S    
C74   O51   S    
C47   C58   A    
C101  C143  S    
C5    C24   A    
C45   H100  S    
C161  O39   A    
O12   Zn7   S    
C88   H11   S    
C82   H139  S    
C146  O14   A    
C61   C152  S    
O27   Zn7   S    
C75   H122  S    
C58   C155  S    
C148  O40   A    
C142  O5    A    
C140  O66   A    
O11   Zn13  S    
C92   H19   S    
C5    C40   A    
C73   H116  S    
O47   Zn12  S    
C157  O31   A    
C112  C115  A    
C38   H93   S    
C123  O55   S    
