data_mof_unit_17901.cif
_audit_creation_date              2013-03-05T15:58:04-0500
_audit_creation_method            fapswitch 2.2
_symmetry_space_group_name_H-M    P1
_symmetry_Int_Tables_number       1
_space_group_crystal_system       triclinic
_cell_length_a                    15.096014
_cell_length_b                    13.677424
_cell_length_c                    10.778501
_cell_angle_alpha                 90.018171
_cell_angle_beta                  90.15776
_cell_angle_gamma                 90.253941
_cell_volume                      2225.45609718

loop_
_atom_site_label
_atom_site_type_symbol
_atom_site_description
_atom_site_fract_x
_atom_site_fract_y
_atom_site_fract_z
_atom_type_partial_charge
O1    O     O_R   0.370250 0.582280 0.500040 -0.597337
O2    O     O_R   0.370250 0.417720 0.500040 -0.512284
C1    C     C_R   0.328373 0.499681 0.502029 0.908627
O3    O     O_R   0.499970 0.582270 0.317700 -0.532239
O4    O     O_R   0.499970 0.417730 0.317700 -0.515125
C2    C     C_R   0.494224 0.500095 0.259752 0.962432
Cu1   Cu    Cu3+1 0.499990 0.597420 0.500010 1.013407
Cu2   Cu    Cu3+1 0.499990 0.402580 0.500010 1.047534
O5    O     O_R   0.629730 0.582260 0.499980 -0.601949
O6    O     O_R   0.629730 0.417740 0.499980 -0.602802
O7    O     O_R   0.500000 0.582270 0.682320 -0.604878
O8    O     O_R   0.500000 0.417730 0.682320 -0.602661
C3    C     C_R   0.671485 0.500182 0.499695 0.845291
C4    C     C_R   0.497960 0.500158 0.740086 0.837705
C5    C     C_3   0.458020 0.605924 0.068075 0.478930
C6    C     C_3   0.422666 0.417084 0.067397 0.464648
C7    C     C_3   0.473571 0.605314 0.924973 -0.454541
C8    C     C_3   0.419339 0.431477 0.922689 -0.449073
H1    H     H_    0.417174 0.637156 0.872810 0.211548
H2    H     H_    0.355625 0.464564 0.892730 0.219200
H3    H     H_    0.530200 0.653370 0.899190 0.224817
H4    H     H_    0.421128 0.360224 0.873325 0.220254
H5    H     H_    0.638234 0.516563 0.892066 0.182190
H6    H     H_    0.599746 0.393215 0.899389 0.219907
C9    C     C_3   0.584973 0.475082 0.072958 1.060103
C10   C     C_3   0.489223 0.500400 0.121198 -0.423362
C11   C     C_3   0.494036 0.500869 0.877394 -0.167607
C12   C     C_3   0.584773 0.468993 0.930101 -0.410446
C13   C     C_R   0.815058 0.588698 0.488484 -0.205042
C14   C     C_R   0.768187 0.500336 0.499615 -0.056660
C15   C     C_R   0.813899 0.411751 0.510943 -0.215260
C16   C     C_R   0.906088 0.410842 0.511826 0.112952
C17   C     C_R   0.953187 0.499688 0.500728 0.103807
C18   C     C_R   0.907421 0.588960 0.488829 0.105653
C19   C     C_R   0.951849 0.322537 0.523851 -0.212355
C20   C     C_R   0.044085 0.322032 0.524972 -0.109961
C21   C     C_R   0.091796 0.409925 0.513863 -0.004886
C22   C     C_R   0.046106 0.499239 0.501607 -0.013234
C23   C     C_R   0.093127 0.588112 0.490319 0.102642
C24   C     C_R   0.047125 0.676444 0.478294 -0.140515
C25   C     C_R   0.954756 0.676873 0.477608 -0.185092
C26   C     C_R   0.184280 0.410048 0.514729 0.590936
C27   C     C_R   0.231352 0.498748 0.502917 -0.157610
C28   C     C_R   0.185386 0.587216 0.491049 -0.263286
H7    H     H_    0.779807 0.657240 0.479271 0.155443
H8    H     H_    0.777843 0.343353 0.519718 0.156533
H9    H     H_    0.916292 0.253871 0.532497 0.152794
H10   H     H_    0.077842 0.252695 0.534457 0.203506
H11   H     H_    0.221345 0.655630 0.481763 0.193795
H12   H     H_    0.082593 0.745146 0.469485 0.154783
H13   H     H_    0.920350 0.745871 0.468328 0.149596
C29   C     C_R   0.440783 0.792967 0.572461 0.035306
C30   C     C_R   0.441115 0.206502 0.572979 0.096363
N1    N     N_R   0.499930 0.743810 0.499950 -0.194223
N2    N     N_R   0.499930 0.256190 0.499950 -0.200787
C31   C     C_R   0.559506 0.793534 0.428199 0.102735
C32   C     C_R   0.558698 0.207018 0.426855 0.085627
C33   C     C_R   0.560592 0.896628 0.425912 -0.004618
C34   C     C_R   0.560161 0.103927 0.425193 -0.009862
C35   C     C_R   0.499945 0.948163 0.500007 0.092459
C36   C     C_R   0.499871 0.051846 0.499880 0.086249
C37   C     C_R   0.439460 0.896069 0.574371 -0.004579
C38   C     C_R   0.439570 0.103391 0.574536 -0.011241
C39   C     C_R   0.620522 0.949161 0.351528 -0.152509
C40   C     C_R   0.620236 0.051914 0.351055 -0.157744
C41   C     C_R   0.379508 0.050839 0.648707 -0.139506
C42   C     C_R   0.379398 0.948079 0.648535 -0.172754
H14   H     H_    0.394793 0.751743 0.629141 0.127265
H15   H     H_    0.395493 0.247319 0.630213 0.158514
H16   H     H_    0.605766 0.752738 0.371957 0.160974
H17   H     H_    0.604364 0.248236 0.369660 0.166067
H18   H     H_    0.667551 0.910801 0.293671 0.165731
H19   H     H_    0.667081 0.090677 0.292880 0.164326
H20   H     H_    0.332599 0.089184 0.706770 0.166986
H21   H     H_    0.332391 0.909312 0.706452 0.157227
N3    N     N_R   0.507865 0.690982 0.120156 0.140426
O9    O     O_R   0.590286 0.707488 0.091794 -0.325336
O10   O     O_R   0.465542 0.761253 0.175639 -0.300490
N4    N     N_R   0.454078 0.316707 0.096552 0.167781
O11   O     O_R   0.502299 0.267421 0.018578 -0.339990
O12   O     O_R   0.422296 0.269898 0.191886 -0.262986
F1    F     F_    0.227883 0.323806 0.527660 -0.659110
N5    N     N_R   0.362546 0.620565 0.096699 0.149531
O13   O     O_R   0.337324 0.631839 0.211253 -0.285245
O14   O     O_R   0.302215 0.625636 0.010343 -0.347685
N6    N     N_R   0.331567 0.425468 0.117329 0.165545
O15   O     O_R   0.264433 0.395964 0.050747 -0.302999
O16   O     O_R   0.319273 0.432995 0.236241 -0.314871
F2    F     F_    0.646956 0.543071 0.111694 -0.620519
F3    F     F_    0.614503 0.387056 0.121151 -0.622884

loop_
_geom_bond_atom_site_label_1
_geom_bond_atom_site_label_2
_geom_bond_distance
_ccdc_geom_bond_type
C28   H11   1.084494 S    
C19   C20   1.392472 A    
C26   F1    1.360351 S    
C30   H15   1.082636 S    
Cu1   Cu2   2.664908 S    
C2    C10   1.495117 S    
C9    C12   1.542004 S    
Cu1   O7    1.975989 S    
C1    C27   1.464695 S    
C9    F3    1.386353 S    
C21   C22   1.411560 A    
C37   C42   1.405881 A    
O4    C2    1.291405 A    
C20   C21   1.403975 A    
N3    O10   1.302606 A    
C14   C15   1.402188 A    
O7    C4    1.284594 A    
N6    O16   1.299685 A    
C32   C34   1.410403 A    
C33   C35   1.407917 A    
C41   H20   1.083383 S    
C40   H19   1.083369 S    
C35   C37   1.407999 A    
C21   C26   1.396148 A    
C36   C38   1.408033 A    
O5    C3    1.289909 A    
C15   C16   1.391800 A    
C15   H8    1.084537 S    
C20   H10   1.083308 S    
C4    C11   1.481347 S    
C29   H14   1.082701 S    
C5    N3    1.491397 S    
C38   C41   1.405856 A    
C19   H9    1.083845 S    
O1    Cu1   1.968561 S    
C6    N6    1.483070 S    
C18   C25   1.401433 A    
O3    Cu1   1.975857 S    
Cu2   N2    2.002234 S    
C29   N1    1.367093 A    
C30   N2    1.366971 A    
C6    C10   1.621908 S    
N1    C31   1.366832 A    
C34   C36   1.408002 A    
C7    C11   1.550315 S    
C16   C19   1.399915 A    
C3    C14   1.459811 S    
N3    O9    1.300835 A    
O3    C2    1.288133 A    
C23   C24   1.402057 A    
N4    O12   1.302451 A    
N6    O15   1.302751 A    
C5    C10   1.624166 S    
C5    N5    1.489137 S    
C33   C39   1.405767 A    
C9    C10   1.577349 S    
C13   C18   1.394291 A    
C7    H3    1.111981 S    
C13   H7    1.084480 S    
C35   C36   1.418120 A    
O1    C1    1.292346 A    
C27   C28   1.403227 A    
C13   C14   1.403090 A    
N5    O13   1.302404 A    
Cu2   O8    1.975858 S    
C17   C18   1.411290 A    
H5    C12   1.113585 S    
C32   H17   1.082690 S    
Cu2   O6    1.968591 S    
C24   C25   1.394440 A    
N5    O14   1.302525 A    
O8    C4    1.288264 A    
C31   H16   1.082625 S    
N2    C32   1.367070 A    
C42   H21   1.083382 S    
C26   C27   1.409232 A    
C5    C7    1.560857 S    
C8    H4    1.110659 S    
O2    Cu2   1.970387 S    
C8    C11   1.550657 S    
H6    C12   1.112282 S    
O6    C3    1.289392 A    
O4    Cu2   1.975988 S    
C23   C28   1.392847 A    
C9    F2    1.380029 S    
C17   C22   1.402749 A    
C6    N4    1.487838 S    
C16   C17   1.410476 A    
O2    C1    1.289623 A    
C29   C37   1.410547 A    
C34   C40   1.405862 A    
C30   C38   1.410480 A    
C22   C23   1.410372 A    
C24   H12   1.083763 S    
C39   C40   1.405434 A    
C7    H1    1.109689 S    
C31   C33   1.410306 A    
C41   C42   1.405478 A    
C8    H2    1.111957 S    
C39   H18   1.083387 S    
N4    O11   1.303080 A    
Cu1   O5    1.970418 S    
C6    C8    1.572870 S    
C11   C12   1.546034 S    
Cu1   N1    2.002243 S    
C25   H13   1.083741 S    
