data_mof_unit_43821.cif
_audit_creation_date              2013-03-05T15:52:45-0500
_audit_creation_method            fapswitch 2.2
_symmetry_space_group_name_H-M    P1
_symmetry_Int_Tables_number       1
_space_group_crystal_system       triclinic
_cell_length_a                    6.969079
_cell_length_b                    14.754333
_cell_length_c                    21.371544
_cell_angle_alpha                 74.858268
_cell_angle_beta                  89.524793
_cell_angle_gamma                 90.704152
_cell_volume                      2120.90743119

loop_
_atom_site_label
_atom_site_type_symbol
_atom_site_description
_atom_site_fract_x
_atom_site_fract_y
_atom_site_fract_z
_atom_type_partial_charge
O1    O     O_R   0.648150 0.130050 0.214300 -0.566592
O2    O     O_R   0.351850 0.869950 0.785700 -0.566592
O3    O     O_R   0.320490 0.006660 0.340150 -0.594231
O4    O     O_R   0.679510 0.993340 0.659850 -0.594231
O5    O     O_R   0.146100 0.869940 0.285700 -0.593022
O6    O     O_R   0.853900 0.130060 0.714300 -0.593022
C1    C     C_R   0.487687 0.002700 0.366890 0.908737
C2    C     C_R   0.512313 0.997300 0.633110 0.908737
O7    O     O_R   0.318690 0.137980 0.218120 -0.601120
O8    O     O_R   0.681310 0.862020 0.781880 -0.601120
O9    O     O_R   0.144280 0.002190 0.162800 -0.599905
O10   O     O_R   0.855720 0.997810 0.837200 -0.599905
C3    C     C_R   0.488867 0.175511 0.205862 0.956620
C4    C     C_R   0.511133 0.824489 0.794138 0.956622
O11   O     O_R   0.649960 0.997790 0.337200 -0.598139
O12   O     O_R   0.350040 0.002210 0.662800 -0.598139
O13   O     O_3   0.479300 0.955290 0.231990 -0.275157
O14   O     O_3   0.520700 0.044710 0.768010 -0.275156
V1    V     V_3+5 0.206040 0.008290 0.253340 1.187309
V2    V     V_3+5 0.793960 0.991710 0.746660 1.187309
O15   O     O_R   0.814320 0.993320 0.159850 -0.581490
O16   O     O_R   0.185680 0.006680 0.840150 -0.581488
C5    C     C_R   0.983659 0.998898 0.132980 1.033984
C6    C     C_R   0.016341 0.001102 0.867020 1.033983
O17   O     O_R   0.816120 0.862000 0.281880 -0.600567
O18   O     O_R   0.183880 0.138000 0.718120 -0.600567
C7    C     C_R   0.983475 0.824482 0.294238 0.924975
C8    C     C_R   0.016525 0.175518 0.705762 0.924975
V3    V     V_3+5 0.705540 0.991700 0.246660 1.201084
V4    V     V_3+5 0.294460 0.008300 0.753340 1.201084
O19   O     O_3   0.982150 0.044700 0.268010 -0.276874
O20   O     O_3   0.017850 0.955300 0.731990 -0.276874
C9    C     C_R   0.986780 0.722953 0.322033 -0.087664
C10   C     C_R   0.013220 0.277046 0.677967 -0.087664
C11   C     C_R   0.948266 0.565754 0.310032 -0.173922
C12   C     C_R   0.051734 0.434246 0.689968 -0.173923
C13   C     C_R   0.956814 0.662262 0.282678 -0.163033
C14   C     C_R   0.043186 0.337737 0.717322 -0.163033
C15   C     C_R   0.007331 0.687264 0.388976 -0.248133
C16   C     C_R   0.992669 0.312735 0.611024 -0.248132
C17   C     C_R   0.994925 0.589422 0.418409 0.106035
C18   C     C_R   0.005075 0.410577 0.581591 0.106035
C19   C     C_R   0.965384 0.528983 0.377295 0.186638
C20   C     C_R   0.034616 0.471017 0.622705 0.186638
C21   C     C_R   0.008245 0.549827 0.486957 0.065057
C22   C     C_R   0.991755 0.450173 0.513042 0.065057
C23   C     C_R   0.963268 0.393492 0.469717 -0.203992
C24   C     C_R   0.036732 0.606508 0.530283 -0.203992
C25   C     C_R   0.950827 0.432299 0.403415 -0.241818
C26   C     C_R   0.049173 0.567701 0.596585 -0.241818
H1    H     H_    0.928185 0.385889 0.372205 0.132265
H2    H     H_    0.071815 0.614110 0.627795 0.132265
H3    H     H_    0.971840 0.261766 0.583586 0.102401
H4    H     H_    0.028160 0.738234 0.416413 0.102401
H5    H     H_    0.060786 0.310299 0.769133 0.116315
H6    H     H_    0.939214 0.689700 0.230867 0.116315
H7    H     H_    0.925708 0.519707 0.278620 0.117650
H8    H     H_    0.074292 0.480293 0.721380 0.117650
H9    H     H_    0.949221 0.318225 0.485241 0.127446
H10   H     H_    0.050779 0.681775 0.514758 0.127446
C27   C     C_3   0.819118 0.999271 0.977414 -0.223634
C28   C     C_3   0.180882 0.000728 0.022586 -0.223634
C29   C     C_3   0.904678 0.922315 0.034503 -0.277099
C30   C     C_3   0.095322 0.077685 0.965497 -0.277097
H11   H     H_    0.829291 0.857533 0.062597 0.157517
H12   H     H_    0.170709 0.142466 0.937403 0.157517
H13   H     H_    0.670121 0.000228 0.959248 0.164609
H14   H     H_    0.329879 0.999771 0.040752 0.164608
C31   C     C_3   0.993811 0.999813 0.062555 -0.262802
C32   C     C_3   0.006189 0.000187 0.937445 -0.262802
C33   C     C_3   0.910522 0.074946 0.006020 0.456861
C34   C     C_3   0.089478 0.925054 0.993980 0.456861
C35   C     C_3   0.674604 0.011613 0.474591 0.139443
C36   C     C_3   0.325396 0.988387 0.525408 0.139443
C37   C     C_3   0.576187 0.081372 0.506690 -0.204752
C38   C     C_3   0.423813 0.918628 0.493310 -0.204752
H15   H     H_    0.641692 0.147584 0.512602 0.115829
H16   H     H_    0.358308 0.852416 0.487398 0.115829
C39   C     C_3   0.508297 0.997216 0.562568 -0.133234
C40   C     C_3   0.491703 0.002784 0.437432 -0.133234
C41   C     C_3   0.610019 0.927353 0.530822 -0.181248
C42   C     C_3   0.389981 0.072647 0.469178 -0.181248
H17   H     H_    0.698190 0.866769 0.555786 0.121882
H18   H     H_    0.301810 0.133231 0.444213 0.121882
C43   C     C_R   0.503747 0.276913 0.177975 -0.103471
C44   C     C_R   0.496253 0.723087 0.822025 -0.103471
C45   C     C_R   0.593490 0.430817 0.187990 -0.152094
C46   C     C_R   0.406510 0.569182 0.812010 -0.152093
C47   C     C_R   0.565330 0.335241 0.215944 -0.187450
C48   C     C_R   0.434670 0.664759 0.784056 -0.187451
C49   C     C_R   0.470910 0.314024 0.111807 -0.134410
C50   C     C_R   0.529090 0.685976 0.888193 -0.134410
C51   C     C_R   0.503719 0.410596 0.081600 0.093660
C52   C     C_R   0.496281 0.589403 0.918400 0.093660
C53   C     C_R   0.565185 0.468708 0.121342 0.162159
C54   C     C_R   0.434815 0.531292 0.878658 0.162158
C55   C     C_R   0.480644 0.450950 0.013503 0.042251
C56   C     C_R   0.519356 0.549049 0.986496 0.042251
C57   C     C_R   0.578849 0.603537 0.028512 -0.095756
C58   C     C_R   0.421151 0.396462 0.971488 -0.095756
C59   C     C_R   0.600679 0.564016 0.094390 -0.204437
C60   C     C_R   0.399321 0.435984 0.905610 -0.204437
H19   H     H_    0.647524 0.608668 0.124559 0.137822
H20   H     H_    0.352477 0.391332 0.875440 0.137822
H21   H     H_    0.574685 0.735224 0.914612 0.126014
H22   H     H_    0.425315 0.264776 0.085388 0.126013
H23   H     H_    0.407289 0.693405 0.732904 0.105341
H24   H     H_    0.592711 0.306595 0.267096 0.105341
H25   H     H_    0.640642 0.475053 0.218344 0.114628
H26   H     H_    0.359358 0.524947 0.781656 0.114628
H27   H     H_    0.610813 0.677542 0.012242 0.151457
H28   H     H_    0.389188 0.322458 0.987758 0.151457
C61   C     C_1   0.860905 0.028853 0.441621 0.024650
N1    N     N_1   0.005305 0.043087 0.413741 -0.058743
C62   C     C_1   0.139095 0.971147 0.558379 0.024650
N2    N     N_1   0.994695 0.956913 0.586259 -0.058743
N3    N     N_R   0.811321 0.159415 0.010578 0.217983
O21   O     O_R   0.740660 0.215254 0.958732 -0.434929
O22   O     O_R   0.799482 0.181576 0.065478 -0.438904
N4    N     N_R   0.188680 0.840584 0.989422 0.217983
O23   O     O_R   0.259339 0.784745 0.041269 -0.434928
O24   O     O_R   0.200523 0.818426 0.934522 -0.438904

loop_
_geom_bond_atom_site_label_1
_geom_bond_atom_site_label_2
_geom_bond_distance
_ccdc_geom_bond_type
C27   C32   1.550665 S    
C29   H11   1.110275 S    
C54   C60   1.391516 A    
C17   C19   1.420397 A    
C5    C31   1.502700 S    
O4    C2    1.297297 A    
V1    O19   1.709361 S    
C46   C54   1.404153 A    
C55   C56   1.432564 A    
C43   C49   1.398516 A    
C6    C32   1.502700 S    
C23   C25   1.386562 A    
C21   C22   1.432634 A    
C7    C9    1.460673 S    
O9    V1    2.010309 S    
C9    C15   1.398677 A    
C36   C38   1.542315 S    
C10   C16   1.398677 A    
C11   C13   1.391161 A    
C38   H16   1.110511 S    
C48   H23   1.083608 S    
C12   H8    1.083680 S    
N3    O22   1.299915 A    
C15   H4    1.076821 S    
C52   C56   1.432445 A    
O12   V4    1.995371 S    
C62   N2    1.153834 T    
C56   C57   1.414075 A    
C35   C61   1.459448 S    
C27   C29   1.561524 S    
C18   C22   1.432672 A    
C30   C33   1.540207 S    
C31   C33   1.534053 S    
O7    C3    1.297971 A    
C28   C30   1.561522 S    
O5    C7    1.296749 A    
C13   H6    1.083638 S    
O7    V1    2.011264 S    
O6    C8    1.296749 A    
C14   H5    1.083638 S    
C29   C31   1.549048 S    
O8    V2    2.011263 S    
C25   H1    1.084597 S    
C45   C53   1.404152 A    
C2    C39   1.508410 S    
C26   H2    1.084597 S    
O3    V1    2.020017 S    
O14   V4    1.717028 S    
C30   C32   1.549048 S    
C11   C19   1.404284 A    
C24   H10   1.075740 S    
C46   H26   1.083623 S    
C27   C33   1.540049 S    
C24   C26   1.386562 A    
C8    C10   1.460673 S    
C59   H19   1.084649 S    
C35   C37   1.542315 S    
C49   H22   1.076739 S    
C34   N4    1.457453 S    
C18   C20   1.420397 A    
C36   C42   1.545664 S    
C35   C41   1.545664 S    
C41   H17   1.109523 S    
N4    O24   1.299917 A    
O11   V3    1.995371 S    
O17   V3    2.028753 S    
C33   N3    1.457456 S    
C50   C52   1.417140 A    
C4    C44   1.460701 S    
C40   C42   1.549428 S    
C44   C48   1.394548 A    
C39   C41   1.549428 S    
C43   C47   1.394550 A    
C19   C25   1.391524 A    
C1    O11   1.304181 A    
O15   V3    1.992575 S    
C9    C13   1.394516 A    
C28   C31   1.550664 S    
C30   H12   1.110276 S    
C52   C54   1.420371 A    
C49   C51   1.417139 A    
C27   H13   1.110543 S    
C57   H27   1.075700 S    
O10   V2    2.010309 S    
C58   C60   1.386435 A    
C28   C34   1.540050 S    
C60   H20   1.084650 S    
C37   H15   1.110511 S    
C45   H25   1.083622 S    
C57   C59   1.386437 A    
C46   C48   1.391099 A    
C58   H28   1.075700 S    
C42   H18   1.109523 S    
C36   C39   1.529428 S    
C45   C47   1.391099 A    
O8    C4    1.297971 A    
O16   C6    1.300363 A    
C12   C20   1.404284 A    
O1    C3    1.293475 A    
O2    V4    2.022909 S    
C12   C14   1.391161 A    
C51   C55   1.432443 A    
C55   C58   1.414078 A    
N4    O23   1.300432 A    
C61   N1    1.153834 T    
V2    O20   1.709363 S    
C21   C24   1.414095 A    
C20   C26   1.391524 A    
C22   C23   1.414093 A    
O16   V4    1.992570 S    
C10   C14   1.394516 A    
O18   C8    1.296556 A    
C38   C40   1.547014 S    
C16   C18   1.417307 A    
C38   C41   1.552513 S    
C37   C42   1.552513 S    
O18   V4    2.028753 S    
O5    V1    2.014023 S    
O17   C7    1.296556 A    
O6    V2    2.014023 S    
O10   C6    1.299304 A    
O3    C1    1.297297 A    
C28   H14   1.110543 S    
C11   H7    1.083680 S    
O15   C5    1.300361 A    
V3    O19   2.167883 S    
C44   C50   1.398519 A    
O13   V3    1.717029 S    
V4    O20   2.167882 S    
O1    V3    2.022908 S    
C51   C53   1.420372 A    
C36   C62   1.459448 S    
C47   H24   1.083608 S    
O9    C5    1.299304 A    
O13   V1    2.157522 S    
C35   C40   1.529428 S    
O14   V2    2.157521 S    
O2    C4    1.293475 A    
C23   H9    1.075740 S    
O4    V2    2.020020 S    
C50   H21   1.076739 S    
C29   C34   1.540208 S    
C15   C17   1.417307 A    
C2    O12   1.304182 A    
C16   H3    1.076821 S    
C3    C43   1.460701 S    
C17   C21   1.432670 A    
C32   C34   1.534054 S    
N3    O21   1.300428 A    
C37   C39   1.547014 S    
C53   C59   1.391517 A    
C1    C40   1.508410 S    
