data_mof_unit_26520.cif
_audit_creation_date              2012-12-10T20:41:49-0500
_audit_creation_method            fapswitch 2.2
_symmetry_space_group_name_H-M    P1
_symmetry_Int_Tables_number       1
_space_group_crystal_system       triclinic
_cell_length_a                    15.017969
_cell_length_b                    15.12408
_cell_length_c                    9.874129
_cell_angle_alpha                 89.62991
_cell_angle_beta                  90.052537
_cell_angle_gamma                 90.162452
_cell_volume                      2242.68348632

loop_
_atom_site_label
_atom_site_type_symbol
_atom_type_description
_atom_site_fract_x
_atom_site_fract_y
_atom_site_fract_z
_atom_type_partial_charge
C1    C     C_R   0.380905 0.879428 0.500293 0.909884
C2    C     C_R   0.381932 0.121788 0.499775 0.894012
C3    C     C_R   0.881583 0.379171 0.500201 0.948839
C4    C     C_R   0.882507 0.622490 0.499648 0.894830
C5    C     C_3   0.221212 0.146826 0.699695 -0.487743
C6    C     C_3   0.185801 0.883875 0.621636 -0.515278
C7    C     C_3   0.739182 0.664800 0.722425 -0.493213
C8    C     C_3   0.682615 0.389815 0.634427 -0.507818
C9    C     C_R   0.421791 0.005265 0.071162 0.247377
C10   C     C_R   0.924757 0.521994 0.071018 0.251892
C11   C     C_R   0.577365 0.004715 0.072047 -0.102735
C12   C     C_R   0.076525 0.488124 0.072189 -0.111699
C13   C     C_R   0.577333 0.005164 0.928045 -0.004335
C14   C     C_R   0.076614 0.488731 0.928229 -0.032820
C15   C     C_R   0.421781 0.005580 0.928814 0.221100
C16   C     C_R   0.924441 0.520530 0.928652 0.234314
C17   C     C_3   0.345727 0.942254 0.923858 -0.497698
C18   C     C_3   0.837950 0.471775 0.926149 -0.517840
C19   C     C_3   0.346371 0.941231 0.077583 -0.473220
C20   C     C_3   0.836757 0.476899 0.079563 -0.485981
C21   C     C_R   0.619837 0.119389 0.499716 0.897200
C22   C     C_R   0.621708 0.881786 0.500397 0.898539
C23   C     C_R   0.120411 0.619196 0.499730 0.893441
C24   C     C_R   0.120958 0.381076 0.500392 0.934304
C25   C     C_R   0.275625 0.210847 0.618626 0.062068
C26   C     C_R   0.251634 0.811585 0.597831 0.022633
C27   C     C_R   0.786572 0.721846 0.621687 0.075709
C28   C     C_R   0.738589 0.323489 0.563486 -0.012968
C29   C     C_R   0.324844 0.196219 0.501697 -0.231454
C30   C     C_R   0.319673 0.808854 0.502827 -0.216755
C31   C     C_R   0.827436 0.698818 0.500634 -0.239327
C32   C     C_R   0.819151 0.310423 0.500352 -0.170774
C33   C     C_R   0.319726 0.256089 0.391699 0.463595
C34   C     C_R   0.330002 0.735497 0.417124 0.455796
C35   C     C_R   0.815738 0.752448 0.384418 0.461417
C36   C     C_R   0.837360 0.229286 0.435797 0.508782
C37   C     C_R   0.748657 0.815277 0.385465 -0.300027
C38   C     C_R   0.769887 0.163995 0.437493 -0.324125
C39   C     C_R   0.252398 0.318721 0.392064 -0.284322
C40   C     C_R   0.262949 0.672122 0.414811 -0.301178
C41   C     C_R   0.697074 0.825782 0.502426 -0.231721
C42   C     C_R   0.687822 0.182449 0.499121 -0.144583
C43   C     C_R   0.194355 0.322827 0.502890 -0.218082
C44   C     C_R   0.189865 0.681508 0.501103 -0.209120
C45   C     C_R   0.722156 0.785122 0.623184 0.132312
C46   C     C_R   0.675358 0.261857 0.563133 0.078903
C47   C     C_R   0.211078 0.273989 0.619822 0.115563
C48   C     C_R   0.187057 0.747864 0.597060 0.141147
C49   C     C_3   0.667055 0.734577 0.723792 0.123494
C50   C     C_3   0.609441 0.318239 0.634709 0.138659
C51   C     C_3   0.148986 0.216661 0.700525 0.124305
C52   C     C_3   0.114344 0.813092 0.620378 0.127309
H1    H     H_    0.285717 0.970919 0.122716 0.207316
H2    H     H_    0.366052 0.876215 0.121305 0.253422
H3    H     H_    0.784316 0.521623 0.118966 0.220801
H4    H     H_    0.839765 0.411569 0.130481 0.217057
H5    H     H_    0.734352 0.851945 0.293348 0.203434
H6    H     H_    0.780856 0.098571 0.397487 0.145004
H7    H     H_    0.243576 0.361174 0.304237 0.189744
H8    H     H_    0.267122 0.617227 0.345066 0.176107
H9    H     H_    0.602320 0.711507 0.681994 0.108044
H10   H     H_    0.550785 0.335684 0.571629 0.089849
H11   H     H_    0.088049 0.197544 0.643499 0.146392
H12   H     H_    0.067433 0.819251 0.533906 0.094026
H13   H     H_    0.251445 0.133285 0.800472 0.241254
H14   H     H_    0.194578 0.915614 0.721502 0.230727
H15   H     H_    0.777265 0.659651 0.818636 0.247043
H16   H     H_    0.708794 0.406022 0.736265 0.234359
H17   H     H_    0.202605 0.086949 0.641303 0.165506
H18   H     H_    0.181025 0.930746 0.534659 0.165318
H19   H     H_    0.716705 0.600812 0.679088 0.159513
H20   H     H_    0.666797 0.447611 0.568648 0.160746
H21   H     H_    0.639928 0.006221 0.126387 0.150332
H22   H     H_    0.137996 0.476585 0.126586 0.156093
H23   H     H_    0.639874 0.007118 0.873838 0.170452
H24   H     H_    0.138203 0.477916 0.874186 0.169451
H25   H     H_    0.285245 0.973956 0.881487 0.199248
H26   H     H_    0.363812 0.877635 0.878570 0.239469
H27   H     H_    0.783770 0.510490 0.878340 0.201439
H28   H     H_    0.845096 0.403119 0.888020 0.234678
N1    N     N_R   0.499140 1.000000 0.142800 -0.118279
N2    N     N_R   0.999140 0.500000 0.142800 -0.128819
N3    N     N_R   0.499160 1.000000 0.857150 -0.107281
N4    N     N_R   0.999160 0.500000 0.857150 -0.108816
O1    O     O_R   0.408400 0.908380 0.614690 -0.627155
O2    O     O_R   0.408400 0.091620 0.614690 -0.604871
O3    O     O_R   0.908400 0.408380 0.614690 -0.617127
O4    O     O_R   0.908400 0.591620 0.614690 -0.605421
O5    O     O_R   0.408370 0.908370 0.385350 -0.589436
O6    O     O_R   0.408370 0.091630 0.385350 -0.580744
O7    O     O_R   0.908370 0.408370 0.385350 -0.616601
O8    O     O_R   0.908370 0.591630 0.385350 -0.581461
O9    O     O_R   0.591610 0.091610 0.614650 -0.584472
O10   O     O_R   0.591610 0.908390 0.614650 -0.598107
O11   O     O_R   0.091610 0.591610 0.614650 -0.592360
O12   O     O_R   0.091610 0.408390 0.614650 -0.602371
O13   O     O_R   0.591590 0.091600 0.385310 -0.639912
O14   O     O_R   0.591590 0.908400 0.385310 -0.621301
O15   O     O_R   0.091590 0.591600 0.385310 -0.633558
O16   O     O_R   0.091590 0.408400 0.385310 -0.616684
Zn1   Zn    Zn3+2 0.500010 1.000000 0.653130 0.989530
Zn2   Zn    Zn3+2 0.000010 0.500000 0.653130 0.991816
Zn3   Zn    Zn3+2 0.499980 1.000000 0.346870 0.971928
Zn4   Zn    Zn3+2 0.999980 0.500000 0.346870 0.962305
O17   O     O_3   0.372025 0.247625 0.277396 -0.575039
C53   C     C_3   0.454894 0.288733 0.302037 0.072706
H29   H     H_    0.489687 0.257060 0.389077 0.119722
H30   H     H_    0.446119 0.360593 0.322361 0.124214
C54   C     C_3   0.513801 0.278811 0.178022 -0.678371
H31   H     H_    0.482163 0.311624 0.089395 0.275626
H32   H     H_    0.579691 0.309923 0.196985 0.193577
H33   H     H_    0.523738 0.207653 0.155434 0.266706
O18   O     O_3   0.400570 0.729260 0.327906 -0.593770
C55   C     C_3   0.472098 0.687586 0.395471 0.077675
H34   H     H_    0.452891 0.619959 0.430492 0.131267
H35   H     H_    0.494390 0.727201 0.483999 0.115551
C56   C     C_3   0.550253 0.679173 0.298514 -0.737825
H36   H     H_    0.569735 0.745343 0.258995 0.286553
H37   H     H_    0.608034 0.649489 0.352237 0.189855
H38   H     H_    0.531591 0.636236 0.212142 0.256769
O19   O     O_3   0.861147 0.737516 0.265234 -0.577962
C57   C     C_3   0.942877 0.783529 0.271029 0.077163
H39   H     H_    0.984869 0.758444 0.355731 0.128669
H40   H     H_    0.931829 0.855917 0.283221 0.128282
C58   C     C_3   0.993298 0.769134 0.139905 -0.674221
H41   H     H_    0.952324 0.792359 0.053145 0.284409
H42   H     H_    0.056898 0.806757 0.141703 0.210067
H43   H     H_    0.008268 0.697818 0.127242 0.253412
O20   O     O_3   0.923947 0.213085 0.391615 -0.635453
C59   C     C_3   0.927719 0.171321 0.263701 0.111605
H44   H     H_    0.888632 0.109249 0.258261 0.119815
H45   H     H_    0.997909 0.151286 0.246873 0.186362
C60   C     C_3   0.902302 0.234348 0.148873 -0.806748
H46   H     H_    0.945078 0.294300 0.152456 0.280629
H47   H     H_    0.912413 0.201364 0.049952 0.241124
H48   H     H_    0.831174 0.253269 0.157300 0.231032
Br1   Br    Br    0.659153 0.793800 0.897109 -0.526733
Br2   Br    Br    0.582170 0.272450 0.814018 -0.542447
Br3   Br    Br    0.126871 0.263308 0.880022 -0.529088
Br4   Br    Br    0.057830 0.794171 0.794367 -0.545372

loop_
_geom_bond_atom_site_label_1
_geom_bond_atom_site_label_2
_ccdc_geom_bond_type
C23   O15   A    
C6    H18   S    
C22   O14   A    
C60   H46   S    
C49   Br1   S    
N4    Zn2   S    
C14   N4    A    
O7    Zn4   S    
C20   H4    S    
C55   H34   S    
C11   N1    A    
C34   O18   S    
C28   C46   A    
C33   C39   A    
C6    H14   S    
C21   O9    A    
C2    C29   S    
C34   C40   A    
C32   C36   A    
C35   C37   A    
C38   C42   A    
C48   C52   S    
C12   H22   S    
C24   O12   A    
C7    H19   S    
C22   C41   S    
O12   Zn2   S    
O14   Zn3   S    
C29   C33   A    
C16   N4    A    
C7    C27   S    
C3    O7    A    
C42   C46   A    
C2    O6    A    
C17   H26   S    
C5    H17   S    
C54   H32   S    
C17   C19   S    
C38   H6    S    
C37   C41   A    
C9    C19   S    
O16   Zn4   S    
C47   C51   S    
C13   H23   S    
O10   Zn1   S    
C10   C20   S    
C18   H27   S    
C60   H48   S    
C25   C47   A    
O11   Zn2   S    
C26   C48   A    
C27   C45   A    
O15   Zn4   S    
O5    Zn3   S    
C25   C29   A    
C22   O10   A    
C20   H3    S    
C28   C32   A    
C1    O1    A    
C8    H20   S    
C49   H9    S    
C30   C34   A    
C27   C31   A    
C55   C56   S    
C35   O19   S    
C51   H11   S    
C7    C49   S    
C5    H13   S    
C52   H12   S    
C54   H33   S    
O9    Zn1   S    
C39   C43   A    
C3    O3    A    
C10   N2    A    
C23   C44   S    
N2    Zn4   S    
C14   H24   S    
C59   H45   S    
C58   H43   S    
O3    Zn2   S    
C21   O13   A    
C36   O20   S    
C55   H35   S    
C45   C49   S    
C39   H7    S    
C17   H25   S    
C12   N2    A    
O19   C57   S    
O13   Zn3   S    
C5    C25   S    
C19   H2    S    
C18   H28   S    
C12   C14   A    
C8    H16   S    
C11   H21   S    
C58   H41   S    
C50   H10   S    
C31   C35   A    
C56   H38   S    
C59   C60   S    
C57   H40   S    
C8    C50   S    
O1    Zn1   S    
C58   H42   S    
O18   C55   S    
N1    Zn3   S    
C15   C17   S    
C46   C50   S    
C1    O5    A    
N3    Zn1   S    
C24   O16   A    
O4    Zn2   S    
C50   Br2   S    
C26   C30   A    
C4    O4    A    
O17   C53   S    
C13   N3    A    
C33   O17   S    
C57   C58   S    
C56   H37   S    
C59   H44   S    
O20   C59   S    
C10   C16   A    
C56   H36   S    
C11   C13   A    
C19   H1    S    
C6    C26   S    
C53   H30   S    
C15   N3    A    
C36   C38   A    
C1    C30   S    
C52   Br4   S    
C23   O11   A    
C2    O2    A    
C18   C20   S    
C9    C15   A    
C3    C32   S    
O6    Zn3   S    
C4    C31   S    
O8    Zn4   S    
C7    H15   S    
C21   C42   S    
C40   C44   A    
C8    C28   S    
C16   C18   S    
C53   H29   S    
C40   H8    S    
C60   H47   S    
C24   C43   S    
C41   C45   A    
C5    C51   S    
C6    C52   S    
C57   H39   S    
C54   H31   S    
O2    Zn1   S    
C43   C47   A    
C37   H5    S    
C44   C48   A    
C9    N1    A    
C4    O8    A    
C53   C54   S    
C51   Br3   S    
