data_mof_unit_43675.cif
_audit_creation_date              2012-12-10T17:18:55-0500
_audit_creation_method            fapswitch 2.2
_symmetry_space_group_name_H-M    P1
_symmetry_Int_Tables_number       1
_space_group_crystal_system       triclinic
_cell_length_a                    10.230453
_cell_length_b                    10.937953
_cell_length_c                    13.400241
_cell_angle_alpha                 90.970777
_cell_angle_beta                  100.18085
_cell_angle_gamma                 97.283792
_cell_volume                      1462.78043229

loop_
_atom_site_label
_atom_site_type_symbol
_atom_type_description
_atom_site_fract_x
_atom_site_fract_y
_atom_site_fract_z
_atom_type_partial_charge
C1    C     C_R   0.052575 0.731414 0.488295 0.904092
C2    C     C_2   0.011177 0.062893 0.522383 -0.060867
C3    C     C_2   0.431117 0.512906 0.506856 -0.039936
C4    C     C_2   0.568847 0.487412 0.492843 -0.047162
C5    C     C_R   0.094073 0.516909 0.686009 0.952227
C6    C     C_R   0.905678 0.481853 0.314206 0.886427
C7    C     C_R   0.148409 0.547852 0.792878 -0.221922
C8    C     C_R   0.852700 0.454104 0.206744 -0.288170
C9    C     C_R   0.196814 0.694036 0.937819 0.358590
C10   C     C_R   0.807388 0.319986 0.054152 0.460408
C11   C     C_R   0.123146 0.656554 0.839711 0.312378
C12   C     C_R   0.947204 0.268446 0.511247 0.857865
C13   C     C_R   0.871655 0.344312 0.156123 0.314433
C14   C     C_R   0.247302 0.481946 0.840863 -0.052800
C15   C     C_R   0.768756 0.532853 0.156570 -0.010896
C16   C     C_R   0.345645 0.540144 0.919050 -0.016879
C17   C     C_R   0.673917 0.487254 0.071728 -0.027084
C18   C     C_R   0.311270 0.637519 0.975619 -0.007884
C19   C     C_R   0.704944 0.389530 0.013348 -0.051569
C20   C     C_R   0.473107 0.499857 0.945839 -0.006997
C21   C     C_R   0.550774 0.535693 0.042763 -0.007529
C22   C     C_1   0.803356 0.664822 0.176060 0.279532
C23   C     C_R   0.497881 0.610932 0.109769 0.425755
C24   C     C_1   0.229418 0.348990 0.825231 0.272887
C25   C     C_1   0.144427 0.109450 0.578466 0.261805
C26   C     C_1   0.854530 0.889204 0.418694 0.266633
C27   C     C_1   0.772290 0.089826 0.512816 0.216893
C28   C     C_1   0.226260 0.909968 0.482672 0.216885
C29   C     C_1   0.580433 0.386181 0.425733 0.316165
C30   C     C_1   0.419475 0.614557 0.573532 0.332935
C31   C     C_R   0.526778 0.428183 0.877235 0.434255
C32   C     C_R   0.386270 0.669808 0.072005 -0.234959
C33   C     C_R   0.635647 0.365986 0.914168 -0.235570
C34   C     C_2   0.086431 0.863450 0.480384 -0.246932
C35   C     C_2   0.912598 0.136119 0.517235 -0.244868
C36   C     C_2   0.987598 0.936396 0.474788 -0.058797
H1    H     H_    0.353390 0.734996 0.120902 0.204173
H2    H     H_    0.525683 0.371985 0.737797 0.333494
H3    H     H_    0.667980 0.301754 0.864135 0.200289
H4    H     H_    0.669071 0.626023 0.586722 0.181870
H5    H     H_    0.330960 0.373552 0.413722 0.177570
H6    H     H_    0.954310 0.266261 0.276717 0.349994
H7    H     H_    0.050569 0.811180 0.813949 0.348199
H8    H     H_    0.065078 0.790668 0.975406 0.348507
H9    H     H_    0.913321 0.188690 0.031875 0.388770
H10   H     H_    0.499206 0.672598 0.247890 0.338076
N1    N     N_2   0.322180 0.446120 0.460900 -0.206358
N2    N     N_1   0.411126 0.696024 0.627315 -0.182661
N3    N     N_2   0.677820 0.553880 0.539100 -0.205663
N4    N     N_1   0.832167 0.770232 0.189916 -0.177408
N5    N     N_1   0.214370 0.242666 0.814735 -0.177406
N6    N     N_1   0.250545 0.146599 0.621977 -0.160231
N7    N     N_1   0.748716 0.851424 0.374912 -0.157678
N8    N     N_1   0.660232 0.053851 0.509900 -0.156858
N9    N     N_1   0.337904 0.946129 0.483901 -0.156962
N10   N     N_1   0.588745 0.305035 0.371617 -0.188150
O1    O     O_R   0.935190 0.693030 0.507870 -0.586753
O2    O     O_3   0.029815 0.724397 0.787749 -0.748955
O3    O     O_3   0.162183 0.786181 0.995946 -0.763706
O4    O     O_3   0.833730 0.223179 0.996209 -0.756971
O5    O     O_3   0.549892 0.619525 0.212568 -0.758814
O6    O     O_3   0.474929 0.423571 0.774418 -0.762571
O7    O     O_R   0.064810 0.306970 0.492130 -0.606722
O8    O     O_R   0.142080 0.658430 0.482770 -0.614305
O9    O     O_R   0.857920 0.341570 0.517230 -0.614526
O10   O     O_R   0.969700 0.527180 0.651960 -0.561244
O11   O     O_R   0.030300 0.472820 0.348040 -0.603660
O12   O     O_R   0.176600 0.492580 0.626860 -0.590139
O13   O     O_R   0.823400 0.507420 0.373140 -0.575884
O14   O     O_3   0.949855 0.259835 0.202516 -0.756435
Zn1   Zn    Zn3+2 0.861850 0.523100 0.516760 1.004876
Zn2   Zn    Zn3+2 0.138150 0.476900 0.483240 0.984901

loop_
_geom_bond_atom_site_label_1
_geom_bond_atom_site_label_2
_ccdc_geom_bond_type
C2    C35   D    
C30   N2    T    
C6    O13   A    
C10   O4    S    
C31   C33   A    
H9    O4    S    
C8    C13   A    
C29   N10   T    
C1    O1    A    
C3    C30   S    
C11   O2    S    
C5    C7    S    
C12   O9    A    
C4    N3    D    
O10   Zn1   S    
H7    O2    S    
O12   Zn2   S    
C10   C19   A    
C22   N4    T    
C23   C32   A    
C24   N5    T    
C21   C23   A    
H5    N1    S    
C25   N6    T    
C28   C34   S    
C15   C22   S    
C5    O10   A    
C32   H1    S    
O1    Zn1   S    
C12   C35   S    
C7    C11   A    
C9    C11   A    
C31   O6    S    
H4    N3    S    
C33   H3    S    
C5    O12   A    
C3    N1    D    
C16   C20   A    
C17   C19   A    
C28   N9    T    
C1    C34   S    
C2    C25   S    
C34   C36   D    
O8    Zn2   S    
C19   C33   A    
C14   C16   A    
N1    Zn2   S    
C27   N8    T    
C18   C32   A    
C13   O14   S    
H10   O5    S    
C2    C36   S    
C3    C4    S    
C1    O8    A    
C9    C18   A    
C26   C36   S    
C26   N7    T    
C20   C21   A    
C16   C18   A    
O11   Zn2   S    
N3    Zn1   S    
C23   O5    S    
C14   C24   S    
C15   C17   A    
C12   O7    A    
C6    O11   A    
C6    C8    S    
C8    C15   A    
H8    O3    S    
H6    O14   S    
C27   C35   S    
O9    Zn1   S    
C20   C31   A    
C7    C14   A    
C17   C21   A    
O7    Zn2   S    
C4    C29   S    
H2    O6    S    
O13   Zn1   S    
C9    O3    S    
C10   C13   A    
