data_mof_unit_58105.cif
_audit_creation_date              2012-12-10T19:01:20-0500
_audit_creation_method            fapswitch 2.2
_symmetry_space_group_name_H-M    P1
_symmetry_Int_Tables_number       1
_space_group_crystal_system       triclinic
_cell_length_a                    9.544035
_cell_length_b                    10.869559
_cell_length_c                    15.572234
_cell_angle_alpha                 89.546658
_cell_angle_beta                  74.060708
_cell_angle_gamma                 90.366343
_cell_volume                      1553.23567901

loop_
_atom_site_label
_atom_site_type_symbol
_atom_type_description
_atom_site_fract_x
_atom_site_fract_y
_atom_site_fract_z
_atom_type_partial_charge
C1    C     C_R   0.999432 0.262829 0.500107 0.797311
C2    C     C_R   0.668384 0.523783 0.904148 0.096392
C3    C     C_R   0.766329 0.569382 0.950578 0.163257
C4    C     C_R   0.517714 0.510180 0.949416 0.063388
C5    C     C_R   0.471603 0.525427 0.043374 0.065699
C6    C     C_R   0.571309 0.574272 0.086752 -0.165669
C7    C     C_R   0.715826 0.596429 0.040973 -0.263298
C8    C     C_R   0.410768 0.487583 0.903757 -0.198575
C9    C     C_R   0.263760 0.479236 0.949517 -0.199254
C10   C     C_R   0.219080 0.486155 0.042370 0.112838
C11   C     C_R   0.324125 0.500086 0.090415 -0.020946
C12   C     C_R   0.917828 0.501952 0.671802 0.826545
C13   C     C_R   0.070618 0.478277 0.088037 -0.210332
C14   C     C_R   0.025520 0.486492 0.180779 -0.271260
C15   C     C_R   0.278346 0.483494 0.184035 0.350433
C16   C     C_R   0.111169 0.063785 0.515718 0.034067
C17   C     C_R   0.997826 0.130469 0.499591 -0.063145
C18   C     C_R   0.880840 0.064056 0.482964 -0.197547
C19   C     C_R   0.881784 0.934998 0.483246 -0.183326
C20   C     C_R   0.999680 0.870294 0.500081 -0.098835
C21   C     C_R   0.112600 0.939650 0.516392 0.049284
C22   C     C_3   0.253923 0.936452 0.540813 0.315509
C23   C     C_R   0.000151 0.737425 0.500511 0.831371
C24   C     C_3   0.249845 0.078113 0.540550 -0.502647
C25   C     C_R   0.607550 0.533106 0.424970 0.240288
C26   C     C_R   0.542291 0.453796 0.570482 -0.068973
C27   C     C_R   0.393521 0.453744 0.570460 -0.056755
C28   C     C_R   0.460317 0.532951 0.424987 0.319941
C29   C     C_3   0.476574 0.652851 0.376449 -0.475773
C30   C     C_3   0.635596 0.653537 0.376640 -0.514554
C31   C     C_R   0.082401 0.495965 0.327955 0.810692
C32   C     C_R   0.871090 0.516111 0.768868 -0.051801
C33   C     C_R   0.128848 0.489539 0.229685 -0.137353
C34   C     C_R   0.913555 0.589794 0.905558 -0.200015
C35   C     C_R   0.965777 0.563187 0.815168 -0.146443
C36   C     C_R   0.724841 0.493712 0.813870 -0.234404
Cu1   Cu    Cu3+1 0.140670 0.499980 0.500000 0.991045
Cu2   Cu    Cu3+1 0.859330 0.500020 0.500000 0.953181
H1    H     H_    0.788417 0.634888 0.076681 0.148240
H2    H     H_    0.989228 0.467761 0.052021 0.153721
H3    H     H_    0.789185 0.111088 0.469641 0.164058
H4    H     H_    0.790463 0.886702 0.470232 0.159315
H5    H     H_    0.345894 0.900041 0.487605 0.053262
H6    H     H_    0.232653 0.121193 0.607124 0.236194
H7    H     H_    0.336975 0.121310 0.485925 0.162739
H8    H     H_    0.571156 0.417768 0.628147 0.138869
H9    H     H_    0.311895 0.418225 0.628124 0.137820
H10   H     H_    0.461071 0.644217 0.308798 0.214723
H11   H     H_    0.411577 0.725958 0.417403 0.208024
H12   H     H_    0.711933 0.644940 0.308786 0.190271
H13   H     H_    0.662649 0.728014 0.417897 0.216081
H14   H     H_    0.909909 0.485986 0.214254 0.172194
H15   H     H_    0.184900 0.465650 0.911921 0.142717
H16   H     H_    0.987813 0.628346 0.939980 0.146891
H17   H     H_    0.078926 0.582267 0.781171 0.169565
H18   H     H_    0.657227 0.451497 0.776991 0.140209
H19   H     H_    0.537700 0.602758 0.155416 0.184392
H20   H     H_    0.436140 0.482908 0.832014 0.135159
N1    N     N_R   0.648210 0.500930 0.499430 -0.183899
N2    N     N_R   0.352300 0.500890 0.499430 -0.176300
O1    O     O_R   0.118810 0.319640 0.500000 -0.588731
O2    O     O_R   0.881230 0.319680 0.499990 -0.590679
O3    O     O_R   0.055580 0.499970 0.629840 -0.568287
O4    O     O_R   0.818000 0.500010 0.629830 -0.589850
O5    O     O_R   0.118770 0.680320 0.500010 -0.548097
O6    O     O_R   0.881190 0.680360 0.500000 -0.583205
O7    O     O_R   0.182000 0.499990 0.370170 -0.537929
O8    O     O_R   0.944420 0.500030 0.370160 -0.597853
S1    S     S_3+6 0.237382 0.871109 0.649136 0.004413
O9    O     O_2   0.349038 0.929842 0.687986 -0.296901
O10   O     O_2   0.087563 0.892752 0.709916 -0.270969
O11   O     O_3   0.267809 0.719128 0.639104 -0.526096
H21   H     H_    0.302217 0.695451 0.691367 0.352967
O12   O     O_3   0.377611 0.451188 0.230425 -0.599406
C37   C     C_3   0.402770 0.323362 0.221449 0.097164
H22   H     H_    0.461169 0.300785 0.151159 0.150124
H23   H     H_    0.298646 0.269784 0.242208 0.133614
C38   C     C_3   0.497164 0.283808 0.280968 -0.797247
H24   H     H_    0.437385 0.297170 0.352183 0.243183
H25   H     H_    0.524362 0.184890 0.270556 0.197192
H26   H     H_    0.599788 0.338789 0.264652 0.242010

loop_
_geom_bond_atom_site_label_1
_geom_bond_atom_site_label_2
_ccdc_geom_bond_type
C30   H13   S    
C16   C21   A    
C19   C20   A    
C4    C8    A    
C1    O2    A    
C14   C33   A    
C29   H11   S    
C25   C28   A    
C31   O7    A    
C26   C27   A    
Cu1   Cu2   S    
C24   H7    S    
C32   C36   A    
C23   O6    A    
C28   C29   S    
C5    C11   A    
C3    C7    A    
C27   N2    A    
C5    C6    A    
C12   O4    A    
C38   H25   S    
C27   H9    S    
C34   C35   A    
S1    O10   D    
C13   H2    S    
C8    H20   S    
C11   C15   A    
C14   H14   S    
Cu2   O6    S    
C8    C9    A    
Cu1   O5    S    
C31   C33   S    
C26   N1    A    
C22   S1    S    
C19   H4    S    
C30   H12   S    
C16   C24   S    
C21   C22   S    
C12   C32   S    
C6    H19   S    
Cu1   O3    S    
Cu2   O4    S    
C28   N2    A    
C31   O8    A    
O12   C37   S    
C29   H10   S    
C35   H17   S    
C32   C35   A    
C18   H3    S    
C12   O3    A    
C38   H24   S    
C18   C19   A    
C3    C34   A    
S1    O11   S    
C2    C4    A    
C37   H22   S    
C29   C30   S    
C36   H18   S    
C22   H5    S    
C20   C23   S    
C17   C18   A    
C37   H23   S    
Cu2   O8    S    
C34   H16   S    
C24   H6    S    
C22   C24   S    
C9    H15   S    
C9    C10   A    
C2    C36   A    
C25   C30   S    
O11   H21   S    
C10   C13   A    
C1    O1    A    
Cu1   O1    S    
C6    C7    A    
C1    C17   S    
C23   O5    A    
C2    C3    A    
C38   H26   S    
C16   C17   A    
Cu1   O7    S    
S1    O9    D    
C37   C38   S    
Cu1   N2    S    
C10   C11   A    
C26   H8    S    
Cu2   N1    S    
C4    C5    A    
C15   O12   S    
C20   C21   A    
C7    H1    S    
C25   N1    A    
C13   C14   A    
C15   C33   A    
Cu2   O2    S    
