data_mof_unit_9230.cif
_audit_creation_date              2012-12-10T20:27:12-0500
_audit_creation_method            fapswitch 2.2
_symmetry_space_group_name_H-M    P1
_symmetry_Int_Tables_number       1
_space_group_crystal_system       triclinic
_cell_length_a                    10.779758
_cell_length_b                    10.684528
_cell_length_c                    9.863661
_cell_angle_alpha                 90.286747
_cell_angle_beta                  103.946258
_cell_angle_gamma                 90.020285
_cell_volume                      1102.55933765

loop_
_atom_site_label
_atom_site_type_symbol
_atom_type_description
_atom_site_fract_x
_atom_site_fract_y
_atom_site_fract_z
_atom_type_partial_charge
C1    C     C_R   0.495249 0.259849 0.498369 0.915869
C2    C     C_R   0.565964 0.587851 0.089856 -0.108773
C3    C     C_R   0.565893 0.587915 0.945845 -0.105526
C4    C     C_R   0.258925 0.504085 0.441804 0.943597
C5    C     C_R   0.443768 0.404311 0.913280 0.113370
C6    C     C_3   0.306992 0.365955 0.869584 -0.558661
C7    C     C_3   0.305260 0.368103 0.022973 0.436963
C8    C     C_R   0.495750 0.740006 0.499170 0.906023
C9    C     C_R   0.741135 0.504238 0.558171 0.931218
C10   C     C_2   0.122316 0.519755 0.408696 -0.334253
C11   C     C_2   0.067959 0.551246 0.511617 -0.170909
C12   C     C_R   0.473419 0.128332 0.492460 -0.248504
C13   C     C_2   0.877785 0.521041 0.590882 -0.360502
C14   C     C_2   0.931792 0.549533 0.486958 -0.146804
C15   C     C_R   0.473248 0.064494 0.615277 0.055773
C16   C     C_R   0.447969 0.062807 0.364492 0.603413
C17   C     C_R   0.448069 0.933465 0.365840 -0.296324
C18   C     C_R   0.473800 0.871040 0.494201 -0.197707
C19   C     C_R   0.473391 0.936803 0.616175 0.143341
C20   C     C_3   0.563117 0.930979 0.757543 -0.463021
C21   C     C_3   0.562985 0.072906 0.756666 -0.425586
C22   C     C_R   0.443050 0.404707 0.055628 0.177152
F1    F     F_    0.228405 0.462808 0.053370 -0.643043
F2    F     F_    0.433783 0.121685 0.240093 -0.691870
H1    H     H_    0.876105 0.560996 0.379974 0.188448
H2    H     H_    0.066312 0.503524 0.302616 0.183046
H3    H     H_    0.437327 0.883377 0.267889 0.201155
H4    H     H_    0.516946 0.890826 0.836924 0.209453
H5    H     H_    0.657265 0.889588 0.755273 0.197847
H6    H     H_    0.516771 0.114682 0.835548 0.213815
H7    H     H_    0.657103 0.114147 0.753935 0.203414
H8    H     H_    0.617265 0.660132 0.158066 0.140791
H9    H     H_    0.617147 0.660202 0.905424 0.140068
H10   H     H_    0.245262 0.438505 0.806873 0.240142
H11   H     H_    0.295643 0.270399 0.823118 0.169483
H12   H     H_    0.287867 0.275329 0.065179 0.141953
H13   H     H_    0.123540 0.567813 0.617801 0.192449
H14   H     H_    0.933993 0.508916 0.697437 0.170809
N1    N     N_R   0.499160 0.499140 0.142600 -0.088432
N2    N     N_R   0.499160 0.499180 0.856960 -0.088632
O1    O     O_R   0.500020 0.316790 0.614700 -0.619812
O2    O     O_R   0.500000 0.316760 0.385350 -0.563320
O3    O     O_R   0.317820 0.500020 0.571850 -0.628877
O4    O     O_R   0.317800 0.499980 0.342510 -0.550415
O5    O     O_R   0.500000 0.683240 0.614650 -0.622617
O6    O     O_R   0.499980 0.683210 0.385300 -0.628236
O7    O     O_R   0.682200 0.500020 0.657490 -0.614855
O8    O     O_R   0.682180 0.499980 0.428150 -0.622767
Zn1   Zn    Zn3+2 0.500010 0.500020 0.653140 0.949658
Zn2   Zn    Zn3+2 0.499990 0.499980 0.346860 1.010194

loop_
_geom_bond_atom_site_label_1
_geom_bond_atom_site_label_2
_ccdc_geom_bond_type
C16   F2    S    
C9    O7    A    
C6    C7    S    
C4    O3    A    
C7    C22   S    
C20   H4    S    
C7    H12   S    
O6    Zn2   S    
C19   C20   S    
C12   C15   A    
O5    Zn1   S    
C10   H2    S    
O8    Zn2   S    
C17   C18   A    
O7    Zn1   S    
C13   C14   D    
C6    H11   S    
C15   C19   A    
C21   H7    S    
C13   H14   S    
C1    C12   S    
O2    Zn2   S    
C7    F1    S    
C22   N1    A    
C1    O1    A    
C3    N2    A    
C2    C3    A    
C20   H5    S    
C14   H1    S    
C5    C6    S    
C11   C14   S    
C8    O6    A    
C10   C11   D    
C3    H9    S    
C4    C10   S    
N2    Zn1   S    
C17   H3    S    
C12   C16   A    
C1    O2    A    
C15   C21   S    
N1    Zn2   S    
C20   C21   S    
C9    O8    A    
C2    H8    S    
C18   C19   A    
C21   H6    S    
C5    N2    A    
O1    Zn1   S    
C11   H13   S    
C9    C13   S    
C8    O5    A    
O3    Zn1   S    
O4    Zn2   S    
C4    O4    A    
C2    N1    A    
C8    C18   S    
C5    C22   A    
C6    H10   S    
C16   C17   A    
