data_mof_unit_26954.cif
_audit_creation_date              2012-10-26T19:25:17-0400
_audit_creation_method            fapswitch 2.2
_symmetry_space_group_name_H-M    P1
_symmetry_Int_Tables_number       1
_space_group_crystal_system       triclinic
_cell_length_a                    12.320977
_cell_length_b                    13.072523
_cell_length_c                    19.35444
_cell_angle_alpha                 77.782917
_cell_angle_beta                  101.406362
_cell_angle_gamma                 116.639179
_cell_volume                      2704.37758758

loop_
_atom_site_label
_atom_site_type_symbol
_atom_type_description
_atom_site_fract_x
_atom_site_fract_y
_atom_site_fract_z
_atom_type_partial_charge
C1    C     C_R   0.855068 0.285906 0.507374 0.554189
C2    C     C_R   0.006197 0.497330 0.146933 0.002985
C3    C     C_R   0.282258 0.014981 0.394893 -0.137714
C4    C     C_R   0.998818 0.498670 0.632290 0.572159
C5    C     C_R   0.228173 0.836119 0.475241 0.015819
C6    C     C_R   0.815532 0.084855 0.559206 -0.136045
C7    C     C_R   0.736983 0.968455 0.573297 -0.024413
C8    C     C_R   0.613818 0.930644 0.545721 -0.074424
C9    C     C_R   0.568665 0.007374 0.500914 -0.042001
C10   C     C_R   0.654774 0.118825 0.475876 -0.041124
C11   C     C_R   0.442105 0.975359 0.477279 -0.031482
C12   C     C_R   0.995886 0.496231 0.708200 0.046887
C13   C     C_R   0.406755 0.047412 0.420343 -0.034224
C14   C     C_R   0.496138 0.148364 0.387480 0.293160
C15   C     C_R   0.619693 0.182165 0.413663 0.304775
C16   C     C_R   0.145164 0.713963 0.490327 0.580470
C17   C     C_R   0.348280 0.875410 0.509234 0.263806
C18   C     C_R   0.194329 0.908142 0.420263 -0.201245
C19   C     C_R   0.774757 0.161459 0.512271 -0.014572
C20   C     C_R   0.352206 0.335679 0.616281 -0.146897
C21   C     C_R   0.764358 0.649215 0.406051 0.058122
C22   C     C_R   0.681077 0.698485 0.392258 0.255362
C23   C     C_R   0.003656 0.496772 0.070573 0.342999
C24   C     C_R   0.579349 0.650905 0.430917 0.000605
C25   C     C_R   0.558462 0.547839 0.481156 -0.034022
C26   C     C_R   0.654761 0.509963 0.497589 0.163053
C27   C     C_R   0.451015 0.483116 0.518545 -0.003045
C28   C     C_R   0.001268 0.501747 0.367408 0.570263
C29   C     C_R   0.451966 0.396635 0.576850 0.039983
C30   C     C_R   0.550832 0.368609 0.594628 -0.166394
C31   C     C_R   0.648057 0.421725 0.554835 -0.067701
C32   C     C_R   0.339576 0.495021 0.499459 0.050777
C33   C     C_R   0.250246 0.358968 0.597767 0.045338
C34   C     C_R   0.993004 0.494369 0.929610 0.346695
C35   C     C_R   0.004042 0.403969 0.759129 -0.059230
C36   C     C_R   0.002402 0.404556 0.830990 -0.117070
C37   C     C_R   0.991064 0.494145 0.853214 -0.025228
C38   C     C_R   0.979171 0.583539 0.802387 -0.119304
C39   C     C_R   0.983790 0.586833 0.729792 0.258005
C40   C     C_3   0.012490 0.303299 0.738215 -0.394153
C41   C     C_3   0.454896 0.182429 0.266914 -0.128373
C42   C     C_3   0.362785 0.868179 0.628444 -0.121311
C43   C     C_3   0.784777 0.886146 0.619505 -0.399164
C44   C     C_3   0.762479 0.227323 0.339533 -0.136228
C45   C     C_R   0.074480 0.450730 0.200633 -0.017757
C46   C     C_3   0.509184 0.723263 0.423883 -0.371175
C47   C     C_3   0.800626 0.890259 0.360837 -0.136118
C48   C     C_3   0.043496 0.784140 0.697702 -0.135496
C49   C     C_3   0.153653 0.400804 0.183574 -0.373290
C50   C     C_3   0.744461 0.537640 0.238919 -0.092664
C51   C     C_R   0.072107 0.454450 0.272049 -0.175949
C52   C     C_R   0.002644 0.502453 0.291261 0.003952
C53   C     C_R   0.933945 0.548069 0.237675 0.254800
C54   C     C_R   0.939062 0.547537 0.166167 -0.118601
Cu1   Cu    Cu3+1 0.098280 0.475420 0.516260 0.940380
Cu2   Cu    Cu3+1 0.901720 0.524580 0.483740 0.997305
H1    H     H_    0.253027 0.068743 0.352086 0.162919
H2    H     H_    0.717370 0.391472 0.571870 0.171586
H3    H     H_    0.965721 0.650428 0.819188 0.133662
H4    H     H_    0.124284 0.418601 0.313089 0.139175
H5    H     H_    0.889413 0.586269 0.125284 0.140106
H6    H     H_    0.100986 0.879792 0.394835 0.125733
H7    H     H_    0.104736 0.331959 0.722886 0.145772
H8    H     H_    0.998581 0.231238 0.782908 0.121727
H9    H     H_    0.941579 0.269055 0.693264 0.126495
H10   H     H_    0.400046 0.087519 0.267598 0.105880
H11   H     H_    0.547273 0.208570 0.252294 0.134743
H12   H     H_    0.908518 0.115622 0.585470 0.122393
H13   H     H_    0.408657 0.225968 0.224512 0.134999
H14   H     H_    0.271124 0.867897 0.623513 0.109295
H15   H     H_    0.435633 0.957997 0.628316 0.118173
H16   H     H_    0.376306 0.817984 0.680650 0.145400
H17   H     H_    0.823008 0.914381 0.672745 0.129395
H18   H     H_    0.711843 0.796612 0.626676 0.149341
H19   H     H_    0.858042 0.885176 0.594576 0.141163
H20   H     H_    0.699439 0.141977 0.321814 0.086714
H21   H     H_    0.842394 0.220159 0.374666 0.121556
H22   H     H_    0.796408 0.288002 0.291057 0.125796
H23   H     H_    0.556806 0.839829 0.557328 0.180627
H24   H     H_    0.473619 0.713620 0.474194 0.123943
H25   H     H_    0.569296 0.816971 0.413172 0.165493
H26   H     H_    0.434816 0.701488 0.378970 0.139294
H27   H     H_    0.886222 0.884590 0.356312 0.112180
H28   H     H_    0.800422 0.903212 0.415942 0.111736
H29   H     H_    0.799639 0.968036 0.324622 0.140602
H30   H     H_    0.058162 0.848249 0.648682 0.130521
H31   H     H_    0.135345 0.792811 0.724660 0.099829
H32   H     H_    0.996364 0.806259 0.731602 0.117389
H33   H     H_    0.211229 0.381461 0.231692 0.126154
H34   H     H_    0.172754 0.311926 0.627563 0.106478
H35   H     H_    0.095516 0.318624 0.161607 0.158957
H36   H     H_    0.215958 0.463427 0.144585 0.155088
H37   H     H_    0.695240 0.575056 0.260329 0.162989
H38   H     H_    0.714695 0.446115 0.264447 0.171324
H39   H     H_    0.716962 0.541893 0.180517 0.100738
H40   H     H_    0.551625 0.302040 0.638770 0.104241
H41   H     H_    0.352868 0.269923 0.660943 0.087145
H42   H     H_    0.010503 0.334552 0.869830 0.147276
H43   H     H_    0.322559 0.545387 0.450734 0.127026
H44   H     H_    0.842210 0.686037 0.376372 0.161670
N1    N     N_R   0.992371 0.585039 0.952814 -0.236074
N2    N     N_R   0.997197 0.586032 0.021951 -0.231073
N3    N     N_R   0.002808 0.405631 0.047339 -0.236299
N4    N     N_R   0.998083 0.404644 0.978275 -0.236706
N5    N     N_R   0.246290 0.438200 0.540910 -0.231182
N6    N     N_R   0.754310 0.561190 0.459520 -0.266294
O1    O     O_R   0.972510 0.318130 0.520450 -0.524409
O2    O     O_3   0.370499 0.815461 0.574283 -0.573890
O3    O     O_3   0.705151 0.272298 0.373733 -0.527991
O4    O     O_3   0.696670 0.792327 0.339435 -0.570732
O5    O     O_3   0.969274 0.673099 0.678056 -0.547682
O6    O     O_3   0.871355 0.602889 0.254932 -0.560698
O7    O     O_R   0.806530 0.359650 0.492990 -0.478030
O8    O     O_R   0.083010 0.479220 0.613590 -0.504643
O9    O     O_R   0.917030 0.520740 0.586130 -0.482393
O10   O     O_R   0.193470 0.640350 0.507010 -0.459128
O11   O     O_R   0.027490 0.681870 0.479550 -0.519301
O12   O     O_R   0.082970 0.479260 0.413870 -0.535505
O13   O     O_R   0.916990 0.520780 0.386410 -0.432965
O14   O     O_3   0.462867 0.219047 0.332033 -0.553201

loop_
_geom_bond_atom_site_label_1
_geom_bond_atom_site_label_2
_ccdc_geom_bond_type
C43   H17   S    
Cu1   Cu2   S    
N1    N2    A    
C27   C29   A    
C34   C37   S    
C28   C52   S    
Cu2   O11   S    
C15   O3    S    
C4    O9    A    
C35   C36   A    
C26   N6    A    
C7    C8    A    
C41   H11   S    
C53   C54   A    
C6    C19   A    
C29   C30   A    
C40   H7    S    
Cu1   N5    S    
C47   H29   S    
C31   H2    S    
C4    O8    A    
C44   H21   S    
C10   C15   A    
C30   C31   A    
C50   H39   S    
C23   N2    A    
C5    C17   A    
Cu1   O10   S    
C45   C51   A    
C42   H14   S    
C3    C18   A    
C44   H20   S    
C5    C16   S    
C30   H40   S    
C13   C14   A    
C46   H26   S    
C23   N3    A    
C20   H41   S    
C8    C9    A    
C22   O4    S    
C8    H23   S    
Cu2   O7    S    
C48   H32   S    
C47   H27   S    
C4    C12   S    
C9    C10   A    
C21   N6    A    
C3    C13   A    
C44   O3    S    
C43   H18   S    
C6    H12   S    
C26   C31   A    
C21   C22   A    
C1    O7    A    
C49   H35   S    
C16   O10   A    
C42   H16   S    
C20   C29   A    
C2    C45   A    
C43   H19   S    
C1    C19   S    
C34   N1    A    
C51   C52   A    
C33   N5    A    
C24   C25   A    
C2    C54   A    
C17   O2    S    
C21   H44   S    
C50   H38   S    
C5    C18   A    
C25   C26   A    
C34   N4    A    
Cu1   O1    S    
C37   C38   A    
C46   H25   S    
C45   C49   S    
C10   C19   A    
C50   O6    S    
C48   H31   S    
C47   H28   S    
C12   C35   A    
C9    C11   A    
Cu2   N6    S    
C41   H10   S    
C1    O1    A    
C20   C33   A    
C3    H1    S    
C53   O6    S    
C54   H5    S    
C14   O14   S    
C40   H9    S    
Cu2   O13   S    
C48   H30   S    
C49   H36   S    
C2    C23   S    
C52   C53   A    
C41   H13   S    
C7    C43   S    
C36   C37   A    
C27   C32   A    
C18   H6    S    
C49   H33   S    
C28   O13   A    
C11   C17   A    
C50   H37   S    
C6    C7    A    
Cu1   O8    S    
C25   C27   A    
C47   O4    S    
C40   H8    S    
C32   H43   S    
C32   N5    A    
C24   C46   S    
C12   C39   A    
C44   H22   S    
C35   C40   S    
C28   O12   A    
C33   H34   S    
C46   H24   S    
C11   C13   A    
C38   C39   A    
C39   O5    S    
C42   H15   S    
Cu2   O9    S    
C22   C24   A    
C41   O14   S    
C38   H3    S    
C48   O5    S    
N3    N4    A    
C14   C15   A    
C36   H42   S    
C51   H4    S    
C16   O11   A    
C42   O2    S    
Cu1   O12   S    
