data_mof_unit_6537.cif
_audit_creation_date              2012-12-10T18:08:31-0500
_audit_creation_method            fapswitch 2.2
_symmetry_space_group_name_H-M    P1
_symmetry_Int_Tables_number       1
_space_group_crystal_system       triclinic
_cell_length_a                    18.320714
_cell_length_b                    18.32038
_cell_length_c                    51.327647
_cell_angle_alpha                 89.999631
_cell_angle_beta                  89.995436
_cell_angle_gamma                 90.007999
_cell_volume                      17227.7365763

loop_
_atom_site_label
_atom_site_type_symbol
_atom_type_description
_atom_site_fract_x
_atom_site_fract_y
_atom_site_fract_z
_atom_type_partial_charge
C1    C     C_R   0.000068 0.500014 0.820224 0.874286
C2    C     C_R   0.000086 0.500005 0.179772 0.874268
C3    C     C_R   0.499951 0.999916 0.820236 0.874556
C4    C     C_R   0.499968 0.000005 0.179769 0.873741
C5    C     C_R   0.499999 1.000000 0.320225 0.874034
C6    C     C_R   0.499999 0.000000 0.679774 0.874246
C7    C     C_R   0.999998 0.500000 0.320225 0.874026
C8    C     C_R   0.000002 0.499999 0.679774 0.874251
C9    C     C_R   0.934761 0.510532 0.637167 -0.322294
C10   C     C_R   0.934743 0.489454 0.362835 -0.322418
C11   C     C_R   0.489450 0.934750 0.637166 -0.322415
C12   C     C_R   0.510560 0.934754 0.362834 -0.322531
C13   C     C_R   0.065256 0.489462 0.637165 -0.322507
C14   C     C_R   0.065242 0.510542 0.362833 -0.322530
C15   C     C_R   0.510548 0.065250 0.637165 -0.322460
C16   C     C_R   0.489438 0.065245 0.362834 -0.322430
C17   C     C_R   0.434169 0.011195 0.137334 -0.317773
C18   C     C_R   0.433614 0.990792 0.862636 -0.317888
C19   C     C_R   0.991491 0.434622 0.137129 -0.323480
C20   C     C_R   0.012175 0.435128 0.862859 -0.321191
C21   C     C_R   0.564461 0.988934 0.136954 -0.324388
C22   C     C_R   0.564666 0.007823 0.863112 -0.326582
C23   C     C_R   0.010360 0.565458 0.137190 -0.321910
C24   C     C_R   0.989461 0.565355 0.862799 -0.322277
C25   C     C_R   0.000007 0.499998 0.651003 -0.115845
C26   C     C_R   0.999993 0.500000 0.348996 -0.115921
C27   C     C_R   0.499997 0.000000 0.651003 -0.115843
C28   C     C_R   0.499999 0.999999 0.348996 -0.115898
C29   C     C_R   0.499625 0.000077 0.150989 -0.116419
C30   C     C_R   0.499513 0.999504 0.849027 -0.115994
C31   C     C_R   0.000588 0.500033 0.150998 -0.115619
C32   C     C_R   0.000497 0.500130 0.848993 -0.116032
C33   C     C_R   0.000013 0.499994 0.596161 0.132071
C34   C     C_R   0.999989 0.499994 0.403838 0.132004
C35   C     C_R   0.500003 0.999999 0.596161 0.132103
C36   C     C_R   0.499999 0.999999 0.403838 0.132000
C37   C     C_R   0.498287 0.000038 0.096139 0.131580
C38   C     C_R   0.497876 0.999013 0.903906 0.130529
C39   C     C_R   0.001746 0.500082 0.096149 0.132144
C40   C     C_R   0.001639 0.500567 0.903826 0.131729
C41   C     C_R   0.859706 0.640295 0.750000 1.009308
C42   C     C_R   0.140272 0.359727 0.250000 1.008778
C43   C     C_R   0.359705 0.859710 0.749999 1.009458
C44   C     C_R   0.640274 0.140271 0.250000 1.008610
C45   C     C_R   0.140298 0.359708 0.750001 1.009398
C46   C     C_R   0.859725 0.640273 0.250000 1.008768
C47   C     C_R   0.640294 0.140290 0.749999 1.009102
C48   C     C_R   0.359730 0.859727 0.250000 1.008709
C49   C     C_R   0.859709 0.359706 0.250001 1.009394
C50   C     C_R   0.140272 0.640272 0.750000 1.008563
C51   C     C_R   0.359710 0.140297 0.250000 1.009622
C52   C     C_R   0.640272 0.859727 0.750000 1.008589
C53   C     C_R   0.140290 0.640293 0.250000 1.009526
C54   C     C_R   0.859731 0.359725 0.750000 1.008473
C55   C     C_R   0.640291 0.859703 0.249998 1.009492
C56   C     C_R   0.359727 0.140273 0.750000 1.008730
C57   C     C_R   0.780966 0.273145 0.726179 0.381258
C58   C     C_R   0.218942 0.727124 0.273808 0.378642
C59   C     C_R   0.727002 0.781099 0.726188 0.381223
C60   C     C_R   0.272791 0.218875 0.273803 0.378620
C61   C     C_R   0.218840 0.727060 0.726189 0.381215
C62   C     C_R   0.780848 0.273070 0.273818 0.378689
C63   C     C_R   0.272859 0.218753 0.726196 0.381229
C64   C     C_R   0.727085 0.781014 0.273807 0.378619
C65   C     C_R   0.781262 0.727172 0.273803 0.381258
C66   C     C_R   0.219023 0.272936 0.726191 0.378584
C67   C     C_R   0.727007 0.218883 0.273813 0.381253
C68   C     C_R   0.273022 0.780906 0.726184 0.378638
C69   C     C_R   0.218608 0.272713 0.273798 0.381225
C70   C     C_R   0.780838 0.726917 0.726183 0.378679
C71   C     C_R   0.272795 0.781301 0.273803 0.381263
C72   C     C_R   0.726773 0.219311 0.726174 0.378679
C73   C     C_R   0.281303 0.772803 0.226196 0.381265
C74   C     C_R   0.719333 0.226733 0.773824 0.378323
C75   C     C_R   0.227314 0.281410 0.226202 0.381372
C76   C     C_R   0.773081 0.719173 0.773818 0.378692
C77   C     C_R   0.718914 0.226993 0.226188 0.381206
C78   C     C_R   0.280897 0.773027 0.773813 0.378532
C79   C     C_R   0.772818 0.718714 0.226195 0.381290
C80   C     C_R   0.227084 0.281004 0.773810 0.378815
C81   C     C_R   0.281260 0.227160 0.773806 0.381315
C82   C     C_R   0.718970 0.772885 0.226190 0.378749
C83   C     C_R   0.227045 0.718851 0.773810 0.381245
C84   C     C_R   0.773096 0.280838 0.226183 0.378486
C85   C     C_R   0.718894 0.773004 0.773812 0.381239
C86   C     C_R   0.281173 0.227247 0.226199 0.378814
C87   C     C_R   0.773173 0.280919 0.773819 0.381119
C88   C     C_R   0.227121 0.718955 0.226191 0.378604
C89   C     C_R   0.696334 0.196322 0.749998 -0.394900
C90   C     C_R   0.303745 0.803742 0.250000 -0.390646
C91   C     C_R   0.803671 0.696335 0.750000 -0.395005
C92   C     C_R   0.196258 0.303745 0.249999 -0.390660
C93   C     C_R   0.303669 0.803675 0.749998 -0.394895
C94   C     C_R   0.696263 0.196251 0.250000 -0.390710
C95   C     C_R   0.196339 0.303676 0.750001 -0.394918
C96   C     C_R   0.803738 0.696254 0.249999 -0.390719
C97   C     C_R   0.696323 0.803664 0.249998 -0.394860
C98   C     C_R   0.303746 0.196259 0.750001 -0.390759
C99   C     C_R   0.803675 0.303669 0.250001 -0.394897
C100  C     C_R   0.196253 0.696260 0.750000 -0.390679
C101  C     C_R   0.303683 0.196343 0.250000 -0.394869
C102  C     C_R   0.696254 0.803742 0.750000 -0.390821
C103  C     C_R   0.196323 0.696331 0.250000 -0.394842
C104  C     C_R   0.803754 0.303732 0.749999 -0.390769
C105  C     C_R   0.499384 0.064596 0.944837 0.606379
C106  C     C_R   0.489609 0.935495 0.055150 0.596182
C107  C     C_R   0.936800 0.496679 0.944828 0.605196
C108  C     C_R   0.066893 0.501546 0.055135 0.604972
C109  C     C_R   0.491016 0.934718 0.945042 0.616835
C110  C     C_R   0.502193 0.065004 0.055141 0.604250
C111  C     C_R   0.066704 0.504901 0.944805 0.604995
C112  C     C_R   0.936756 0.499090 0.055138 0.605224
C113  C     C_R   0.998546 0.565059 0.444839 0.604876
C114  C     C_R   0.998634 0.434926 0.555160 0.604988
C115  C     C_R   0.434936 0.998542 0.444841 0.604915
C116  C     C_R   0.565069 0.998633 0.555158 0.605085
C117  C     C_R   0.001428 0.434928 0.444839 0.605003
C118  C     C_R   0.001390 0.565061 0.555160 0.605037
C119  C     C_R   0.565065 0.001455 0.444837 0.604961
C120  C     C_R   0.434937 0.001368 0.555162 0.604986
C121  C     C_R   0.485026 0.933639 0.972494 -0.188418
C122  C     C_R   0.500931 0.066823 0.027625 -0.170766
C123  C     C_R   0.068482 0.505346 0.972324 -0.174009
C124  C     C_R   0.934974 0.499145 0.027623 -0.171012
C125  C     C_R   0.497897 0.066752 0.972345 -0.168799
C126  C     C_R   0.482796 0.934368 0.027734 -0.190344
C127  C     C_R   0.935068 0.496313 0.972341 -0.172546
C128  C     C_R   0.068664 0.501979 0.027613 -0.172761
C129  C     C_R   0.001557 0.433153 0.472356 -0.172677
C130  C     C_R   0.001501 0.566836 0.527643 -0.172669
C131  C     C_R   0.566841 0.001576 0.472354 -0.172665
C132  C     C_R   0.433160 0.001483 0.527645 -0.172650
C133  C     C_R   0.998430 0.566834 0.472356 -0.172652
C134  C     C_R   0.998513 0.433150 0.527643 -0.172651
C135  C     C_R   0.433161 0.998423 0.472358 -0.172653
C136  C     C_R   0.566844 0.998518 0.527641 -0.172671
C137  C     C_R   0.491026 0.000360 0.986233 -0.148881
C138  C     C_R   0.491191 0.000573 0.013863 -0.143774
C139  C     C_R   0.001790 0.500762 0.986154 -0.146821
C140  C     C_R   0.001811 0.500635 0.013797 -0.146272
C141  C     C_R   0.999997 0.499993 0.486178 -0.146892
C142  C     C_R   0.000004 0.499993 0.513821 -0.146899
C143  C     C_R   0.500001 0.999999 0.486178 -0.146886
C144  C     C_R   0.500002 1.000000 0.513821 -0.146901
C145  C     C_R   0.472275 0.868162 0.986486 0.454677
C146  C     C_R   0.509114 0.132771 0.013580 0.412985
C147  C     C_R   0.134854 0.510177 0.986310 0.416196
C148  C     C_R   0.868436 0.497720 0.013641 0.408317
C149  C     C_R   0.503089 0.133209 0.986268 0.411480
C150  C     C_R   0.468342 0.869090 0.013836 0.449412
C151  C     C_R   0.868696 0.491673 0.986336 0.414515
C152  C     C_R   0.135181 0.503803 0.013613 0.411009
C153  C     C_R   0.003151 0.366628 0.486347 0.413138
C154  C     C_R   0.003014 0.633363 0.513652 0.413122
C155  C     C_R   0.633366 0.003178 0.486343 0.413124
C156  C     C_R   0.366634 0.002989 0.513656 0.413122
C157  C     C_R   0.996843 0.633359 0.486347 0.413128
C158  C     C_R   0.996994 0.366624 0.513653 0.413114
C159  C     C_R   0.366637 0.996822 0.486351 0.413127
C160  C     C_R   0.633370 0.997013 0.513648 0.413126
C161  C     C_R   0.934719 0.512377 0.609833 0.465419
C162  C     C_R   0.934696 0.487605 0.390168 0.465448
C163  C     C_R   0.487606 0.934704 0.609833 0.465403
C164  C     C_R   0.512404 0.934710 0.390167 0.465440
C165  C     C_R   0.065304 0.487615 0.609832 0.465425
C166  C     C_R   0.065285 0.512380 0.390165 0.465382
C167  C     C_R   0.512401 0.065294 0.609832 0.465394
C168  C     C_R   0.487595 0.065289 0.390167 0.465436
C169  C     C_R   0.433501 0.012984 0.110022 0.457226
C170  C     C_R   0.432669 0.988802 0.889946 0.459179
C171  C     C_R   0.990243 0.434550 0.109787 0.466190
C172  C     C_R   0.014603 0.435342 0.890188 0.465248
C173  C     C_R   0.563810 0.987046 0.109595 0.471195
C174  C     C_R   0.563991 0.009411 0.890481 0.475759
C175  C     C_R   0.012725 0.565571 0.109865 0.464720
C176  C     C_R   0.988149 0.565581 0.890135 0.465571
H1    H     H_    0.883807 0.517967 0.647503 0.165341
H2    H     H_    0.883790 0.482011 0.352500 0.165370
H3    H     H_    0.482005 0.883796 0.647502 0.165348
H4    H     H_    0.518016 0.883804 0.352498 0.165369
H5    H     H_    0.116207 0.482027 0.647500 0.165360
H6    H     H_    0.116196 0.517986 0.352497 0.165380
H7    H     H_    0.517996 0.116204 0.647500 0.165385
H8    H     H_    0.481981 0.116195 0.352499 0.165346
H9    H     H_    0.383486 0.019192 0.147791 0.165785
H10   H     H_    0.382699 0.985111 0.852137 0.165872
H11   H     H_    0.984781 0.383544 0.147448 0.165310
H12   H     H_    0.020122 0.384203 0.852552 0.165280
H13   H     H_    0.615540 0.980971 0.147156 0.164988
H14   H     H_    0.616070 0.013659 0.852935 0.164899
H15   H     H_    0.016720 0.616535 0.147541 0.165492
H16   H     H_    0.981177 0.616135 0.852438 0.165366
N1    N     N_R   0.496597 0.999415 0.931959 -0.321740
N2    N     N_R   0.497227 0.000123 0.068113 -0.320653
N3    N     N_R   0.001740 0.500705 0.931853 -0.322867
N4    N     N_R   0.001822 0.500210 0.068110 -0.321933
N5    N     N_R   0.999988 0.499993 0.431871 -0.322215
N6    N     N_R   0.000015 0.499994 0.568129 -0.322204
N7    N     N_R   0.500000 0.999999 0.431871 -0.322214
N8    N     N_R   0.500003 1.000000 0.568128 -0.322202
O1    O     O_3   1.000000 0.500000 0.750000 -0.485274
O2    O     O_3   1.000000 0.500000 0.250000 -0.485200
O3    O     O_3   0.500000 0.000000 0.750000 -0.485196
O4    O     O_3   0.500000 1.000000 0.250000 -0.485243
O5    O     O_R   1.000000 0.439150 0.807730 -0.664637
O6    O     O_R   0.000000 0.560850 0.192270 -0.665006
O7    O     O_R   0.560850 1.000000 0.807730 -0.664463
O8    O     O_R   0.439150 1.000000 0.192270 -0.665100
O9    O     O_R   0.000000 0.560850 0.807730 -0.664810
O10   O     O_R   0.000000 0.439150 0.192270 -0.665012
O11   O     O_R   0.439150 1.000000 0.807730 -0.665443
O12   O     O_R   0.560850 1.000000 0.192270 -0.664399
O13   O     O_R   0.500000 0.939150 0.307730 -0.664918
O14   O     O_R   0.500000 0.060850 0.692270 -0.664879
O15   O     O_R   0.060850 0.500000 0.307730 -0.664973
O16   O     O_R   0.939150 0.500000 0.692270 -0.664775
O17   O     O_R   0.500000 0.060850 0.307730 -0.664856
O18   O     O_R   0.500000 0.939150 0.692270 -0.664867
O19   O     O_R   0.939150 0.500000 0.307730 -0.664875
O20   O     O_R   0.060850 0.500000 0.692270 -0.664905
O21   O     O_R   0.914360 0.646040 0.764890 -0.651089
O22   O     O_R   0.085640 0.353960 0.235110 -0.653202
O23   O     O_R   0.353960 0.914360 0.764890 -0.651150
O24   O     O_R   0.646040 0.085640 0.235110 -0.652964
O25   O     O_R   0.085640 0.353960 0.764890 -0.651197
O26   O     O_R   0.914360 0.646040 0.235110 -0.653013
O27   O     O_R   0.646040 0.085640 0.764890 -0.651129
O28   O     O_R   0.353960 0.914360 0.235110 -0.653018
O29   O     O_R   0.914360 0.353960 0.235110 -0.651073
O30   O     O_R   0.085640 0.646040 0.764890 -0.653044
O31   O     O_R   0.353960 0.085640 0.235110 -0.651142
O32   O     O_R   0.646040 0.914360 0.764890 -0.653109
O33   O     O_R   0.085640 0.646040 0.235110 -0.651218
O34   O     O_R   0.914360 0.353960 0.764890 -0.652886
O35   O     O_R   0.646040 0.914360 0.235110 -0.651206
O36   O     O_R   0.353960 0.085640 0.764890 -0.653085
O37   O     O_R   0.414360 0.146040 0.264890 -0.651218
O38   O     O_R   0.585640 0.853960 0.735110 -0.652926
O39   O     O_R   0.853960 0.414360 0.264890 -0.651024
O40   O     O_R   0.146040 0.585640 0.735110 -0.652991
O41   O     O_R   0.585640 0.853960 0.264890 -0.651088
O42   O     O_R   0.414360 0.146040 0.735110 -0.653093
O43   O     O_R   0.146040 0.585640 0.264890 -0.651071
O44   O     O_R   0.853960 0.414360 0.735110 -0.652871
O45   O     O_R   0.414360 0.853960 0.735110 -0.651089
O46   O     O_R   0.585640 0.146040 0.264890 -0.652897
O47   O     O_R   0.853960 0.585640 0.735110 -0.651083
O48   O     O_R   0.146040 0.414360 0.264890 -0.653058
O49   O     O_R   0.585640 0.146040 0.735110 -0.650943
O50   O     O_R   0.414360 0.853960 0.264890 -0.653046
O51   O     O_R   0.146040 0.414360 0.735110 -0.651146
O52   O     O_R   0.853960 0.585640 0.264890 -0.653069
O53   O     O_2   0.504055 0.126860 0.930910 -0.535169
O54   O     O_2   0.489786 0.872666 0.068855 -0.535458
O55   O     O_2   0.874313 0.493309 0.930979 -0.527366
O56   O     O_2   0.129450 0.502577 0.068986 -0.533918
O57   O     O_2   0.491873 0.871862 0.931375 -0.532162
O58   O     O_2   0.508417 0.127287 0.068982 -0.528359
O59   O     O_2   0.129158 0.508314 0.930937 -0.530068
O60   O     O_2   0.874198 0.497771 0.068992 -0.533652
O61   O     O_2   0.997438 0.627614 0.430982 -0.532227
O62   O     O_2   0.997587 0.372370 0.569017 -0.532209
O63   O     O_2   0.372382 0.997421 0.430987 -0.532235
O64   O     O_2   0.627624 0.997599 0.569013 -0.532160
O65   O     O_2   0.002523 0.372373 0.430982 -0.532150
O66   O     O_2   0.002439 0.627617 0.569016 -0.532179
O67   O     O_2   0.627619 0.002573 0.430979 -0.532174
O68   O     O_2   0.372382 0.002406 0.569020 -0.532228
Zn1   Zn    Zn3+2 0.913060 0.500000 0.727930 0.972155
Zn2   Zn    Zn3+2 0.086940 0.500000 0.272070 0.972167
Zn3   Zn    Zn3+2 0.500000 0.913060 0.727930 0.972170
Zn4   Zn    Zn3+2 0.500000 0.086940 0.272070 0.972202
Zn5   Zn    Zn3+2 0.086940 0.500000 0.727930 0.972042
Zn6   Zn    Zn3+2 0.913060 0.500000 0.272070 0.972192
Zn7   Zn    Zn3+2 0.500000 0.086940 0.727930 0.972101
Zn8   Zn    Zn3+2 0.500000 0.913060 0.272070 0.972169
Zn9   Zn    Zn3+2 0.413060 0.000000 0.227930 0.972168
Zn10  Zn    Zn3+2 0.586940 1.000000 0.772070 0.972250
Zn11  Zn    Zn3+2 1.000000 0.413060 0.227930 0.972108
Zn12  Zn    Zn3+2 0.000000 0.586940 0.772070 0.972135
Zn13  Zn    Zn3+2 0.586940 0.000000 0.227930 0.972340
Zn14  Zn    Zn3+2 0.413060 1.000000 0.772070 0.971988
Zn15  Zn    Zn3+2 1.000000 0.586940 0.227930 0.972184
Zn16  Zn    Zn3+2 1.000000 0.413060 0.772070 0.972232
O69   O     O_3   0.818064 0.289043 0.703334 -0.561443
C177  C     C_3   0.781301 0.344327 0.689231 -0.204580
H17   H     H_    0.816799 0.393230 0.687944 0.194431
H18   H     H_    0.727506 0.361295 0.697470 0.104946
H19   H     H_    0.772504 0.325135 0.668982 0.170546
O70   O     O_3   0.182064 0.710810 0.296656 -0.560068
C178  C     C_3   0.217189 0.652848 0.309883 -0.220189
H20   H     H_    0.257928 0.622018 0.298019 0.124385
H21   H     H_    0.175078 0.613431 0.316476 0.187755
H22   H     H_    0.244325 0.674086 0.327588 0.161809
O71   O     O_3   0.711239 0.818308 0.703356 -0.561524
C179  C     C_3   0.656000 0.781626 0.689200 -0.204796
H23   H     H_    0.607102 0.817117 0.687927 0.194462
H24   H     H_    0.639013 0.727765 0.697384 0.105011
H25   H     H_    0.675261 0.772967 0.668951 0.170681
O72   O     O_3   0.289035 0.181944 0.296644 -0.560041
C180  C     C_3   0.346982 0.217038 0.309895 -0.220365
H26   H     H_    0.377900 0.257741 0.298041 0.124447
H27   H     H_    0.386329 0.174901 0.316510 0.187698
H28   H     H_    0.325703 0.244211 0.327588 0.161806
O73   O     O_3   0.181579 0.711337 0.703365 -0.561534
C181  C     C_3   0.218222 0.656129 0.689183 -0.204846
H29   H     H_    0.182726 0.607222 0.687911 0.194488
H30   H     H_    0.272103 0.639142 0.697343 0.105016
H31   H     H_    0.226831 0.675425 0.668935 0.170726
O74   O     O_3   0.817526 0.289566 0.296689 -0.560005
C182  C     C_3   0.782281 0.347629 0.309822 -0.220193
H32   H     H_    0.741613 0.378338 0.297889 0.124323
H33   H     H_    0.824327 0.387121 0.316408 0.187828
H34   H     H_    0.755031 0.326537 0.327529 0.161620
O75   O     O_3   0.288503 0.181417 0.703380 -0.561529
C183  C     C_3   0.343694 0.218004 0.689166 -0.205056
H35   H     H_    0.392588 0.182503 0.687899 0.194454
H36   H     H_    0.360709 0.271921 0.697295 0.105018
H37   H     H_    0.324362 0.226534 0.668920 0.170813
O76   O     O_3   0.710733 0.817845 0.296659 -0.560046
C184  C     C_3   0.652737 0.782685 0.309864 -0.220226
H38   H     H_    0.621899 0.741999 0.297978 0.124415
H39   H     H_    0.613336 0.824783 0.316471 0.187753
H40   H     H_    0.673938 0.755476 0.327560 0.161729
O77   O     O_3   0.818612 0.711554 0.296617 -0.561521
C185  C     C_3   0.782039 0.656371 0.310839 -0.205053
H41   H     H_    0.817539 0.607475 0.312102 0.194486
H42   H     H_    0.728113 0.639356 0.302721 0.105076
H43   H     H_    0.773533 0.675715 0.331086 0.170829
O78   O     O_3   0.182228 0.289312 0.703335 -0.560056
C186  C     C_3   0.217405 0.347326 0.690145 -0.220272
H44   H     H_    0.258072 0.378152 0.702044 0.124354
H45   H     H_    0.175316 0.386735 0.683539 0.187762
H46   H     H_    0.244639 0.326148 0.672450 0.161693
O79   O     O_3   0.711238 0.181657 0.296642 -0.561501
C187  C     C_3   0.656015 0.218330 0.310807 -0.204671
H47   H     H_    0.607108 0.182836 0.312082 0.194500
H48   H     H_    0.639036 0.272194 0.302629 0.105035
H49   H     H_    0.675285 0.226979 0.331054 0.170681
O80   O     O_3   0.289479 0.817635 0.703318 -0.560034
C188  C     C_3   0.347523 0.782421 0.690164 -0.220271
H50   H     H_    0.378270 0.741750 0.702083 0.124310
H51   H     H_    0.386987 0.824488 0.683570 0.187788
H52   H     H_    0.326400 0.755180 0.672461 0.161661
O81   O     O_3   0.181148 0.288231 0.296599 -0.561612
C189  C     C_3   0.217640 0.343369 0.310867 -0.205063
H53   H     H_    0.182131 0.392259 0.312127 0.194528
H54   H     H_    0.271611 0.360411 0.302791 0.105133
H55   H     H_    0.226039 0.323956 0.331111 0.170924
O82   O     O_3   0.817504 0.710406 0.703310 -0.560006
C190  C     C_3   0.782246 0.652324 0.690188 -0.220261
H56   H     H_    0.741612 0.621594 0.702135 0.124295
H57   H     H_    0.824289 0.612855 0.683588 0.187793
H58   H     H_    0.754953 0.673400 0.672490 0.161585
O83   O     O_3   0.288394 0.818683 0.296614 -0.561550
C191  C     C_3   0.343545 0.782130 0.310850 -0.205024
H59   H     H_    0.392452 0.817627 0.312111 0.194519
H60   H     H_    0.360548 0.728186 0.302744 0.105098
H61   H     H_    0.324176 0.773660 0.331095 0.170837
O84   O     O_3   0.710129 0.182785 0.703284 -0.560014
C192  C     C_3   0.651992 0.218126 0.690227 -0.220149
H62   H     H_    0.621375 0.258734 0.702218 0.124274
H63   H     H_    0.612447 0.176130 0.683641 0.187884
H64   H     H_    0.672973 0.245471 0.672523 0.161448
O85   O     O_3   0.318684 0.788415 0.203386 -0.561416
C193  C     C_3   0.282121 0.843566 0.189151 -0.204487
H65   H     H_    0.317619 0.892472 0.187883 0.194533
H66   H     H_    0.228186 0.860573 0.197263 0.104961
H67   H     H_    0.273635 0.824193 0.168907 0.170836
O86   O     O_3   0.682816 0.210062 0.796715 -0.559991
C194  C     C_3   0.718177 0.151933 0.809773 -0.216460
H68   H     H_    0.758900 0.121420 0.797797 0.123413
H69   H     H_    0.676213 0.112294 0.816321 0.188323
H70   H     H_    0.745389 0.172906 0.827504 0.160172
O87   O     O_3   0.211817 0.318884 0.203403 -0.561274
C195  C     C_3   0.156698 0.282397 0.189124 -0.205917
H71   H     H_    0.107792 0.317886 0.187874 0.194308
H72   H     H_    0.139683 0.228399 0.197184 0.105128
H73   H     H_    0.176117 0.274050 0.168878 0.170819
O88   O     O_3   0.789597 0.682523 0.796692 -0.559469
C196  C     C_3   0.847676 0.717796 0.809808 -0.219841
H74   H     H_    0.878411 0.758412 0.797855 0.124086
H75   H     H_    0.887141 0.675759 0.816413 0.187689
H76   H     H_    0.826600 0.745117 0.827502 0.161440
O89   O     O_3   0.681726 0.211199 0.203354 -0.561316
C197  C     C_3   0.718423 0.155954 0.189208 -0.203710
H77   H     H_    0.682913 0.107060 0.187924 0.194517
H78   H     H_    0.772253 0.138955 0.197408 0.104726
H79   H     H_    0.727145 0.175210 0.168962 0.170884
O90   O     O_3   0.317640 0.789467 0.796675 -0.559947
C198  C     C_3   0.282440 0.847503 0.809838 -0.219228
H80   H     H_    0.241737 0.878241 0.797930 0.123994
H81   H     H_    0.324507 0.886978 0.816422 0.187896
H82   H     H_    0.255242 0.826363 0.827546 0.162019
O91   O     O_3   0.788447 0.681354 0.203383 -0.561293
C199  C     C_3   0.843608 0.717944 0.189155 -0.204934
H83   H     H_    0.892505 0.682449 0.187881 0.194339
H84   H     H_    0.860629 0.771866 0.197277 0.104956
H85   H     H_    0.824239 0.726464 0.168913 0.170704
O92   O     O_3   0.210725 0.317824 0.796665 -0.559999
C200  C     C_3   0.152730 0.282654 0.809866 -0.221651
H86   H     H_    0.121898 0.241970 0.797976 0.124548
H87   H     H_    0.113325 0.324748 0.816471 0.187581
H88   H     H_    0.173928 0.255441 0.827562 0.161960
O93   O     O_3   0.318612 0.211540 0.796620 -0.561365
C201  C     C_3   0.282043 0.156359 0.810844 -0.205692
H89   H     H_    0.317538 0.107459 0.812105 0.194204
H90   H     H_    0.228111 0.139351 0.802729 0.105123
H91   H     H_    0.273552 0.175704 0.831092 0.170675
O94   O     O_3   0.682112 0.789192 0.203339 -0.559902
C202  C     C_3   0.717259 0.847148 0.190107 -0.220327
H92   H     H_    0.758138 0.877868 0.201948 0.124070
H93   H     H_    0.675180 0.886657 0.183569 0.187838
H94   H     H_    0.744234 0.825926 0.172365 0.161641
O95   O     O_3   0.211291 0.681613 0.796638 -0.561613
C203  C     C_3   0.156078 0.718284 0.810809 -0.204733
H95   H     H_    0.107158 0.682806 0.812078 0.194561
H96   H     H_    0.139121 0.772168 0.802641 0.105020
H97   H     H_    0.175350 0.726900 0.831058 0.170868
O96   O     O_3   0.789612 0.317513 0.203311 -0.559869
C204  C     C_3   0.847668 0.282253 0.190177 -0.218014
H98   H     H_    0.878305 0.241506 0.202100 0.123744
H99   H     H_    0.887221 0.324280 0.183616 0.188068
H100  H     H_    0.826582 0.255093 0.172453 0.161096
O97   O     O_3   0.681675 0.788768 0.796643 -0.560810
C205  C     C_3   0.718342 0.844015 0.810801 -0.203845
H101  H     H_    0.682840 0.892907 0.812077 0.194015
H102  H     H_    0.772199 0.861016 0.802617 0.104415
H103  H     H_    0.727002 0.824756 0.831049 0.171386
O98   O     O_3   0.318162 0.211052 0.203364 -0.559809
C206  C     C_3   0.283085 0.153159 0.190079 -0.221432
H104  H     H_    0.242275 0.122272 0.201896 0.124392
H105  H     H_    0.325219 0.113773 0.183491 0.187499
H106  H     H_    0.256049 0.174494 0.172369 0.162364
O99   O     O_3   0.789118 0.317957 0.796671 -0.561278
C207  C     C_3   0.844439 0.281158 0.810743 -0.202784
H107  H     H_    0.893320 0.316680 0.812042 0.194505
H108  H     H_    0.861432 0.227411 0.802469 0.104538
H109  H     H_    0.825279 0.272248 0.830989 0.170722
O100  O     O_3   0.210811 0.682084 0.203343 -0.559857
C208  C     C_3   0.152846 0.717208 0.190117 -0.219390
H110  H     H_    0.122042 0.757977 0.201977 0.124065
H111  H     H_    0.113408 0.675100 0.183538 0.187809
H112  H     H_    0.174077 0.744310 0.172403 0.161735
O101  O     O_3   0.467582 0.801659 0.973742 -0.524207
C209  C     C_3   0.394341 0.787295 0.966682 -0.191951
H113  H     H_    0.358591 0.836578 0.965809 0.087364
H114  H     H_    0.370628 0.746852 0.980357 0.161174
H115  H     H_    0.393871 0.762073 0.947032 0.198575
O102  O     O_3   0.519667 0.198366 0.026404 -0.559475
C210  C     C_3   0.595104 0.213901 0.026679 -0.160737
H116  H     H_    0.616450 0.223080 0.006654 0.159632
H117  H     H_    0.626642 0.169782 0.036482 0.152022
H118  H     H_    0.603938 0.264890 0.037897 0.191819
O103  O     O_3   0.200848 0.517054 0.973428 -0.555826
C211  C     C_3   0.220506 0.591528 0.973121 -0.179885
H119  H     H_    0.230723 0.612445 0.993140 0.159551
H120  H     H_    0.178231 0.625370 0.963262 0.150015
H121  H     H_    0.271973 0.597522 0.961939 0.186890
O104  O     O_3   0.802108 0.497717 0.026534 -0.564720
C212  C     C_3   0.774935 0.569768 0.026891 -0.142321
H122  H     H_    0.762359 0.589508 0.006893 0.169414
H123  H     H_    0.813646 0.607794 0.036678 0.149309
H124  H     H_    0.723292 0.570412 0.038168 0.193627
O105  O     O_3   0.507390 0.199287 0.973309 -0.561675
C213  C     C_3   0.437187 0.230904 0.972838 -0.163617
H125  H     H_    0.418022 0.244733 0.992804 0.161212
H126  H     H_    0.396954 0.194610 0.962994 0.149915
H127  H     H_    0.439903 0.282465 0.961552 0.192742
O106  O     O_3   0.452301 0.804497 0.026607 -0.530877
C214  C     C_3   0.377515 0.804747 0.033482 -0.205595
H128  H     H_    0.341434 0.818587 0.016771 0.091134
H129  H     H_    0.366397 0.843398 0.049668 0.187575
H130  H     H_    0.362319 0.749314 0.040274 0.194482
O107  O     O_3   0.802645 0.485368 0.973462 -0.555931
C215  C     C_3   0.782502 0.411036 0.973063 -0.156422
H131  H     H_    0.772042 0.390032 0.993054 0.158512
H132  H     H_    0.824601 0.376987 0.963195 0.149140
H133  H     H_    0.731063 0.405499 0.961839 0.193947
O108  O     O_3   0.201521 0.503942 0.026494 -0.560556
C216  C     C_3   0.229156 0.432058 0.026649 -0.159851
H134  H     H_    0.241905 0.412845 0.006599 0.160702
H135  H     H_    0.190671 0.393565 0.036319 0.150179
H136  H     H_    0.280781 0.431488 0.037935 0.192402
O109  O     O_3   0.006401 0.300368 0.473463 -0.560769
C217  C     C_3   0.079688 0.276721 0.473132 -0.164607
H137  H     H_    0.099988 0.265190 0.493140 0.160086
H138  H     H_    0.115800 0.317196 0.463329 0.151362
H139  H     H_    0.082860 0.225125 0.461883 0.191616
O110  O     O_3   0.006190 0.699628 0.526535 -0.560796
C218  C     C_3   0.079447 0.723390 0.526854 -0.164563
H140  H     H_    0.099716 0.734954 0.506844 0.160102
H141  H     H_    0.115619 0.682970 0.536652 0.151356
H142  H     H_    0.082562 0.774990 0.538104 0.191631
O111  O     O_3   0.699625 0.006441 0.473457 -0.560786
C219  C     C_3   0.723285 0.079732 0.473131 -0.164558
H143  H     H_    0.734817 0.100027 0.493140 0.160079
H144  H     H_    0.682817 0.115844 0.463331 0.151374
H145  H     H_    0.774882 0.082914 0.461881 0.191621
O112  O     O_3   0.300371 0.006153 0.526542 -0.560805
C220  C     C_3   0.276617 0.079407 0.526865 -0.164549
H146  H     H_    0.265050 0.099676 0.506856 0.160116
H147  H     H_    0.317042 0.115586 0.536661 0.151349
H148  H     H_    0.225021 0.082513 0.538118 0.191622
O113  O     O_3   0.993588 0.699619 0.473464 -0.560781
C221  C     C_3   0.920302 0.723269 0.473142 -0.164582
H149  H     H_    0.900011 0.734797 0.493152 0.160081
H150  H     H_    0.884184 0.682797 0.463342 0.151381
H151  H     H_    0.917126 0.774868 0.461894 0.191609
O114  O     O_3   0.993826 0.300358 0.526536 -0.560813
C222  C     C_3   0.920571 0.276593 0.526864 -0.164517
H152  H     H_    0.900293 0.265028 0.506856 0.160111
H153  H     H_    0.884401 0.317011 0.536665 0.151370
H154  H     H_    0.917464 0.224992 0.538114 0.191630
O115  O     O_3   0.300377 0.993560 0.473470 -0.560781
C223  C     C_3   0.276715 0.920269 0.473146 -0.164594
H155  H     H_    0.265182 0.899975 0.493155 0.160078
H156  H     H_    0.317182 0.884156 0.463344 0.151372
H157  H     H_    0.225118 0.917088 0.461898 0.191610
O116  O     O_3   0.699633 0.993850 0.526530 -0.560806
C224  C     C_3   0.723391 0.920597 0.526851 -0.164552
H158  H     H_    0.734963 0.900332 0.506841 0.160127
H159  H     H_    0.682965 0.884414 0.536648 0.151343
H160  H     H_    0.774984 0.917492 0.538102 0.191627
O117  O     O_3   0.870193 0.521503 0.596202 -0.646292
C225  C     C_3   0.843854 0.593798 0.599132 0.129900
H161  H     H_    0.840413 0.618572 0.579406 0.182436
H162  H     H_    0.879626 0.630388 0.611023 0.151108
C226  C     C_3   0.767384 0.592092 0.611086 -0.384204
H163  H     H_    0.731245 0.557018 0.599006 0.240413
H164  H     H_    0.770122 0.568425 0.630987 0.204253
C227  C     C_3   0.734577 0.668546 0.612718 -0.950832
H165  H     H_    0.769961 0.704795 0.624611 0.275689
H166  H     H_    0.679886 0.665661 0.621990 0.257139
H167  H     H_    0.728500 0.692171 0.592905 0.275334
O118  O     O_3   0.870167 0.478460 0.403801 -0.646290
C228  C     C_3   0.843860 0.406142 0.400884 0.129802
H168  H     H_    0.840401 0.381402 0.420616 0.182357
H169  H     H_    0.879663 0.369554 0.389007 0.151149
C229  C     C_3   0.767406 0.407774 0.388921 -0.384189
H170  H     H_    0.731235 0.442846 0.400989 0.240411
H171  H     H_    0.770162 0.431409 0.369015 0.204275
C230  C     C_3   0.734631 0.331296 0.387301 -0.950686
H172  H     H_    0.770046 0.295051 0.375420 0.275708
H173  H     H_    0.679952 0.334128 0.378022 0.257157
H174  H     H_    0.728536 0.307700 0.407119 0.275306
O119  O     O_3   0.478471 0.870174 0.596202 -0.646302
C231  C     C_3   0.406161 0.843849 0.599122 0.129911
H175  H     H_    0.381420 0.840387 0.579392 0.182438
H176  H     H_    0.369567 0.879642 0.611001 0.151126
C232  C     C_3   0.407812 0.767392 0.611086 -0.384235
H177  H     H_    0.442909 0.731236 0.599022 0.240434
H178  H     H_    0.431424 0.770154 0.630994 0.204241
C233  C     C_3   0.331346 0.734586 0.612698 -0.950833
H179  H     H_    0.295070 0.769992 0.624571 0.275644
H180  H     H_    0.334188 0.679911 0.621983 0.257160
H181  H     H_    0.307780 0.728471 0.592878 0.275332
O120  O     O_3   0.521562 0.870185 0.403797 -0.646308
C234  C     C_3   0.593900 0.843943 0.400893 0.129810
H182  H     H_    0.618606 0.840498 0.420629 0.182394
H183  H     H_    0.630487 0.879782 0.389025 0.151152
C235  C     C_3   0.592335 0.767490 0.388923 -0.384199
H184  H     H_    0.557244 0.731290 0.400976 0.240441
H185  H     H_    0.568760 0.770239 0.369009 0.204267
C236  C     C_3   0.668831 0.734769 0.387328 -0.950828
H186  H     H_    0.705101 0.770223 0.375467 0.275590
H187  H     H_    0.666052 0.680098 0.378039 0.257202
H188  H     H_    0.692363 0.728669 0.407154 0.275321
O121  O     O_3   0.129834 0.478489 0.596200 -0.646307
C237  C     C_3   0.156134 0.406175 0.599112 0.129893
H189  H     H_    0.159601 0.381451 0.579378 0.182440
H190  H     H_    0.120323 0.369570 0.610984 0.151132
C238  C     C_3   0.232582 0.407813 0.611081 -0.384208
H191  H     H_    0.268754 0.442925 0.599025 0.240440
H192  H     H_    0.229813 0.431401 0.630993 0.204248
C239  C     C_3   0.265366 0.331344 0.612680 -0.950945
H193  H     H_    0.229940 0.295051 0.624543 0.275576
H194  H     H_    0.320032 0.334174 0.621970 0.257185
H195  H     H_    0.271491 0.307803 0.592856 0.275335
O122  O     O_3   0.129815 0.521520 0.403793 -0.646322
C240  C     C_3   0.156047 0.593877 0.400915 0.129803
H196  H     H_    0.159547 0.618509 0.420662 0.182340
H197  H     H_    0.120170 0.630500 0.389080 0.151227
C241  C     C_3   0.232463 0.592387 0.388914 -0.384235
H198  H     H_    0.268700 0.557256 0.400933 0.240433
H199  H     H_    0.229660 0.568891 0.368989 0.204241
C242  C     C_3   0.265174 0.668901 0.387347 -0.950782
H200  H     H_    0.229681 0.705211 0.375522 0.275571
H201  H     H_    0.319814 0.666181 0.378031 0.257205
H202  H     H_    0.271339 0.692353 0.407183 0.275304
O123  O     O_3   0.521555 0.129820 0.596199 -0.646309
C243  C     C_3   0.593849 0.156169 0.599139 0.129932
H203  H     H_    0.618666 0.159574 0.579418 0.182427
H204  H     H_    0.630405 0.120423 0.611048 0.151156
C244  C     C_3   0.592135 0.232663 0.611070 -0.384225
H205  H     H_    0.557148 0.268792 0.598958 0.240361
H206  H     H_    0.568360 0.229972 0.630956 0.204346
C245  C     C_3   0.668601 0.265442 0.612743 -0.950638
H207  H     H_    0.704751 0.230084 0.624680 0.275812
H208  H     H_    0.665702 0.320168 0.621986 0.257095
H209  H     H_    0.692353 0.271435 0.592945 0.275323
O124  O     O_3   0.478438 0.129815 0.403797 -0.646292
C246  C     C_3   0.406088 0.156034 0.400909 0.129783
H210  H     H_    0.381416 0.159496 0.420651 0.182401
H211  H     H_    0.369490 0.120169 0.389057 0.151131
C247  C     C_3   0.407608 0.232472 0.388926 -0.384195
H212  H     H_    0.442724 0.268694 0.400959 0.240459
H213  H     H_    0.431131 0.229702 0.369003 0.204237
C248  C     C_3   0.331102 0.265177 0.387355 -0.950911
H214  H     H_    0.294803 0.229696 0.375519 0.275487
H215  H     H_    0.333845 0.319833 0.378052 0.257252
H216  H     H_    0.307626 0.271310 0.407190 0.275323
O125  O     O_3   0.368750 0.022953 0.096618 -0.651524
C249  C     C_3   0.344360 0.096023 0.099200 0.123420
H217  H     H_    0.341404 0.120122 0.079357 0.178130
H218  H     H_    0.381138 0.132120 0.110894 0.152247
C250  C     C_3   0.267998 0.096719 0.111248 -0.381764
H219  H     H_    0.230775 0.062417 0.099305 0.238594
H220  H     H_    0.270309 0.073372 0.131206 0.204346
C251  C     C_3   0.237347 0.174086 0.112726 -0.948290
H221  H     H_    0.273710 0.209493 0.124567 0.276666
H222  H     H_    0.182582 0.172868 0.121989 0.256551
H223  H     H_    0.231966 0.197581 0.092868 0.275052
O126  O     O_3   0.367346 0.981986 0.903265 -0.647213
C252  C     C_3   0.339177 0.910318 0.900534 0.118436
H224  H     H_    0.333895 0.886596 0.920356 0.162856
H225  H     H_    0.374592 0.872223 0.889120 0.151671
C253  C     C_3   0.263456 0.913474 0.888039 -0.374154
H226  H     H_    0.227822 0.950601 0.899512 0.239284
H227  H     H_    0.267997 0.935425 0.867931 0.203203
C254  C     C_3   0.228336 0.837963 0.886963 -0.966867
H228  H     H_    0.263262 0.799625 0.875755 0.274473
H229  H     H_    0.174334 0.841732 0.877234 0.259907
H230  H     H_    0.220336 0.816247 0.906969 0.270246
O127  O     O_3   0.982645 0.369862 0.096124 -0.646521
C255  C     C_3   0.910973 0.341802 0.098999 0.132229
H231  H     H_    0.886532 0.337513 0.079241 0.183710
H232  H     H_    0.873396 0.376845 0.110769 0.151665
C256  C     C_3   0.914334 0.265531 0.111071 -0.385572
H233  H     H_    0.950597 0.230162 0.099150 0.240682
H234  H     H_    0.937431 0.269080 0.131039 0.204307
C257  C     C_3   0.838696 0.230802 0.112520 -0.952006
H235  H     H_    0.801221 0.265477 0.124189 0.274445
H236  H     H_    0.842700 0.176384 0.121940 0.257498
H237  H     H_    0.815796 0.223737 0.092640 0.275454
O128  O     O_3   0.024992 0.371079 0.903856 -0.645782
C258  C     C_3   0.097756 0.346115 0.900882 0.126806
H238  H     H_    0.122826 0.343523 0.920577 0.180830
H239  H     H_    0.133503 0.382359 0.888845 0.150428
C259  C     C_3   0.097374 0.269417 0.889104 -0.382255
H240  H     H_    0.063359 0.232768 0.901375 0.240180
H241  H     H_    0.073159 0.271323 0.869275 0.204382
C260  C     C_3   0.174450 0.238179 0.887296 -0.949338
H242  H     H_    0.209596 0.274002 0.875148 0.276644
H243  H     H_    0.172451 0.183199 0.878215 0.256883
H244  H     H_    0.198762 0.233113 0.907039 0.275224
O129  O     O_3   0.627809 0.976956 0.095739 -0.643576
C261  C     C_3   0.653288 0.904358 0.098682 0.130479
H245  H     H_    0.656063 0.879384 0.078976 0.184905
H246  H     H_    0.617257 0.868305 0.110685 0.149573
C262  C     C_3   0.729990 0.905203 0.110459 -0.384273
H247  H     H_    0.766444 0.939386 0.098174 0.241062
H248  H     H_    0.727985 0.929451 0.130281 0.204358
C263  C     C_3   0.761649 0.828305 0.112295 -0.946159
H249  H     H_    0.726032 0.793010 0.124465 0.275849
H250  H     H_    0.816625 0.830635 0.121367 0.256671
H251  H     H_    0.766824 0.803948 0.092562 0.277074
O130  O     O_3   0.628380 0.016134 0.904385 -0.638777
C264  C     C_3   0.658285 0.086967 0.901233 0.135189
H252  H     H_    0.662772 0.112055 0.920882 0.186418
H253  H     H_    0.624411 0.124947 0.889198 0.149291
C265  C     C_3   0.734711 0.081275 0.889395 -0.384260
H254  H     H_    0.768874 0.044497 0.901559 0.242979
H255  H     H_    0.731037 0.057660 0.869508 0.204239
C266  C     C_3   0.771393 0.155956 0.887757 -0.954639
H256  H     H_    0.737881 0.193985 0.875888 0.273171
H257  H     H_    0.825841 0.150298 0.878468 0.258223
H258  H     H_    0.778717 0.179218 0.907571 0.275887
O131  O     O_3   0.020864 0.630319 0.096286 -0.646435
C267  C     C_3   0.092825 0.657613 0.099175 0.131959
H259  H     H_    0.117414 0.661515 0.079429 0.183575
H260  H     H_    0.129957 0.622273 0.111013 0.151853
C268  C     C_3   0.090223 0.733979 0.111188 -0.383934
H261  H     H_    0.054332 0.769644 0.099238 0.240527
H262  H     H_    0.067058 0.730745 0.131156 0.204179
C269  C     C_3   0.166209 0.767958 0.112616 -0.956150
H263  H     H_    0.203302 0.733013 0.124337 0.275830
H264  H     H_    0.162730 0.822496 0.121975 0.257705
H265  H     H_    0.189234 0.774619 0.092735 0.272710
O132  O     O_3   0.978365 0.630046 0.903746 -0.646483
C270  C     C_3   0.905767 0.655566 0.900862 0.130164
H266  H     H_    0.881044 0.658727 0.920603 0.184440
H267  H     H_    0.869525 0.619383 0.888996 0.151362
C271  C     C_3   0.906591 0.732051 0.888907 -0.389232
H268  H     H_    0.941174 0.768616 0.901004 0.241067
H269  H     H_    0.930381 0.729595 0.869019 0.204184
C272  C     C_3   0.829760 0.763936 0.887229 -0.934011
H270  H     H_    0.794020 0.728151 0.875293 0.275752
H271  H     H_    0.832042 0.818687 0.877981 0.254734
H272  H     H_    0.805945 0.769670 0.907027 0.281897

loop_
_geom_bond_atom_site_label_1
_geom_bond_atom_site_label_2
_ccdc_geom_bond_type
C132  C144  A    
C198  H82   S    
C181  H30   S    
C164  O120  S    
C264  H252  S    
C202  H93   S    
C174  O130  S    
O97   C205  S    
C178  H20   S    
C148  C151  A    
C105  O53   S    
O108  C216  S    
C215  H132  S    
C149  O105  S    
C9    H1    S    
C180  H26   S    
C207  H107  S    
C228  C229  S    
C268  H262  S    
O96   C204  S    
O45   Zn3   S    
C199  H84   S    
C112  C124  A    
C63   C98   A    
O46   Zn4   S    
C241  C242  S    
C237  H190  S    
C143  C144  A    
C60   O72   S    
C36   C168  A    
C251  H221  S    
C249  C250  S    
O32   Zn10  S    
C271  H268  S    
O126  C252  S    
O91   C199  S    
C39   C171  A    
C209  H115  S    
C200  H87   S    
C65   C96   A    
C5    O17   A    
O111  C219  S    
C195  H72   S    
O122  C240  S    
C67   C94   A    
O49   Zn7   S    
C185  H41   S    
O50   Zn8   S    
C22   H14   S    
C69   C92   A    
C156  O112  S    
C186  H46   S    
O121  C237  S    
C195  H73   S    
C223  H155  S    
C270  C271  S    
C237  C238  S    
C267  H260  S    
C10   C162  A    
C113  C133  A    
C218  H141  S    
C233  H180  S    
C14   H6    S    
C4    O8    A    
C232  C233  S    
C18   C170  A    
C192  H64   S    
C135  C159  A    
O78   C186  S    
C265  C266  S    
C171  O127  S    
C266  H258  S    
O80   C188  S    
C260  H244  S    
C160  O116  S    
C245  H207  S    
C241  H198  S    
C208  H112  S    
C247  C248  S    
C221  H149  S    
C51   O31   A    
C238  H191  S    
C219  H145  S    
C35   C163  A    
O30   Zn12  S    
C183  H35   S    
C233  H181  S    
C23   C31   A    
C238  C239  S    
C33   C161  A    
O101  C209  S    
C24   C32   A    
C73   C88   A    
C116  O64   S    
C246  H211  S    
C192  H63   S    
C75   C86   A    
C15   C27   A    
O83   C191  S    
C263  H251  S    
C11   C27   A    
C139  C140  A    
C5    O13   A    
C185  H43   S    
C235  H184  S    
C45   O25   A    
C14   C26   A    
C247  H213  S    
C239  H195  S    
C125  C149  A    
C255  C256  S    
C39   C175  A    
C179  H23   S    
C20   C172  A    
C264  C265  S    
C21   C173  A    
C83   C100  A    
C172  O128  S    
C196  H74   S    
C201  H90   S    
C197  H79   S    
C11   H3    S    
O110  C218  S    
C256  H233  S    
C24   C176  A    
C246  H210  S    
C131  C143  A    
O72   C180  S    
C261  H245  S    
C180  H28   S    
C258  H239  S    
C57   C104  A    
C56   O42   A    
O120  C234  S    
C209  H114  S    
C177  H19   S    
C64   O76   S    
O20   Zn5   S    
C59   C102  A    
C187  H47   S    
C8    O16   A    
C245  H209  S    
O87   C195  S    
C16   H8    S    
C61   O73   S    
C250  H219  S    
C50   C100  S    
O10   Zn11  S    
C84   O96   S    
C38   N1    S    
C105  C125  A    
C3    O7    A    
C239  H193  S    
C231  H176  S    
C257  H235  S    
C114  O62   S    
C107  C127  A    
C79   C96   A    
C262  H247  S    
C64   C65   A    
C177  H18   S    
O3    Zn14  S    
C109  C121  A    
O4    Zn9   S    
C131  C155  A    
C42   C92   S    
C122  C146  A    
C217  H137  S    
C269  H264  S    
C44   C94   S    
C259  H240  S    
O79   C187  S    
C244  C245  S    
C75   O87   S    
C227  H165  S    
C194  H69   S    
C184  H38   S    
C81   C98   A    
O77   C185  S    
C162  O118  S    
C72   O84   S    
O22   Zn11  S    
O85   C193  S    
O52   Zn6   S    
C76   C85   A    
O1    Zn5   S    
C66   C95   A    
C252  H225  S    
C204  H98   S    
C223  H156  S    
C43   O23   A    
C70   C91   A    
C36   N7    S    
C49   O39   A    
C226  C227  S    
C248  H214  S    
C272  H270  S    
C190  H58   S    
C106  N2    A    
C212  H122  S    
C42   O48   A    
O35   Zn13  S    
C7    C26   S    
C183  H37   S    
O41   Zn8   S    
O130  C264  S    
C178  H21   S    
C73   C90   A    
C110  O58   S    
C152  O108  S    
O1    Zn12  S    
C37   C169  A    
C48   O28   A    
O2    Zn11  S    
C38   C174  A    
C20   H12   S    
O3    Zn10  S    
C123  C139  A    
O4    Zn13  S    
O112  C220  S    
C217  H139  S    
O25   Zn16  S    
C121  C137  A    
C153  C158  A    
C159  O115  S    
C127  C151  A    
O26   Zn15  S    
C21   H13   S    
C128  C152  A    
C179  H25   S    
C230  H172  S    
C211  H119  S    
C254  H230  S    
C167  O123  S    
C196  H76   S    
C119  C131  A    
C109  N1    A    
C2    O6    A    
C74   C87   A    
C14   C166  A    
C117  C129  A    
C63   O75   S    
C145  C150  A    
C207  H109  S    
C52   O38   A    
C210  H118  S    
C194  H70   S    
C135  C143  A    
C222  H154  S    
O15   Zn2   S    
C48   C90   S    
O117  C225  S    
C15   C167  A    
C240  H196  S    
C187  H49   S    
C65   O77   S    
C58   O70   S    
C219  H144  S    
O84   C192  S    
C166  O122  S    
C216  H134  S    
C234  C235  S    
C188  H51   S    
C3    O11   A    
O8    Zn9   S    
C250  C251  S    
O31   Zn9   S    
C1    O9    A    
C203  H97   S    
O36   Zn14  S    
C24   H16   S    
C262  C263  S    
C40   C176  A    
C57   O69   S    
O106  C214  S    
C77   C84   A    
C115  N7    A    
O29   Zn11  S    
C62   C99   A    
C15   H7    S    
C265  H255  S    
C240  C241  S    
C249  H218  S    
O109  C217  S    
C49   C99   S    
C242  H201  S    
C189  H54   S    
C206  H104  S    
C227  H167  S    
C184  H40   S    
C145  O101  S    
C40   C172  A    
C11   C163  A    
C226  H163  S    
C114  C134  A    
C230  H174  S    
C107  O55   S    
C130  C154  A    
O1    Zn1   S    
C108  C128  A    
C80   C95   A    
C9    C161  A    
C224  H159  S    
C193  H67   S    
O94   C202  S    
O3    Zn3   S    
O107  C215  S    
O4    Zn4   S    
C134  C158  A    
C169  O125  S    
C213  H125  S    
C204  H100  S    
C13   H5    S    
C182  H33   S    
C225  H162  S    
C61   C100  A    
C242  H202  S    
C54   O34   A    
C222  H152  S    
C45   C95   S    
O86   C194  S    
O16   Zn1   S    
C200  H88   S    
C189  H55   S    
C255  H232  S    
C20   C32   A    
C212  H124  S    
C198  H81   S    
C22   C30   A    
C214  H129  S    
O33   Zn15  S    
C33   C165  A    
C53   O43   A    
C263  H250  S    
O92   C200  S    
C34   C162  A    
C79   C82   A    
C228  H169  S    
O34   Zn16  S    
C253  C254  S    
C43   C93   S    
C128  C140  A    
C256  C257  S    
C112  O60   S    
C129  C153  A    
C126  C150  A    
C71   C90   A    
C115  C135  A    
C60   C69   A    
C43   O45   A    
C211  H121  S    
C176  O132  S    
C132  C156  A    
C251  H222  S    
C50   O30   A    
O37   Zn4   S    
C133  C157  A    
O38   Zn3   S    
C130  C142  A    
O27   Zn10  S    
C271  H269  S    
C47   O49   A    
C76   C91   A    
C210  H116  S    
C136  C160  A    
O103  C211  S    
C67   O79   S    
O4    Zn8   S    
C235  C236  S    
C114  N6    A    
C220  H148  S    
C251  H223  S    
C170  O126  S    
C56   O36   A    
O21   Zn12  S    
C185  H42   S    
C208  H111  S    
C42   O22   A    
C254  H229  S    
C85   O97   S    
C85   C102  A    
O115  C223  S    
C111  N3    A    
C270  H267  S    
C40   N3    S    
C118  N6    A    
O125  C249  S    
C120  O68   S    
C17   C29   A    
C106  O54   S    
O119  C231  S    
C156  C159  A    
C182  H32   S    
C19   C31   A    
C248  H216  S    
C158  O114  S    
O129  C261  S    
C9    C25   A    
C258  H238  S    
C232  H178  S    
C77   O89   S    
C78   O90   S    
C52   C102  S    
C12   C28   A    
C119  N7    A    
C54   C104  S    
C229  H170  S    
C266  H257  S    
C260  H243  S    
C245  H208  S    
C58   C71   A    
C236  H188  S    
C129  C141  A    
C205  H101  S    
O19   Zn6   S    
C221  H150  S    
C194  H68   S    
C216  H136  S    
O100  C208  S    
C183  H36   S    
O70   C178  S    
C238  H192  S    
O48   Zn2   S    
C193  H65   S    
C112  N4    A    
C19   H11   S    
C150  O106  S    
C6    O18   A    
C78   C83   A    
O2    Zn6   S    
C126  C138  A    
C266  H256  S    
C17   H9    S    
C157  O113  S    
O39   Zn6   S    
C235  H185  S    
C38   C170  A    
C44   O24   A    
C265  H254  S    
C108  N4    A    
C4    C29   S    
C6    C27   S    
C44   O46   A    
C221  H151  S    
C179  H24   S    
C63   C66   A    
O75   C183  S    
C264  H253  S    
C108  O56   S    
C202  H94   S    
C8    C25   S    
C243  C244  S    
C173  O129  S    
O1    Zn16  S    
C111  O59   S    
C215  H131  S    
C207  H108  S    
O2    Zn15  S    
C200  H86   S    
C261  H246  S    
O82   C190  S    
C180  H27   S    
C268  C269  S    
C165  O121  S    
C181  H31   S    
C87   O99   S    
O44   Zn1   S    
C82   O94   S    
O127  C255  S    
C83   O95   S    
C199  H83   S    
C122  C138  A    
C154  C157  A    
C206  H105  S    
O131  C267  S    
C34   N5    S    
C243  H203  S    
C125  C137  A    
C237  H189  S    
C236  H186  S    
C111  C123  A    
C239  H194  S    
C257  H236  S    
C242  H200  S    
C12   H4    S    
O69   C177  S    
C118  C130  A    
C12   C164  A    
C146  C149  A    
C13   C165  A    
O24   Zn13  S    
C6    O14   A    
O13   Zn8   S    
O14   Zn7   S    
C55   C97   S    
C217  H138  S    
C269  H265  S    
C259  H241  S    
O7    Zn10  S    
C241  H199  S    
C267  H259  S    
C244  H206  S    
C227  H166  S    
C213  H126  S    
O5    Zn16  S    
C82   C97   A    
O6    Zn15  S    
C257  H237  S    
C62   O74   S    
C233  H179  S    
C74   O86   S    
C53   O33   A    
O71   C179  S    
O95   C203  S    
C252  H224  S    
C192  H62   S    
O17   Zn4   S    
O74   C182  S    
C55   O41   A    
O89   C197  S    
C84   C99   A    
C124  C140  A    
C229  C230  S    
O18   Zn3   S    
C55   O35   A    
C259  C260  S    
O42   Zn7   S    
C244  H205  S    
C254  H228  S    
C190  H57   S    
O90   C198  S    
C116  C136  A    
O88   C196  S    
C146  O102  S    
C187  H48   S    
C175  O131  S    
C39   N4    S    
C106  C126  A    
C133  C141  A    
O132  C270  S    
C37   N2    S    
C50   O40   A    
C197  H77   S    
O2    Zn2   S    
C136  C144  A    
C186  H44   S    
C110  C122  A    
C246  C247  S    
C223  H157  S    
O124  C246  S    
C21   C29   A    
C53   C103  S    
C69   O81   S    
C120  N8    A    
C253  H227  S    
C151  O107  S    
C191  H61   S    
C57   C72   A    
C49   O29   A    
C247  H212  S    
C163  O119  S    
O43   Zn2   S    
C272  H271  S    
C59   C70   A    
C87   C104  A    
C76   O88   S    
C59   O71   S    
O104  C212  S    
C211  H120  S    
O73   C181  S    
C202  H92   S    
C196  H75   S    
C201  H89   S    
C270  H266  S    
C161  O117  S    
C34   C166  A    
C71   O83   S    
C271  C272  S    
C215  H133  S    
C7    O15   A    
C203  H96   S    
C210  H117  S    
C16   C28   A    
C258  C259  S    
C268  H261  S    
C222  H153  S    
C209  H113  S    
C77   C94   A    
C197  H78   S    
C61   C68   A    
C199  H85   S    
C56   C98   S    
C214  H128  S    
C154  O110  S    
C107  N3    A    
C253  H226  S    
C208  H110  S    
C198  H80   S    
C234  H183  S    
C41   O21   A    
C188  H50   S    
O40   Zn5   S    
C23   C175  A    
C105  N1    A    
C250  H220  S    
O113  C221  S    
C62   C67   A    
C33   N6    S    
C74   C89   A    
C231  H175  S    
C19   C171  A    
C262  H248  S    
C177  H17   S    
O47   Zn1   S    
C17   C169  A    
C134  C142  A    
C78   C93   A    
C261  C262  S    
C148  O104  S    
C240  H197  S    
C269  H263  S    
C219  H143  S    
C226  H164  S    
O98   C206  S    
C141  C142  A    
C267  C268  S    
O116  C224  S    
C184  H39   S    
C201  H91   S    
C110  N2    A    
C35   C167  A    
C218  H140  S    
C41   C91   S    
C18   C30   A    
C1    O5    A    
C224  H158  S    
C117  O65   S    
C252  C253  S    
C7    O19   A    
C10   C26   A    
O102  C210  S    
C204  H99   S    
C118  O66   S    
C41   O47   A    
C48   O50   A    
C47   C89   S    
C225  C226  S    
C13   C25   A    
C249  H217  S    
C127  C139  A    
C81   O93   S    
C22   C174  A    
C35   N8    S    
C181  H29   S    
C206  H106  S    
C212  H123  S    
C36   C164  A    
C2    O10   A    
C236  H187  S    
C10   H2    S    
C213  H127  S    
C23   H15   S    
C178  H22   S    
O118  C228  S    
C243  H204  S    
C214  H130  S    
C232  H177  S    
C52   O32   A    
C272  H272  S    
O3    Zn7   S    
C228  H168  S    
C18   H10   S    
C1    C32   S    
O123  C243  S    
C2    C31   S    
C54   O44   A    
C191  H60   S    
C3    C30   S    
C256  H234  S    
O114  C222  S    
C8    O20   A    
C5    C28   S    
O12   Zn13  S    
C147  O103  S    
C234  H182  S    
C119  O67   S    
C230  H173  S    
O105  C213  S    
C46   O26   A    
C47   O27   A    
C51   O37   A    
O11   Zn14  S    
C113  O61   S    
C73   O85   S    
C186  H45   S    
C46   O52   A    
C115  O63   S    
C75   C92   A    
C70   O82   S    
C46   C96   S    
C123  C147  A    
C220  H147  S    
C121  C145  A    
C88   O100  S    
C60   C101  A    
C66   O78   S    
C88   C103  A    
C117  N5    A    
C195  H71   S    
C188  H52   S    
C64   C97   A    
C124  C148  A    
C168  O124  S    
C155  C160  A    
C120  C132  A    
C231  C232  S    
O51   Zn5   S    
C80   C81   A    
C80   O92   S    
C116  N8    A    
O128  C258  S    
O28   Zn9   S    
O9    Zn12  S    
C137  C138  A    
C68   C93   A    
C4    O12   A    
C203  H95   S    
O76   C184  S    
O23   Zn14  S    
C229  H171  S    
C147  C152  A    
C248  H215  S    
C155  O111  S    
C260  H242  S    
C72   C89   A    
C190  H56   S    
C153  O109  S    
C189  H53   S    
C45   O51   A    
C205  H102  S    
C16   C168  A    
C191  H59   S    
C216  H135  S    
O93   C201  S    
C109  O57   S    
C79   O91   S    
C224  H160  S    
C193  H66   S    
C218  H142  S    
C37   C173  A    
O99   C207  S    
C68   O80   S    
C263  H249  S    
C182  H34   S    
C113  N5    A    
C225  H161  S    
C58   C103  A    
C86   O98   S    
O81   C189  S    
C220  H146  S    
C86   C101  A    
C51   C101  S    
C255  H231  S    
C205  H103  S    
