data_mof_unit_9999.cif
_audit_creation_date              2012-12-10T16:48:45-0500
_audit_creation_method            fapswitch 2.2
_symmetry_space_group_name_H-M    P1
_symmetry_Int_Tables_number       1
_space_group_crystal_system       triclinic
_cell_length_a                    17.232074
_cell_length_b                    8.78406
_cell_length_c                    7.504137
_cell_angle_alpha                 103.137752
_cell_angle_beta                  89.887983
_cell_angle_gamma                 94.877927
_cell_volume                      1101.96986013

loop_
_atom_site_label
_atom_site_type_symbol
_atom_type_description
_atom_site_fract_x
_atom_site_fract_y
_atom_site_fract_z
_atom_type_partial_charge
C1    C     C_R   0.496317 0.200305 0.454728 0.840623
C2    C     C_R   0.503685 0.799695 0.545270 0.840624
C3    C     C_2   0.487427 0.033225 0.433271 -0.028119
C4    C     C_2   0.512576 0.966775 0.566723 -0.028138
C5    C     C_R   0.351501 0.504888 0.526944 0.839828
C6    C     C_R   0.648498 0.495115 0.473057 0.839812
C7    C     C_R   0.267737 0.513792 0.548524 -0.148395
C8    C     C_R   0.732265 0.486230 0.451479 -0.148392
C9    C     C_R   0.217141 0.378476 0.485754 0.142486
C10   C     C_R   0.782857 0.621526 0.514360 0.142460
C11   C     C_R   0.137403 0.386718 0.499510 -0.171993
C12   C     C_R   0.862595 0.613310 0.500564 -0.172007
C13   C     C_R   0.106566 0.529299 0.573616 0.025133
C14   C     C_R   0.893439 0.470772 0.426302 0.025181
C15   C     C_R   0.156362 0.665454 0.642187 0.176161
C16   C     C_R   0.843645 0.334641 0.357616 0.176107
C17   C     C_R   0.237544 0.657831 0.628435 0.091505
C18   C     C_R   0.762462 0.342231 0.371439 0.091535
C19   C     C_2   0.021835 0.535115 0.573995 -0.147441
C20   C     C_2   0.978173 0.464963 0.425922 -0.147412
Cu1   Cu    Cu3+1 0.508700 0.517250 0.683000 1.133181
Cu2   Cu    Cu3+1 0.491300 0.482750 0.317000 1.133175
H1    H     H_    0.004968 0.399651 0.304420 0.185987
H2    H     H_    0.995045 0.600426 0.695507 0.185965
H3    H     H_    0.900866 0.719113 0.549017 0.191540
H4    H     H_    0.099126 0.280902 0.451150 0.191564
N1    N     N_2   0.478180 0.456750 0.041980 0.060738
N2    N     N_2   0.521820 0.543250 0.958020 0.060741
O1    O     O_R   0.505650 0.286040 0.618880 -0.565533
O2    O     O_R   0.494350 0.713960 0.381120 -0.565539
O3    O     O_R   0.490960 0.256910 0.309800 -0.541607
O4    O     O_R   0.509040 0.743090 0.690200 -0.541602
O5    O     O_R   0.394600 0.516230 0.672450 -0.552965
O6    O     O_R   0.605400 0.483770 0.327550 -0.552972
O7    O     O_R   0.379910 0.487100 0.363380 -0.552563
O8    O     O_R   0.620090 0.512900 0.636620 -0.552558
I1    I     I_    0.256185 0.156547 0.369095 -0.184262
I2    I     I_    0.743814 0.843381 0.631294 -0.184218
I3    I     I_    0.686064 0.134756 0.283539 -0.180874
I4    I     I_    0.313954 0.865287 0.716342 -0.180885
I5    I     I_    0.107937 0.883114 0.754034 -0.231933
I6    I     I_    0.892071 0.117064 0.245447 -0.231922
I7    I     I_    0.423909 0.914137 0.186536 -0.108525
I8    I     I_    0.576090 0.085865 0.813458 -0.108528
Br1   Br    Br    0.395315 0.317642 0.923533 -0.272974
Br2   Br    Br    0.604684 0.682360 0.076469 -0.272987

loop_
_geom_bond_atom_site_label_1
_geom_bond_atom_site_label_2
_ccdc_geom_bond_type
C2    C4    S    
C18   I3    S    
C8    C10   A    
C14   C20   S    
C11   C13   A    
C19   C20   D    
C20   H1    S    
C10   I2    S    
C12   H3    S    
C2    O2    A    
N2    Br2   S    
N1    Br1   S    
C6    O8    A    
C1    O1    A    
C19   H2    S    
C5    C7    S    
Cu1   O8    S    
Cu1   Cu2   S    
Cu2   O7    S    
C9    C11   A    
C3    I7    S    
C10   C12   A    
C5    O7    A    
C9    I1    S    
Cu1   N2    S    
C12   C14   A    
C7    C9    A    
Cu2   N1    S    
C13   C15   A    
Cu2   O6    S    
Cu1   O4    S    
C14   C16   A    
Cu1   O5    S    
Cu2   O3    S    
C13   C19   S    
C3    C4    D    
C16   I6    S    
C1    O3    A    
C15   I5    S    
C2    O4    A    
N1    N2    D    
C15   C17   A    
C6    C8    S    
Cu2   O2    S    
C11   H4    S    
C1    C3    S    
Cu1   O1    S    
C16   C18   A    
C8    C18   A    
C6    O6    A    
C4    I8    S    
C7    C17   A    
C17   I4    S    
C5    O5    A    
