data_mof_unit_55742.cif
_audit_creation_date              2012-12-10T19:01:50-0500
_audit_creation_method            fapswitch 2.2
_symmetry_space_group_name_H-M    P1
_symmetry_Int_Tables_number       1
_space_group_crystal_system       triclinic
_cell_length_a                    11.703549
_cell_length_b                    10.816409
_cell_length_c                    9.58784
_cell_angle_alpha                 90.292687
_cell_angle_beta                  90.620727
_cell_angle_gamma                 90.914024
_cell_volume                      1213.48565532

loop_
_atom_site_label
_atom_site_type_symbol
_atom_type_description
_atom_site_fract_x
_atom_site_fract_y
_atom_site_fract_z
_atom_type_partial_charge
C1    C     C_R   0.500829 0.262650 0.499862 0.772826
C2    C     C_R   0.507770 0.129711 0.501010 -0.092245
C3    C     C_R   0.548416 0.065153 0.384785 -0.213786
C4    C     C_R   0.549608 0.936227 0.385798 -0.217977
C5    C     C_R   0.509369 0.871123 0.502410 -0.080802
C6    C     C_R   0.483037 0.937090 0.622988 0.068673
C7    C     C_3   0.381521 0.927853 0.716045 -0.466599
C8    C     C_3   0.380055 0.069039 0.716398 -0.048970
C9    C     C_R   0.584632 0.559964 0.074993 0.235643
C10   C     C_R   0.422241 0.429660 0.069865 0.224593
C11   C     C_R   0.423957 0.430483 0.921734 -0.088951
C12   C     C_R   0.284102 0.499571 0.499411 0.808083
C13   C     C_R   0.585156 0.559106 0.928059 0.252785
C14   C     C_3   0.616689 0.692796 0.922042 -0.490380
C15   C     C_3   0.613201 0.694649 0.080119 -0.510967
C16   C     C_R   0.501187 0.737597 0.500438 0.797185
C17   C     C_R   0.715913 0.500026 0.500580 0.825044
C18   C     C_1   0.162401 0.499099 0.498507 -0.190104
C19   C     C_1   0.059923 0.498961 0.499167 -0.006707
C20   C     C_1   0.940133 0.499196 0.500642 -0.005314
C21   C     C_1   0.837646 0.499584 0.501408 -0.189118
C22   C     C_R   0.481298 0.064177 0.621834 0.071472
Cu1   Cu    Cu3+1 0.499990 0.499980 0.640670 0.937098
Cu2   Cu    Cu3+1 0.500010 0.500020 0.359330 0.932400
H1    H     H_    0.576189 0.113689 0.292281 0.161804
H2    H     H_    0.549296 0.749547 0.873198 0.216387
H3    H     H_    0.697809 0.714066 0.129977 0.197221
H4    H     H_    0.541277 0.749869 0.119947 0.210693
H5    H     H_    0.579154 0.888162 0.294495 0.153595
H6    H     H_    0.306921 0.881923 0.663378 0.197410
H7    H     H_    0.403239 0.889498 0.819991 0.173715
H8    H     H_    0.403252 0.110690 0.819466 0.155737
H9    H     H_    0.362155 0.375887 0.862084 0.151895
H10   H     H_    0.703916 0.708113 0.880119 0.195969
N1    N     N_R   0.500710 0.500930 0.147930 -0.203586
N2    N     N_R   0.500710 0.500890 0.852020 -0.202923
O1    O     O_R   0.500000 0.319640 0.618810 -0.583999
O2    O     O_R   0.500010 0.319680 0.381230 -0.606736
O3    O     O_R   0.337190 0.499990 0.618790 -0.577577
O4    O     O_R   0.337200 0.500030 0.381210 -0.575709
O5    O     O_R   0.499990 0.680320 0.618770 -0.577099
O6    O     O_R   0.500000 0.680360 0.381190 -0.582159
O7    O     O_R   0.662800 0.499970 0.618790 -0.569673
O8    O     O_R   0.662810 0.500010 0.381210 -0.571449
C23   C     C_3   0.272164 0.124074 0.649268 -0.361120
C24   C     C_3   0.170506 0.114354 0.747094 -0.840186
H11   H     H_    0.149948 0.015981 0.769918 0.257597
H12   H     H_    0.189787 0.164258 0.846414 0.246509
H13   H     H_    0.094663 0.156719 0.697125 0.244161
H14   H     H_    0.287855 0.223446 0.626951 0.201690
H15   H     H_    0.250702 0.076528 0.548983 0.208346
C25   C     C_3   0.329636 0.348129 0.131798 -0.370018
C26   C     C_3   0.211469 0.404174 0.111690 -0.835348
H16   H     H_    0.209834 0.499506 0.155018 0.273522
H17   H     H_    0.187921 0.407113 0.999254 0.238039
H18   H     H_    0.146619 0.346673 0.166242 0.239706
H19   H     H_    0.330117 0.256385 0.078838 0.154481
H20   H     H_    0.342334 0.326798 0.241873 0.255221

loop_
_geom_bond_atom_site_label_1
_geom_bond_atom_site_label_2
_ccdc_geom_bond_type
C12   O4    A    
C4    H5    S    
C8    C22   S    
Cu1   Cu2   S    
C17   O7    A    
C14   H10   S    
C6    C7    S    
C13   C14   S    
Cu2   O6    S    
Cu2   O2    S    
C19   C20   S    
Cu1   O5    S    
C1    O1    A    
C10   C25   S    
C12   O3    A    
C14   C15   S    
C2    C3    A    
C9    C15   S    
C17   O8    A    
C7    C8    S    
C7    H6    S    
C2    C22   A    
C14   H2    S    
C24   H13   S    
C15   H4    S    
C10   N1    A    
C25   H20   S    
C23   H14   S    
Cu1   O3    S    
C1    O2    A    
C11   N2    A    
Cu2   O4    S    
Cu1   N2    S    
C26   H17   S    
C5    C6    A    
Cu2   O8    S    
C24   H12   S    
Cu2   N1    S    
C7    H7    S    
C10   C11   A    
C23   H15   S    
C3    C4    A    
C6    C22   A    
C23   C24   S    
C11   H9    S    
C3    H1    S    
Cu1   O7    S    
C20   C21   T    
C13   N2    A    
C1    C2    S    
C25   H19   S    
C26   H18   S    
C12   C18   S    
C9    N1    A    
C9    C13   A    
C24   H11   S    
C18   C19   T    
C5    C16   S    
Cu1   O1    S    
C16   O6    A    
C15   H3    S    
C16   O5    A    
C17   C21   S    
C8    C23   S    
C26   H16   S    
C25   C26   S    
C4    C5    A    
C8    H8    S    
