data_mof_unit_53880.cif
_audit_creation_date              2012-12-10T17:14:09-0500
_audit_creation_method            fapswitch 2.2
_symmetry_space_group_name_H-M    P1
_symmetry_Int_Tables_number       1
_space_group_crystal_system       triclinic
_cell_length_a                    15.903405
_cell_length_b                    13.081829
_cell_length_c                    11.666769
_cell_angle_alpha                 98.973915
_cell_angle_beta                  93.629152
_cell_angle_gamma                 90.322882
_cell_volume                      2392.4057772

loop_
_atom_site_label
_atom_site_type_symbol
_atom_type_description
_atom_site_fract_x
_atom_site_fract_y
_atom_site_fract_z
_atom_type_partial_charge
C1    C     C_R   0.497822 0.299484 0.479825 0.826586
C2    C     C_3   0.951423 0.411761 0.558640 -0.430152
C3    C     C_3   0.916577 0.499720 0.494788 0.243891
C4    C     C_3   0.954017 0.603739 0.560787 -0.377218
C5    C     C_3   0.052097 0.603017 0.564963 -0.054309
C6    C     C_1   0.824498 0.499848 0.496795 -0.059379
C7    C     C_1   0.175405 0.498743 0.499981 -0.021603
C8    C     C_1   0.250848 0.499471 0.501024 -0.148504
C9    C     C_R   0.502301 0.814057 0.529962 -0.079435
C10   C     C_R   0.501471 0.186936 0.470306 -0.075604
C11   C     C_R   0.531246 0.023578 0.352221 0.006174
C12   C     C_R   0.340243 0.499927 0.500459 0.818091
C13   C     C_R   0.525888 0.130588 0.366192 -0.337581
C14   C     C_R   0.487461 0.136213 0.566041 0.168718
C15   C     C_R   0.506918 0.030424 0.558002 0.076273
C16   C     C_R   0.512335 0.971862 0.445772 0.078591
C17   C     C_R   0.494939 0.864677 0.430941 0.148902
C18   C     C_R   0.516742 0.872331 0.640882 -0.335972
C19   C     C_R   0.518066 0.979818 0.656689 0.003308
C20   C     C_R   0.414488 0.409102 0.025023 0.077470
C21   C     C_R   0.424355 0.417460 0.147045 0.101275
C22   C     C_R   0.537467 0.537300 0.155857 -0.000446
C23   C     C_R   0.499871 0.700798 0.520115 0.823688
C24   C     C_R   0.531384 0.532363 0.033177 0.012765
C25   C     C_R   0.468671 0.467444 0.966820 0.014797
C26   C     C_R   0.462337 0.462955 0.844205 0.013646
C27   C     C_R   0.575908 0.582125 0.852942 0.088240
C28   C     C_R   0.585831 0.590295 0.974925 0.056420
C29   C     C_R   0.659769 0.500026 0.499488 0.839698
C30   C     C_3   0.049111 0.406882 0.556765 0.002708
C31   C     C_3   0.043638 0.490420 0.369207 -0.167700
C32   C     C_3   0.945404 0.479608 0.367327 -0.067392
C33   C     C_1   0.749168 0.499939 0.498253 -0.176831
C34   C     C_3   0.082883 0.497570 0.497482 0.213144
Cu1   Cu    Cu3+1 0.506190 0.507730 0.615930 0.944356
Cu2   Cu    Cu3+1 0.493810 0.492270 0.384070 0.949167
H1    H     H_    0.921133 0.336704 0.518098 0.183038
H2    H     H_    0.075832 0.417939 0.648283 0.174251
H3    H     H_    0.933748 0.425396 0.650581 0.165706
H4    H     H_    0.930479 0.669288 0.518226 0.160996
H5    H     H_    0.526940 0.833983 0.716460 0.166699
H6    H     H_    0.542000 0.170351 0.295439 0.170213
H7    H     H_    0.415170 0.414376 0.790789 0.143590
H8    H     H_    0.616983 0.625893 0.807421 0.129936
H9    H     H_    0.383464 0.373464 0.192574 0.146560
H10   H     H_    0.584159 0.586595 0.209410 0.154765
H11   H     H_    0.059489 0.564749 0.339400 0.159480
H12   H     H_    0.925484 0.398855 0.329933 0.152629
H13   H     H_    0.073148 0.666605 0.519494 0.160075
H14   H     H_    0.931101 0.617346 0.650099 0.183508
N1    N     N_R   0.515490 0.519350 0.790130 -0.202277
N2    N     N_R   0.484510 0.480650 0.209890 -0.209617
O1    O     O_R   0.504390 0.354460 0.582000 -0.573935
O2    O     O_R   0.493940 0.341410 0.386200 -0.594092
O3    O     O_R   0.384660 0.506540 0.597940 -0.592722
O4    O     O_R   0.374210 0.493480 0.402140 -0.565467
O5    O     O_R   0.506060 0.658590 0.613800 -0.593712
O6    O     O_R   0.495610 0.645540 0.418000 -0.584228
O7    O     O_R   0.625790 0.506520 0.597860 -0.578899
O8    O     O_R   0.615340 0.493460 0.402060 -0.580443
C35   C     C_3   0.453030 0.810833 0.316500 -0.758733
H15   H     H_    0.428007 0.866687 0.260937 0.201689
H16   H     H_    0.497863 0.759303 0.267169 0.264373
H17   H     H_    0.397139 0.765276 0.332983 0.220008
C36   C     C_2   0.568311 0.971756 0.245245 0.354539
H18   H     H_    0.560639 0.004841 0.165539 0.065927
O9    O     O_2   0.611872 0.895429 0.246851 -0.559395
C37   C     C_2   0.542719 0.034161 0.775503 0.359105
H19   H     H_    0.527374 0.999836 0.850663 0.057217
O10   O     O_2   0.584719 0.114088 0.790539 -0.534436
C38   C     C_3   0.436624 0.188110 0.664169 -0.802166
H20   H     H_    0.385050 0.233810 0.629351 0.203177
H21   H     H_    0.405025 0.130716 0.708372 0.206293
H22   H     H_    0.477461 0.239934 0.729151 0.277030
C39   C     C_3   0.077178 0.297980 0.504012 -0.883527
H23   H     H_    0.063736 0.242493 0.563805 0.236619
H24   H     H_    0.042300 0.269864 0.419731 0.231530
H25   H     H_    0.145876 0.296459 0.492251 0.246141
C40   C     C_3   0.346378 0.338311 0.959981 -0.898697
H26   H     H_    0.309858 0.299806 0.019705 0.244837
H27   H     H_    0.301722 0.383395 0.911306 0.241149
H28   H     H_    0.374983 0.277044 0.898416 0.236045
C41   C     C_3   0.654507 0.660107 0.039918 -0.875971
H29   H     H_    0.690833 0.699089 0.980400 0.232460
H30   H     H_    0.626335 0.720869 0.102415 0.276061
H31   H     H_    0.699147 0.614199 0.087600 0.238599
C42   C     C_2   0.080537 0.407422 0.281884 0.357770
H32   H     H_    0.046293 0.335749 0.249502 0.068382
O11   O     O_2   0.149648 0.420450 0.245977 -0.545335
C43   C     C_3   0.902452 0.549332 0.286505 -0.883029
H33   H     H_    0.916646 0.632388 0.318392 0.241941
H34   H     H_    0.925413 0.529781 0.197886 0.238714
H35   H     H_    0.833101 0.536796 0.278811 0.251055
C44   C     C_3   0.089716 0.630601 0.691424 -0.884035
H36   H     H_    0.066065 0.577560 0.748012 0.238546
H37   H     H_    0.159574 0.628912 0.695488 0.242852
H38   H     H_    0.071320 0.710356 0.727640 0.241433

loop_
_geom_bond_atom_site_label_1
_geom_bond_atom_site_label_2
_ccdc_geom_bond_type
C23   O6    A    
C42   H32   S    
Cu1   O1    S    
C14   C38   S    
Cu1   Cu2   S    
C1    O2    A    
C3    C6    S    
C5    C44   S    
C7    C8    T    
C15   C19   A    
C41   H29   S    
Cu2   O6    S    
C20   C25   A    
C15   C16   A    
C29   C33   S    
C30   H2    S    
Cu1   O7    S    
C18   C19   A    
C35   H16   S    
C1    O1    A    
C17   C35   S    
C27   H8    S    
C32   C43   S    
C4    H4    S    
C37   H19   S    
C36   O9    D    
C35   H15   S    
Cu2   N2    S    
C31   H11   S    
C28   C41   S    
C32   H12   S    
C5    H13   S    
C3    C32   S    
C2    H3    S    
C13   H6    S    
C27   N1    A    
C26   H7    S    
C21   H9    S    
C31   C42   S    
C30   C34   S    
Cu1   O3    S    
C29   O7    A    
C24   C25   A    
C10   C14   A    
C18   H5    S    
C40   H27   S    
C9    C23   S    
C44   H38   S    
C25   C26   A    
C4    H14   S    
C35   H17   S    
C39   H23   S    
Cu2   O4    S    
C40   H28   S    
C11   C16   A    
C43   H34   S    
C31   C32   S    
C29   O8    A    
C8    C12   S    
C5    C34   S    
C31   C34   S    
C19   C37   S    
C44   H37   S    
C39   H24   S    
C12   O4    A    
C9    C17   A    
C41   H30   S    
C42   O11   D    
Cu1   N1    S    
C7    C34   S    
C22   C24   A    
C3    C4    S    
C43   H35   S    
C22   N2    A    
C23   O5    A    
C20   C40   S    
C22   H10   S    
C1    C10   S    
C24   C28   A    
C4    C5    S    
Cu2   O8    S    
C10   C13   A    
C38   H22   S    
C6    C33   T    
C2    C30   S    
Cu1   O5    S    
C2    C3    S    
C38   H20   S    
C26   N1    A    
C30   C39   S    
C11   C13   A    
C2    H1    S    
C43   H33   S    
C16   C17   A    
C44   H36   S    
C39   H25   S    
C12   O3    A    
Cu2   O2    S    
C40   H26   S    
C9    C18   A    
C41   H31   S    
C20   C21   A    
C37   O10   D    
C36   H18   S    
C38   H21   S    
C27   C28   A    
C14   C15   A    
C21   N2    A    
C11   C36   S    
