data_mof_unit_14530.cif
_audit_creation_date              2013-03-05T16:02:25-0500
_audit_creation_method            fapswitch 2.2
_symmetry_space_group_name_H-M    P1
_symmetry_Int_Tables_number       1
_space_group_crystal_system       triclinic
_cell_length_a                    15.099597
_cell_length_b                    14.167294
_cell_length_c                    11.081762
_cell_angle_alpha                 89.080222
_cell_angle_beta                  86.230903
_cell_angle_gamma                 91.795793
_cell_volume                      2363.93611804

loop_
_atom_site_label
_atom_site_type_symbol
_atom_site_description
_atom_site_fract_x
_atom_site_fract_y
_atom_site_fract_z
_atom_type_partial_charge
O1    O     O_R   0.367860 0.580280 0.500020 -0.560426
O2    O     O_R   0.367860 0.419720 0.500020 -0.606508
C1    C     C_R   0.326711 0.498403 0.504149 0.954602
O3    O     O_R   0.500000 0.580270 0.314790 -0.581863
O4    O     O_R   0.500000 0.419730 0.314790 -0.643830
C2    C     C_R   0.498584 0.501782 0.257051 0.978257
Zn1   Zn    Zn3+2 0.500020 0.607200 0.499990 1.134117
Zn2   Zn    Zn3+2 0.500020 0.392800 0.499990 1.092690
O5    O     O_R   0.632160 0.580270 0.499960 -0.617199
O6    O     O_R   0.632160 0.419730 0.499960 -0.609830
O7    O     O_R   0.500030 0.580270 0.685200 -0.550035
O8    O     O_R   0.500030 0.419730 0.685200 -0.557748
C3    C     C_R   0.674017 0.500850 0.496563 0.981034
C4    C     C_R   0.506716 0.499652 0.741038 1.149539
C5    C     C_3   0.430629 0.579429 0.065933 0.455892
C6    C     C_3   0.471319 0.401217 0.076734 0.479173
C7    C     C_3   0.452031 0.588584 0.923158 0.468515
C8    C     C_3   0.465123 0.402525 0.934832 0.512507
C9    C     C_3   0.606869 0.533886 0.063366 0.199425
C10   C     C_3   0.503465 0.505889 0.118914 -0.460920
C11   C     C_3   0.512268 0.500842 0.876819 -0.485897
C12   C     C_3   0.613890 0.515236 0.916348 0.163286
C13   C     C_R   0.825036 0.566234 0.420735 0.281139
C14   C     C_R   0.771463 0.498756 0.488006 -0.124829
C15   C     C_R   0.810748 0.421615 0.541049 -0.099974
C16   C     C_R   0.902769 0.416024 0.539781 -0.078969
C17   C     C_R   0.956019 0.484910 0.473242 -0.006677
C18   C     C_R   0.916953 0.554230 0.402972 -0.149872
C19   C     C_R   0.943016 0.344326 0.605310 0.455817
C20   C     C_R   0.034275 0.349864 0.618574 0.503524
C21   C     C_R   0.086505 0.425498 0.562378 -0.176661
C22   C     C_R   0.048261 0.486022 0.479141 -0.102970
C23   C     C_R   0.102245 0.549683 0.404818 -0.088985
C24   C     C_R   0.063106 0.614317 0.327605 0.476591
C25   C     C_R   0.971661 0.612749 0.321849 0.422449
C26   C     C_R   0.175156 0.445081 0.588331 0.236871
C27   C     C_R   0.230727 0.494515 0.499446 -0.228579
C28   C     C_R   0.193959 0.541008 0.402770 0.419961
H1    H     H_    0.768700 0.368531 0.588897 0.228633
C29   C     C_R   0.572092 0.802534 0.452481 0.556164
C30   C     C_R   0.572547 0.203914 0.451797 0.553945
N1    N     N_R   0.500070 0.750030 0.500050 -0.249009
N2    N     N_R   0.500070 0.249970 0.500050 -0.248157
C31   C     C_R   0.426550 0.796441 0.546151 0.432267
C32   C     C_R   0.429645 0.199036 0.554733 0.396914
C33   C     C_R   0.428509 0.896644 0.559626 -0.096754
C34   C     C_R   0.429778 0.098359 0.563196 -0.098235
C35   C     C_R   0.503761 0.950029 0.512831 -0.136031
C36   C     C_R   0.503578 0.050736 0.512154 -0.132626
C37   C     C_R   0.576814 0.902775 0.459432 -0.043237
C38   C     C_R   0.577195 0.104039 0.460130 -0.036758
C39   C     C_R   0.356277 0.944666 0.616564 0.394454
C40   C     C_R   0.359539 0.044509 0.624456 0.398500
C41   C     C_R   0.653682 0.056669 0.416617 0.379361
C42   C     C_R   0.651769 0.956661 0.410019 0.391124
N3    N     N_R   0.420980 0.674863 0.122206 0.247357
O9    O     O_R   0.394184 0.680416 0.235503 -0.291159
O10   O     O_R   0.398138 0.746034 0.056593 -0.287716
N4    N     N_R   0.528129 0.323947 0.117120 0.231696
O11   O     O_R   0.493319 0.256505 0.188215 -0.316148
O12   O     O_R   0.605996 0.309844 0.066033 -0.260693
O13   O     O_3   0.070334 0.275984 0.679573 -0.610929
H2    H     H_    0.134062 0.272777 0.653651 0.386535
N5    N     N_R   0.202707 0.431163 0.709650 0.247830
O14   O     O_R   0.143640 0.418223 0.799880 -0.266003
O15   O     O_R   0.282278 0.456935 0.735073 -0.266747
O16   O     O_3   0.245802 0.574927 0.303904 -0.673681
H3    H     H_    0.299299 0.536589 0.295384 0.356090
O17   O     O_3   0.111703 0.681769 0.258106 -0.604376
H4    H     H_    0.156953 0.709681 0.309009 0.401544
O18   O     O_3   0.938260 0.667963 0.233415 -0.590267
H5    H     H_    0.898189 0.625965 0.189564 0.394346
O19   O     O_3   0.637861 0.758658 0.388184 -0.577855
H6    H     H_    0.611852 0.698086 0.364421 0.400342
O20   O     O_3   0.639821 0.253819 0.388126 -0.623287
H7    H     H_    0.611802 0.306855 0.349403 0.411020
N6    N     N_R   0.343089 0.746199 0.563204 0.274144
O21   O     O_R   0.285281 0.754700 0.481947 -0.335474
O22   O     O_R   0.318565 0.705541 0.666558 -0.260105
N7    N     N_R   0.353135 0.248051 0.596387 0.266970
O23   O     O_R   0.282738 0.244207 0.534736 -0.377752
O24   O     O_R   0.347800 0.280052 0.705644 -0.276119
O25   O     O_3   0.283423 0.893580 0.667349 -0.666034
H8    H     H_    0.229632 0.930891 0.659077 0.370994
O26   O     O_3   0.295877 0.089760 0.695409 -0.666708
H9    H     H_    0.275654 0.048140 0.765189 0.378566
O27   O     O_3   0.730623 0.108856 0.383649 -0.656949
H10   H     H_    0.782520 0.070717 0.400182 0.358655
O28   O     O_3   0.722509 0.911015 0.354327 -0.605377
H11   H     H_    0.750290 0.952179 0.288301 0.376308
O29   O     O_3   0.345354 0.535653 0.085249 -0.661666
H12   H     H_    0.298415 0.582177 0.075019 0.407441
O30   O     O_3   0.383852 0.377049 0.126400 -0.649424
H13   H     H_    0.379605 0.375238 0.215601 0.374178
O31   O     O_3   0.370216 0.580231 0.867710 -0.602621
H14   H     H_    0.333804 0.635327 0.889639 0.395970
O32   O     O_3   0.374872 0.407785 0.909194 -0.566390
H15   H     H_    0.341486 0.347676 0.929993 0.435389
N8    N     N_R   0.492184 0.683036 0.882096 0.240479
O33   O     O_R   0.552160 0.728141 0.938841 -0.257508
O34   O     O_R   0.455905 0.731846 0.799227 -0.288442
N9    N     N_R   0.493891 0.308602 0.887819 0.233131
O35   O     O_R   0.561130 0.295871 0.811777 -0.281645
O36   O     O_R   0.449579 0.232618 0.927348 -0.275712
N10   N     N_R   0.629604 0.635133 0.087240 0.259967
O37   O     O_R   0.582185 0.684965 0.161932 -0.315881
O38   O     O_R   0.706696 0.673056 0.051478 -0.167436
N11   N     N_R   0.677039 0.482571 0.123308 0.273220
O39   O     O_R   0.661090 0.435133 0.223473 -0.389929
O40   O     O_R   0.760194 0.505673 0.095169 -0.238308
N12   N     N_R   0.667142 0.593907 0.851942 0.263087
O41   O     O_R   0.753083 0.594612 0.858672 -0.218439
O42   O     O_R   0.639521 0.641351 0.761487 -0.317074
N13   N     N_R   0.663596 0.431272 0.874996 0.259121
O43   O     O_R   0.724046 0.392775 0.935783 -0.180518
O44   O     O_R   0.674779 0.422104 0.758488 -0.385548
N14   N     N_R   0.787458 0.649380 0.376287 0.236133
O45   O     O_R   0.748711 0.645006 0.275632 -0.295812
O46   O     O_R   0.813291 0.731114 0.415723 -0.218249
O47   O     O_3   0.895537 0.268298 0.659254 -0.629029
H16   H     H_    0.849204 0.248106 0.605052 0.348325

loop_
_geom_bond_atom_site_label_1
_geom_bond_atom_site_label_2
_geom_bond_distance
_ccdc_geom_bond_type
O27   H10   0.990869 S    
O30   H13   0.986241 S    
C8    C11   1.645947 S    
O19   H6    0.979651 S    
O31   H14   0.992997 S    
Zn2   N2    2.023529 S    
N13   O43   1.297944 A    
C34   C36   1.411879 A    
N6    O21   1.301429 A    
C29   O19   1.356534 S    
Zn1   O7    2.081593 S    
N10   O38   1.301561 A    
C6    O30   1.426351 S    
C19   C20   1.395267 A    
C4    C11   1.512851 S    
C31   N6    1.427836 S    
C27   C28   1.402963 A    
N14   O46   1.301658 A    
O4    C2    1.319331 A    
O7    C4    1.300120 A    
Zn1   N1    2.023502 S    
C33   C39   1.421397 A    
N11   O39   1.293273 A    
C5    C7    1.596288 S    
C24   C25   1.385937 A    
C8    N9    1.503145 S    
C32   C34   1.427982 A    
O5    C3    1.307544 A    
O25   H8    0.991296 S    
C18   C25   1.418956 A    
N11   O40   1.303991 A    
C36   C38   1.409758 A    
C13   C14   1.404776 A    
C7    O31   1.417982 S    
C8    O32   1.414197 S    
C6    C10   1.630992 S    
C34   C40   1.416233 A    
C9    N11   1.489196 S    
C29   N1    1.369378 A    
C25   O18   1.375411 S    
N4    O11   1.303774 A    
C11   C12   1.630838 S    
C30   N2    1.374174 A    
N9    O35   1.295111 A    
N1    C31   1.381177 A    
O3    Zn1   2.093535 S    
C31   C33   1.429411 A    
O32   H15   0.991964 S    
N6    O22   1.300155 A    
C5    C10   1.666375 S    
C19   O47   1.380606 S    
C33   C35   1.410020 A    
N4    O12   1.293712 A    
O16   H3    0.987705 S    
C9    C12   1.651753 S    
C14   C15   1.399158 A    
N7    O24   1.298099 A    
O29   H12   0.993516 S    
C15   C16   1.393363 A    
O26   H9    0.990915 S    
C7    C11   1.632826 S    
C3    C14   1.469465 S    
O1    C1    1.297340 A    
C6    N4    1.492690 S    
N5    O15   1.294822 A    
C39   O25   1.380689 S    
O20   H7    0.980389 S    
O13   H2    0.988618 S    
C30   O20   1.369060 S    
C7    N8    1.502859 S    
C21   C22   1.412533 A    
Zn2   O8    2.093634 S    
C23   C24   1.412496 A    
C16   C17   1.411538 A    
N12   O42   1.296704 A    
C13   C18   1.404961 A    
N9    O36   1.303687 A    
N2    C32   1.368152 A    
C24   O17   1.379468 S    
C41   O27   1.382579 S    
C9    N10   1.496197 S    
O3    C2    1.292085 A    
C35   C36   1.426740 A    
N8    O34   1.300417 A    
O8    C4    1.303335 A    
C20   O13   1.382139 S    
N3    O9    1.297931 A    
O47   H16   0.990096 S    
Zn1   O5    2.043098 S    
C41   C42   1.419389 A    
C26   C27   1.413218 A    
N12   O41   1.304428 A    
C17   C22   1.398242 A    
O1    Zn1   2.019886 S    
Zn2   O6    2.019609 S    
O2    Zn2   2.043366 S    
C37   C42   1.419350 A    
N7    O23   1.301026 A    
O6    C3    1.292912 A    
C13   N14   1.418500 S    
O4    Zn2   2.081496 S    
N13   O44   1.300171 A    
C2    C10   1.527810 S    
N10   O37   1.291796 A    
C23   C28   1.392854 A    
N8    O33   1.294383 A    
C38   C41   1.415104 A    
C22   C23   1.413519 A    
C9    C10   1.673635 S    
O2    C1    1.293079 A    
O18   H5    0.990780 S    
C42   O28   1.381843 S    
N14   O45   1.294639 A    
C5    N3    1.505197 S    
C20   C21   1.420924 A    
C29   C37   1.423283 A    
N5    O14   1.302125 A    
C35   C37   1.410067 A    
N3    O10   1.302123 A    
C32   N7    1.421405 S    
O17   H4    0.991123 S    
C5    O29   1.413471 S    
C12   N13   1.488808 S    
C28   O16   1.375079 S    
C1    C27   1.453031 S    
C16   C19   1.414734 A    
C6    C8    1.581271 S    
C12   N12   1.497015 S    
C17   C18   1.411019 A    
C21   C26   1.407625 A    
C40   O26   1.381564 S    
O28   H11   0.990981 S    
C26   N5    1.445537 S    
C30   C38   1.420711 A    
C15   H1    1.078359 S    
C39   C40   1.418122 A    
