data_mof_unit_24275.cif
_audit_creation_date              2012-12-10T16:37:37-0500
_audit_creation_method            fapswitch 2.2
_symmetry_space_group_name_H-M    P1
_symmetry_Int_Tables_number       1
_space_group_crystal_system       triclinic
_cell_length_a                    10.816031
_cell_length_b                    10.924595
_cell_length_c                    15.498494
_cell_angle_alpha                 96.0688
_cell_angle_beta                  74.323027
_cell_angle_gamma                 98.401675
_cell_volume                      1740.04383527

loop_
_atom_site_label
_atom_site_type_symbol
_atom_type_description
_atom_site_fract_x
_atom_site_fract_y
_atom_site_fract_z
_atom_type_partial_charge
Br1   Br    Br    0.213626 0.375769 0.108479 -0.582677
C1    C     C_R   0.158436 0.479330 0.520082 0.859609
C2    C     C_R   0.496760 0.460714 0.119055 -0.192035
C3    C     C_R   0.702681 0.392554 0.112520 -0.204401
C4    C     C_R   0.842632 0.521635 0.479841 0.883454
C5    C     C_R   0.411790 0.562385 0.840968 -0.102459
C6    C     C_2   0.980669 0.529845 0.471392 -0.332035
C7    C     C_2   0.022318 0.472762 0.528230 -0.304011
C8    C     C_2   0.538611 0.969217 0.471355 -0.118275
C9    C     C_2   0.453288 0.038208 0.531712 -0.065816
C10   C     C_R   0.467565 0.169086 0.521445 0.841002
C11   C     C_R   0.529613 0.834501 0.479842 0.866981
C12   C     C_R   0.229729 0.544690 0.973492 0.118171
C13   C     C_R   0.556329 0.445689 0.258771 0.794674
C14   C     C_R   0.447303 0.555052 0.741831 0.797235
C15   C     C_R   0.739175 0.399030 0.019967 -0.201590
C16   C     C_R   0.583079 0.426909 0.162025 -0.002484
C17   C     C_R   0.285044 0.581787 0.886360 -0.278627
C18   C     C_3   0.642294 0.035684 0.395437 -0.450862
C19   C     C_3   0.738326 0.959155 0.327506 -0.306475
C20   C     C_3   0.831462 0.040788 0.257641 -0.874613
C21   C     C_3   0.345809 0.989230 0.611847 -0.392889
C22   C     C_3   0.266513 0.087804 0.671301 -0.390560
C23   C     C_R   0.304557 0.488227 0.016476 0.205337
C24   C     C_3   0.162037 0.029585 0.748425 -0.852405
C25   C     C_3   0.087108 0.556191 0.013841 -0.392681
C26   C     C_3   0.063603 0.692456 0.036020 -0.359360
C27   C     C_3   0.919773 0.703870 0.074908 -0.844516
C28   C     C_R   0.441181 0.492621 0.978637 -0.006355
C29   C     C_R   0.493546 0.526705 0.888688 0.052354
C30   C     C_R   0.527773 0.460043 0.025013 0.113524
C31   C     C_R   0.655818 0.439553 0.976785 0.160537
C32   C     C_R   0.703351 0.470326 0.888209 -0.251829
C33   C     C_R   0.626229 0.521431 0.847131 -0.163050
H1    H     H_    0.770456 0.367733 0.146039 0.149286
H2    H     H_    0.887187 0.115919 0.290780 0.276152
H3    H     H_    0.900702 0.983757 0.210137 0.258247
H4    H     H_    0.796820 0.917236 0.362864 0.249090
H5    H     H_    0.685125 0.885414 0.291439 0.245746
H6    H     H_    0.591199 0.080479 0.356237 0.218292
H7    H     H_    0.700515 0.110335 0.427273 0.211180
H8    H     H_    0.093863 0.959388 0.721821 0.260478
H9    H     H_    0.206565 0.984592 0.791601 0.265894
H10   H     H_    0.106838 0.102691 0.790087 0.253084
H11   H     H_    0.331235 0.159181 0.700277 0.237546
H12   H     H_    0.956386 0.420669 0.581672 0.158359
H13   H     H_    0.219024 0.133761 0.630395 0.221061
H14   H     H_    0.276469 0.919420 0.585921 0.236732
H15   H     H_    0.390360 0.945760 0.655892 0.233741
H16   H     H_    0.864431 0.663662 0.025585 0.265897
H17   H     H_    0.881593 0.655024 0.137882 0.275903
H18   H     H_    0.905690 0.803243 0.090313 0.249038
H19   H     H_    0.117212 0.735366 0.085769 0.237370
H20   H     H_    0.099143 0.744494 0.974413 0.225569
H21   H     H_    0.032668 0.513027 0.964712 0.189109
H22   H     H_    0.046429 0.507034 0.076097 0.247822
H23   H     H_    0.803314 0.462637 0.852470 0.143289
H24   H     H_    0.834965 0.378696 0.982805 0.140605
H25   H     H_    0.411743 0.498967 0.160283 0.170228
H26   H     H_    0.223742 0.613396 0.850443 0.174221
H27   H     H_    0.672482 0.556612 0.782057 0.162801
H28   H     H_    0.048585 0.582158 0.418797 0.154078
H29   H     H_    0.777374 0.082604 0.219015 0.261778
O1    O     O_3   0.500000 0.500000 0.500000 -0.483248
O2    O     O_R   0.463530 0.379110 0.309170 -0.616467
O3    O     O_R   0.388210 0.611730 0.699360 -0.648603
O4    O     O_R   0.624720 0.532760 0.292120 -0.652105
O5    O     O_R   0.523540 0.476390 0.699360 -0.642451
O6    O     O_R   0.537910 0.240570 0.564270 -0.648780
O7    O     O_R   0.438950 0.782540 0.540270 -0.668522
O8    O     O_R   0.222350 0.398740 0.468260 -0.620726
O9    O     O_R   0.800790 0.578160 0.427210 -0.646850
O10   O     O_R   0.212140 0.566330 0.564260 -0.644679
O11   O     O_R   0.764730 0.456770 0.540270 -0.642809
O12   O     O_R   0.412790 0.208310 0.468260 -0.649941
O13   O     O_R   0.610350 0.768590 0.427210 -0.657325
Zn1   Zn    Zn3+2 0.580150 0.419820 0.574680 0.951351
Zn2   Zn    Zn3+2 0.401380 0.373730 0.437510 0.980245
Zn3   Zn    Zn3+2 0.631680 0.593260 0.413140 0.951509
Zn4   Zn    Zn3+2 0.386790 0.613180 0.574670 0.943935

loop_
_geom_bond_atom_site_label_1
_geom_bond_atom_site_label_2
_ccdc_geom_bond_type
C21   H14   S    
C22   H11   S    
O1    Zn1   S    
O6    Zn1   S    
C18   C19   S    
O13   Zn3   S    
C25   H21   S    
C24   H9    S    
C26   H20   S    
C6    C7    D    
C20   H2    S    
C9    C21   S    
C25   C26   S    
C12   C17   A    
C4    O9    A    
C27   H17   S    
C4    O11   A    
C23   C28   A    
C5    C14   S    
C27   H16   S    
C8    C18   S    
O11   Zn1   S    
C13   O4    A    
C8    C9    D    
C3    H1    S    
O1    Zn4   S    
C13   C16   S    
C24   H10   S    
C8    C11   S    
C5    C17   A    
C22   H13   S    
C29   C33   A    
O7    Zn4   S    
O4    Zn3   S    
C9    C10   S    
C4    C6    S    
C19   H5    S    
C14   O3    A    
C33   H27   S    
C12   C23   A    
C3    C15   A    
C6    H28   S    
C28   C29   A    
C19   H4    S    
C30   C31   A    
C10   O6    A    
C32   C33   A    
C15   H24   S    
C2    C30   A    
C1    O10   A    
C21   H15   S    
C3    C16   A    
C17   H26   S    
C5    C29   A    
C11   O13   A    
O1    Zn3   S    
C12   C25   S    
C1    O8    A    
O5    Zn1   S    
C11   O7    A    
C32   H23   S    
O2    Zn2   S    
O1    Zn2   S    
C1    C7    S    
C25   H22   S    
C24   H8    S    
O9    Zn3   S    
C26   H19   S    
C15   C31   A    
O3    Zn4   S    
C31   C32   A    
C28   C30   A    
C10   O12   A    
C27   H18   S    
C14   O5    A    
O10   Zn4   S    
C2    C16   A    
C22   C24   S    
O12   Zn2   S    
C7    H12   S    
C20   H29   S    
C18   H6    S    
C20   H3    S    
C19   C20   S    
Br1   C23   S    
C26   C27   S    
C21   C22   S    
O8    Zn2   S    
C18   H7    S    
C13   O2    A    
C2    H25   S    
