data_mof_unit_40562.cif
_audit_creation_date              2013-03-05T15:57:38-0500
_audit_creation_method            fapswitch 2.2
_symmetry_space_group_name_H-M    P1
_symmetry_Int_Tables_number       1
_space_group_crystal_system       triclinic
_cell_length_a                    19.197819
_cell_length_b                    18.037258
_cell_length_c                    12.759475
_cell_angle_alpha                 89.788508
_cell_angle_beta                  99.321636
_cell_angle_gamma                 90.449036
_cell_volume                      4359.80779491

loop_
_atom_site_label
_atom_site_type_symbol
_atom_site_description
_atom_site_fract_x
_atom_site_fract_y
_atom_site_fract_z
_atom_type_partial_charge
O1    O     O_R   0.448200 0.076800 0.373930 -0.564195
O2    O     O_R   0.448200 0.923200 0.373930 -0.562909
O3    O     O_R   0.948200 0.576800 0.373930 -0.566673
O4    O     O_R   0.948200 0.423200 0.373930 -0.556224
O5    O     O_R   0.414750 0.076790 0.542400 -0.566928
O6    O     O_R   0.414750 0.923210 0.542400 -0.567109
O7    O     O_R   0.914750 0.576790 0.542400 -0.564947
O8    O     O_R   0.914750 0.423210 0.542400 -0.568891
C1    C     C_R   0.409407 0.100665 0.442399 0.996072
C2    C     C_R   0.410575 0.897720 0.443808 0.923332
C3    C     C_R   0.909325 0.600119 0.442770 0.941814
C4    C     C_R   0.909276 0.399471 0.442765 0.941397
Zn1   Zn    Zn3+2 0.522330 1.000000 0.387520 1.041910
Zn2   Zn    Zn3+2 0.022330 0.500000 0.387520 1.035004
Zn3   Zn    Zn3+2 0.477660 0.000000 0.612480 1.129480
Zn4   Zn    Zn3+2 0.977660 0.500000 0.612480 1.126507
O9    O     O_R   0.585240 0.923200 0.457600 -0.624799
O10   O     O_R   0.585240 0.076800 0.457600 -0.657523
O11   O     O_R   0.085240 0.423200 0.457600 -0.626178
O12   O     O_R   0.085240 0.576800 0.457600 -0.654381
O13   O     O_R   0.551780 0.923190 0.626070 -0.503401
O14   O     O_R   0.551780 0.076810 0.626070 -0.501828
O15   O     O_R   0.051780 0.423190 0.626070 -0.508278
O16   O     O_R   0.051780 0.576810 0.626070 -0.507584
C5    C     C_R   0.589854 0.897793 0.556451 0.877795
C6    C     C_R   0.589072 0.103169 0.555862 0.928724
C7    C     C_R   0.089081 0.397390 0.556563 0.907698
C8    C     C_R   0.090585 0.601850 0.556522 0.889892
C9    C     C_R   0.741359 0.203352 0.721445 0.401392
C10   C     C_R   0.737636 0.788212 0.720472 0.456031
C11   C     C_R   0.243818 0.701659 0.726987 0.412743
C12   C     C_R   0.220196 0.267573 0.721067 0.465524
C13   C     C_R   0.643805 0.159931 0.589904 -0.204684
C14   C     C_R   0.645048 0.841981 0.590262 -0.263054
C15   C     C_R   0.149658 0.653816 0.592091 -0.224656
C16   C     C_R   0.139182 0.337077 0.590241 -0.262562
C17   C     C_R   0.331925 0.828028 0.302429 0.358796
C18   C     C_R   0.317612 0.147177 0.296339 0.333918
C19   C     C_R   0.821580 0.343744 0.299683 0.360237
C20   C     C_R   0.818418 0.650342 0.301543 0.353132
C21   C     C_R   0.288700 0.766015 0.269924 0.153119
C22   C     C_R   0.248933 0.176017 0.269224 0.150278
C23   C     C_R   0.771951 0.287689 0.264145 0.143243
C24   C     C_R   0.767079 0.703725 0.265568 0.154930
C25   C     C_R   0.269277 0.717450 0.346957 0.186527
C26   C     C_R   0.215055 0.206465 0.348692 0.200540
C27   C     C_R   0.751832 0.236997 0.337977 0.208722
C28   C     C_R   0.747794 0.755289 0.337833 0.182898
C29   C     C_R   0.290513 0.733931 0.456378 -0.051729
C30   C     C_R   0.254491 0.220857 0.451655 -0.076743
C31   C     C_R   0.778503 0.245851 0.447870 -0.041749
C32   C     C_R   0.775754 0.749202 0.447628 -0.044802
C33   C     C_R   0.348396 0.781313 0.485054 -0.192402
C34   C     C_R   0.324838 0.196931 0.475732 -0.088465
C35   C     C_R   0.840648 0.286836 0.476165 -0.192553
C36   C     C_R   0.838592 0.709802 0.476262 -0.184420
C37   C     C_R   0.745298 0.216965 0.530937 0.045460
C38   C     C_R   0.743361 0.779510 0.530311 0.070741
C39   C     C_R   0.254821 0.707685 0.538263 0.049767
C40   C     C_R   0.226373 0.257182 0.533121 0.067054
C41   C     C_R   0.779686 0.220664 0.638198 -0.135558
C42   C     C_R   0.776916 0.773437 0.637691 -0.223319
C43   C     C_R   0.284910 0.717488 0.646589 -0.135823
C44   C     C_R   0.259639 0.251179 0.639762 -0.190608
C45   C     C_R   0.354723 0.745344 0.670551 0.328337
C46   C     C_R   0.332207 0.235201 0.660133 0.179041
C47   C     C_R   0.851188 0.243378 0.658477 0.326061
C48   C     C_R   0.848539 0.752716 0.658726 0.263821
C49   C     C_R   0.387287 0.774802 0.588986 0.427909
C50   C     C_R   0.365980 0.216639 0.574069 0.440152
C51   C     C_R   0.882483 0.272992 0.576048 0.423044
C52   C     C_R   0.880323 0.724369 0.576493 0.462387
C53   C     C_R   0.676770 0.189315 0.510012 -0.161437
C54   C     C_R   0.676339 0.810746 0.509655 -0.166581
C55   C     C_R   0.186762 0.678947 0.513891 -0.167318
C56   C     C_R   0.171096 0.306313 0.510303 -0.141995
C57   C     C_R   0.670340 0.177918 0.697160 0.156514
C58   C     C_R   0.672475 0.824746 0.697403 0.254375
C59   C     C_R   0.174802 0.671738 0.699586 0.176114
C60   C     C_R   0.158769 0.310878 0.696675 0.268795
C61   C     C_R   0.364263 0.833912 0.409991 -0.166395
C62   C     C_R   0.352773 0.153015 0.402374 -0.131101
C63   C     C_R   0.858089 0.341056 0.405148 -0.160709
C64   C     C_R   0.856826 0.656332 0.405319 -0.167943
H1    H     H_    0.647485 0.189407 0.430472 0.214221
H2    H     H_    0.647605 0.812620 0.429926 0.218932
H3    H     H_    0.160658 0.676905 0.432489 0.209214
H4    H     H_    0.156553 0.325207 0.429503 0.233165
C65   C     C_R   0.646165 0.001082 0.136583 0.558375
C66   C     C_R   0.139865 0.459299 0.139879 0.510719
N1    N     N_R   0.552340 1.000000 0.237260 -0.192844
N2    N     N_R   0.052340 0.500000 0.237260 -0.208917
C67   C     C_R   0.376993 0.996366 0.763884 0.351425
C68   C     C_R   0.876913 0.501349 0.763820 0.341887
C69   C     C_R   0.351259 0.998868 0.860631 0.181861
C70   C     C_R   0.851143 0.498151 0.860721 0.189146
C71   C     C_R   0.399256 0.004326 0.954280 -0.186000
C72   C     C_R   0.899188 0.494609 0.954521 -0.190435
C73   C     C_R   0.472546 0.007261 0.953948 -0.030967
C74   C     C_R   0.972338 0.494302 0.954009 -0.038122
C75   C     C_R   0.496771 0.006107 0.854641 0.142796
C76   C     C_R   0.996810 0.495060 0.854969 0.128073
C77   C     C_R   0.522458 0.007819 0.049369 -0.114419
C78   C     C_R   0.021620 0.491144 0.049434 -0.079000
C79   C     C_R   0.595898 0.010507 0.044786 -0.103055
C80   C     C_R   0.093295 0.474907 0.045794 -0.165908
C81   C     C_R   0.618564 0.021772 0.948516 0.453687
C82   C     C_R   0.118564 0.479085 0.950394 0.410655
C83   C     C_R   0.571056 0.010835 0.854936 0.389546
C84   C     C_R   0.071415 0.491990 0.856306 0.443860
C85   C     C_R   0.502610 0.004876 0.150378 0.009558
C86   C     C_R   0.002901 0.504457 0.149579 -0.013325
C87   C     C_R   0.622591 0.995231 0.233075 0.503180
C88   C     C_R   0.119702 0.477302 0.234631 0.563052
N3    N     N_R   0.448170 1.000000 0.762060 -0.148825
N4    N     N_R   0.948170 0.500000 0.762060 -0.154630
H5    H     H_    0.448830 0.005897 0.163897 0.200835
H6    H     H_    0.950435 0.519591 0.160684 0.204634
H7    H     H_    0.377143 0.006527 0.026374 0.194191
H8    H     H_    0.877743 0.489865 0.027276 0.204397
N5    N     N_R   0.623463 0.181951 0.775477 0.221556
O17   O     O_R   0.556199 0.190363 0.744403 -0.295869
O18   O     O_R   0.647434 0.196157 0.874698 -0.279174
N6    N     N_R   0.632945 0.837783 0.782094 0.234193
O19   O     O_R   0.567805 0.815256 0.772640 -0.239369
O20   O     O_R   0.665361 0.856996 0.875786 -0.264875
N7    N     N_R   0.127560 0.670629 0.776488 0.240671
O21   O     O_R   0.065970 0.701166 0.752750 -0.217060
O22   O     O_R   0.148759 0.650291 0.874286 -0.330456
N8    N     N_R   0.116731 0.324363 0.778535 0.234024
O23   O     O_R   0.048839 0.315161 0.758132 -0.248668
O24   O     O_R   0.146144 0.326312 0.877763 -0.318707
O25   O     O_3   0.688635 0.040200 0.946840 -0.629520
H9    H     H_    0.693196 0.066014 0.879840 0.334009
O26   O     O_3   0.190884 0.478336 0.951682 -0.675065
H10   H     H_    0.201269 0.451216 0.888764 0.365468
O27   O     O_3   0.717171 0.994622 0.129599 -0.577978
H11   H     H_    0.746563 0.001755 0.199951 0.426819
O28   O     O_3   0.204836 0.426494 0.142599 -0.601506
H12   H     H_    0.199200 0.387221 0.087618 0.396373
N9    N     N_R   0.328417 0.986479 0.667503 0.243653
O29   O     O_R   0.298436 0.921961 0.648081 -0.345121
O30   O     O_R   0.298617 0.044340 0.618862 -0.357341
N10   N     N_R   0.828042 0.500365 0.666630 0.244782
O31   O     O_R   0.796013 0.438428 0.636118 -0.346675
O32   O     O_R   0.799928 0.562369 0.629167 -0.360845
N11   N     N_R   0.276800 0.994797 0.865461 0.253325
O33   O     O_R   0.230788 0.025341 0.792299 -0.256283
O34   O     O_R   0.255026 0.966392 0.948450 -0.290196
N12   N     N_R   0.776594 0.496383 0.865296 0.253845
O35   O     O_R   0.732222 0.533952 0.797908 -0.260893
O36   O     O_R   0.753378 0.462621 0.943280 -0.295311
O37   O     O_3   0.598917 0.000123 0.765332 -0.729085
H13   H     H_    0.647567 0.980575 0.780416 0.336098
O38   O     O_3   0.099424 0.501540 0.766407 -0.730656
H14   H     H_    0.146296 0.525920 0.780876 0.333615
N13   N     N_R   0.394180 0.741871 0.775999 0.288777
O39   O     O_R   0.405336 0.678223 0.823853 -0.281419
O40   O     O_R   0.424069 0.801333 0.820623 -0.259938
N14   N     N_R   0.373149 0.244959 0.763879 0.209318
O41   O     O_R   0.416205 0.193356 0.804973 -0.321060
O42   O     O_R   0.370086 0.306731 0.815246 -0.277404
N15   N     N_R   0.893419 0.234915 0.761053 0.296643
O43   O     O_R   0.908557 0.169059 0.799624 -0.264224
O44   O     O_R   0.915758 0.293154 0.816732 -0.257982
N16   N     N_R   0.890960 0.765549 0.760589 0.253003
O45   O     O_R   0.929759 0.712722 0.808217 -0.273770
O46   O     O_R   0.890582 0.829890 0.806287 -0.248891
O47   O     O_3   0.772137 0.216541 0.824818 -0.608522
H15   H     H_    0.766666 0.170420 0.865165 0.384555
O48   O     O_3   0.758845 0.763056 0.822925 -0.595292
H16   H     H_    0.783220 0.715120 0.819295 0.368475
O49   O     O_3   0.268095 0.723682 0.829618 -0.615736
H17   H     H_    0.268066 0.678929 0.874768 0.405658
O50   O     O_3   0.237896 0.238637 0.822191 -0.597877
H18   H     H_    0.264051 0.191882 0.817750 0.375333
O51   O     O_3   0.344442 0.882682 0.231133 -0.706194
H19   H     H_    0.310809 0.877342 0.164041 0.391251
O52   O     O_3   0.349282 0.107892 0.223924 -0.714067
H20   H     H_    0.315668 0.098932 0.157843 0.379563
O53   O     O_3   0.836201 0.400776 0.233447 -0.701225
H21   H     H_    0.799484 0.402398 0.169373 0.386526
O54   O     O_3   0.832787 0.592631 0.237243 -0.711466
H22   H     H_    0.794026 0.587444 0.176242 0.379306
N17   N     N_R   0.720165 0.167888 0.300511 0.203982
O55   O     O_R   0.748557 0.106518 0.339606 -0.364965
O56   O     O_R   0.664521 0.165508 0.227316 -0.351772
N18   N     N_R   0.721383 0.825001 0.296743 0.230450
O57   O     O_R   0.661324 0.829076 0.233070 -0.320265
O58   O     O_R   0.765296 0.880633 0.303609 -0.292161
N19   N     N_R   0.241270 0.645356 0.315448 0.214017
O59   O     O_R   0.269297 0.586849 0.364683 -0.325884
O60   O     O_R   0.189577 0.637383 0.236660 -0.332684
N20   N     N_R   0.139771 0.215430 0.326499 0.224466
O61   O     O_R   0.099676 0.181466 0.384691 -0.308115
O62   O     O_R   0.110957 0.255484 0.246218 -0.312087
N21   N     N_R   0.267452 0.750799 0.159138 0.245786
O63   O     O_R   0.202204 0.760948 0.115162 -0.238114
O64   O     O_R   0.315017 0.738676 0.099368 -0.268300
N22   N     N_R   0.211061 0.168207 0.163265 0.235585
O65   O     O_R   0.232827 0.202955 0.084938 -0.267647
O66   O     O_R   0.156656 0.123972 0.144225 -0.231658
N23   N     N_R   0.745244 0.279910 0.153076 0.247491
O67   O     O_R   0.679179 0.293447 0.117464 -0.235935
O68   O     O_R   0.788672 0.269986 0.086056 -0.249680
N24   N     N_R   0.738611 0.709182 0.154679 0.246458
O69   O     O_R   0.780680 0.714814 0.084627 -0.262254
O70   O     O_R   0.671093 0.701314 0.122909 -0.243586
O71   O     O_3   0.458524 0.790413 0.611206 -0.669492
H23   H     H_    0.478429 0.786386 0.544459 0.312149
O72   O     O_3   0.438493 0.220492 0.581763 -0.724335
H24   H     H_    0.456678 0.257469 0.636807 0.396901
O73   O     O_3   0.954681 0.282617 0.592925 -0.674920
H25   H     H_    0.971549 0.279986 0.523589 0.329275
O74   O     O_3   0.952676 0.716340 0.594198 -0.667223
H26   H     H_    0.969806 0.719994 0.525104 0.316317
O75   O     O_3   0.671270 0.981223 0.321842 -0.680773
H27   H     H_    0.655820 0.004558 0.382720 0.396788
O76   O     O_3   0.168390 0.467890 0.324926 -0.669311
H28   H     H_    0.158589 0.505164 0.376385 0.386643

loop_
_geom_bond_atom_site_label_1
_geom_bond_atom_site_label_2
_geom_bond_distance
_ccdc_geom_bond_type
C38   C42   1.420652 A    
C73   C77   1.422182 A    
O48   H16   0.991155 S    
C43   C45   1.414219 A    
N13   O39   1.301153 A    
C9    C57   1.421168 A    
O47   H15   0.990501 S    
C20   C64   1.411452 A    
N20   O62   1.301716 A    
N15   O43   1.300936 A    
O10   C6    1.333250 A    
C88   O76   1.371867 S    
O54   H22   0.990012 S    
C33   C49   1.417504 A    
C46   N14   1.436513 S    
C66   O28   1.380022 S    
C67   N9    1.428743 S    
O26   H10   0.989864 S    
C46   C50   1.405391 A    
O49   H17   0.990032 S    
O7    C3    1.325806 A    
C79   C81   1.381812 A    
C15   C55   1.389336 A    
C30   C34   1.406505 A    
Zn1   O10   1.951975 S    
C17   C21   1.410373 A    
C77   C85   1.402609 A    
N11   O34   1.301753 A    
C28   N18   1.425508 S    
N9    O30   1.300475 A    
C67   N3    1.371455 A    
C55   H3    1.078265 S    
N24   O70   1.300749 A    
N17   O56   1.300607 A    
C75   C83   1.427379 A    
O53   H21   0.989735 S    
C74   C78   1.417041 A    
Zn3   N3    2.076817 S    
O71   H23   0.991428 S    
C33   C61   1.411899 A    
C22   C26   1.405734 A    
C37   C53   1.388420 A    
C37   C41   1.421492 A    
N21   O64   1.301224 A    
O2    Zn1   1.966027 S    
O13   C5    1.323554 A    
C84   O38   1.353309 S    
C16   C56   1.391256 A    
O6    Zn3   1.951850 S    
C25   N19   1.436870 S    
Zn3   O14   1.966016 S    
N11   O33   1.300745 A    
N18   O58   1.299506 A    
N2    C88   1.365134 A    
N22   O65   1.301072 A    
C36   C52   1.419056 A    
C70   C72   1.389236 A    
C26   N20   1.437340 S    
C31   C37   1.418007 A    
O15   C7    1.315264 A    
C27   N17   1.431910 S    
C58   N6    1.438490 S    
C56   H4    1.078254 S    
C31   C35   1.396018 A    
O8    C4    1.330643 A    
C1    C62   1.472134 S    
C68   C70   1.404978 A    
C20   O54   1.384527 S    
N20   O61   1.301335 A    
O8    Zn4   1.951850 S    
Zn1   N1    2.089392 S    
N16   O46   1.301302 A    
C50   O72   1.380829 S    
C81   C83   1.393780 A    
C17   C61   1.415720 A    
N7    O22   1.300683 A    
C18   C62   1.414677 A    
Zn4   N4    2.076817 S    
C87   O75   1.370659 S    
C71   C73   1.408294 A    
C40   C44   1.410505 A    
C36   C64   1.409429 A    
C65   C87   1.382244 A    
C12   O50   1.381474 S    
C9    C41   1.419256 A    
C60   N8    1.442018 S    
C32   C36   1.400915 A    
N19   O59   1.300897 A    
Zn2   O12   1.951975 S    
C69   N11   1.442008 S    
C12   C44   1.413252 A    
C82   O26   1.385996 S    
C21   N21   1.433252 S    
C16   C60   1.428839 A    
O76   H28   0.981732 S    
C78   C86   1.404250 A    
C57   N5    1.451422 S    
C68   N4    1.372208 A    
N24   O69   1.301304 A    
N2    C86   1.347397 A    
C27   C31   1.421818 A    
C83   O37   1.353486 S    
O12   C8    1.330169 A    
O75   H27   0.973395 S    
O73   H25   0.991550 S    
C40   C56   1.381650 A    
N1    C87   1.361743 A    
C4    C63   1.463192 S    
N18   O57   1.300882 A    
C44   C46   1.407093 A    
C71   H7    1.074699 S    
N8    O24   1.300571 A    
O74   H26   0.991408 S    
N19   O60   1.300673 A    
O72   H24   0.990118 S    
O5    C1    1.333518 A    
C11   C43   1.418686 A    
C12   C60   1.411182 A    
N23   O68   1.301098 A    
C41   C47   1.412801 A    
C6    C13   1.476320 S    
O50   H18   0.991344 S    
C34   C50   1.415062 A    
C28   C32   1.420904 A    
C48   C52   1.396754 A    
O5    Zn3   1.960578 S    
C70   N12   1.441886 S    
C24   N24   1.435131 S    
C25   C29   1.421481 A    
O1    C1    1.312149 A    
C77   C79   1.420978 A    
C54   H2    1.076366 S    
C72   H8    1.077615 S    
C53   H1    1.077612 S    
N5    O17   1.297884 A    
C19   O53   1.384623 S    
O3    Zn2   1.980787 S    
C32   C38   1.421512 A    
C14   C54   1.394935 A    
N10   O32   1.300968 A    
O7    Zn4   1.960578 S    
C73   C75   1.418984 A    
Zn2   N2    2.089392 S    
Zn4   O15   1.980777 S    
C65   O27   1.386230 S    
C10   C42   1.420759 A    
C23   N23   1.433855 S    
N16   O45   1.300864 A    
C75   N3    1.385796 A    
N12   O36   1.301748 A    
C76   C84   1.431088 A    
N13   O40   1.301071 A    
O4    C4    1.310644 A    
N1    C85   1.343825 A    
C35   C63   1.405787 A    
N7    O21   1.298521 A    
O2    C2    1.314660 A    
C39   C55   1.389802 A    
C34   C62   1.402114 A    
O11   C7    1.335158 A    
C38   C54   1.393871 A    
N6    O20   1.301983 A    
C74   C76   1.417729 A    
C11   O49   1.375881 S    
C13   C53   1.385745 A    
C8    C15   1.480006 S    
C59   N7    1.440005 S    
C18   O52   1.385309 S    
N15   O44   1.300717 A    
Zn2   O11   1.960705 S    
C5    C14   1.479102 S    
O16   C8    1.323769 A    
N10   O31   1.300992 A    
O6    C2    1.330925 A    
C19   C23   1.408552 A    
O28   H12   0.991736 S    
C69   C71   1.388996 A    
C11   C59   1.417436 A    
C78   C80   1.417194 A    
C42   C48   1.410721 A    
C3    C64   1.458973 S    
C45   N13   1.434553 S    
C17   O51   1.384764 S    
O27   H11   0.988106 S    
C26   C30   1.429585 A    
C2    C61   1.471269 S    
C39   C43   1.420183 A    
C29   C39   1.417190 A    
Zn1   O9    1.960705 S    
C85   H5    1.074277 S    
C7    C16   1.473878 S    
C30   C40   1.411921 A    
N14   O41   1.300973 A    
C22   N22   1.434455 S    
N8    O23   1.296580 A    
O9    C5    1.329991 A    
C81   O25   1.386646 S    
C51   O73   1.377461 S    
N9    O29   1.300919 A    
C14   C58   1.417380 A    
C86   H6    1.077006 S    
C13   C57   1.418619 A    
N17   O55   1.299437 A    
O25   H9    0.987905 S    
Zn3   O13   1.980777 S    
C80   C82   1.383035 A    
C45   C49   1.399190 A    
C15   C59   1.416018 A    
C68   N10   1.428772 S    
C82   C84   1.401404 A    
C49   O71   1.378023 S    
C47   C51   1.395705 A    
C66   C88   1.368717 A    
C76   N4    1.388219 A    
O4    Zn2   1.966027 S    
N21   O63   1.300996 A    
C72   C74   1.405448 A    
Zn4   O16   1.966016 S    
C10   O48   1.380802 S    
N5    O18   1.300773 A    
C29   C33   1.398157 A    
O3    C3    1.313557 A    
C66   C80   1.404804 A    
C19   C63   1.413840 A    
O52   H20   0.988216 S    
C10   C58   1.406418 A    
C18   C22   1.410802 A    
C47   N15   1.431891 S    
C20   C24   1.405101 A    
C52   O74   1.379357 S    
O1    Zn1   1.980787 S    
C67   C69   1.402946 A    
O51   H19   0.989740 S    
O14   C6    1.319228 A    
C65   C79   1.402500 A    
O38   H14   0.988821 S    
C21   C25   1.407024 A    
N12   O35   1.300618 A    
N23   O67   1.300775 A    
C9    O47   1.375897 S    
O37   H13   0.989992 S    
C23   C27   1.406637 A    
N22   O66   1.301036 A    
C35   C51   1.414502 A    
C24   C28   1.405205 A    
N14   O42   1.301301 A    
N6    O19   1.298880 A    
C48   N16   1.436125 S    
