data_mof_unit_46609.cif
_audit_creation_date              2012-12-10T18:42:30-0500
_audit_creation_method            fapswitch 2.2
_symmetry_space_group_name_H-M    P1
_symmetry_Int_Tables_number       1
_space_group_crystal_system       triclinic
_cell_length_a                    8.592569
_cell_length_b                    10.719555
_cell_length_c                    9.853591
_cell_angle_alpha                 89.932139
_cell_angle_beta                  98.587629
_cell_angle_gamma                 90.21739
_cell_volume                      897.4175875

loop_
_atom_site_label
_atom_site_type_symbol
_atom_type_description
_atom_site_fract_x
_atom_site_fract_y
_atom_site_fract_z
_atom_type_partial_charge
C1    C     C_R   0.499897 0.259906 0.499986 0.862182
C2    C     C_R   0.500103 0.740094 0.500014 0.862182
C3    C     C_R   0.201134 0.499969 0.464116 0.961139
C4    C     C_R   0.798866 0.500031 0.535884 0.961139
C5    C     C_2   0.036042 0.500110 0.444790 -0.370740
C6    C     C_2   0.963958 0.499890 0.555210 -0.370739
C7    C     C_R   0.527712 0.064107 0.382149 -0.203272
C8    C     C_R   0.472288 0.935893 0.617850 -0.203272
C9    C     C_R   0.527834 0.936308 0.382148 -0.178173
C10   C     C_R   0.472166 0.063692 0.617852 -0.178173
C11   C     C_R   0.500090 0.872561 0.499989 -0.013576
C12   C     C_R   0.499910 0.127439 0.500011 -0.013576
C13   C     C_R   0.597455 0.578858 0.085133 0.523555
C14   C     C_R   0.402545 0.421142 0.914867 0.523555
C15   C     C_R   0.596809 0.578369 0.940283 -0.306905
C16   C     C_R   0.403191 0.421631 0.059717 -0.306905
H1    H     H_    0.974265 0.500450 0.340013 0.198096
H2    H     H_    0.025735 0.499550 0.659987 0.198096
H3    H     H_    0.550200 0.112890 0.290622 0.161217
H4    H     H_    0.449800 0.887110 0.709378 0.161217
H5    H     H_    0.550431 0.887866 0.290653 0.182418
H6    H     H_    0.449569 0.112134 0.709347 0.182418
H7    H     H_    0.673642 0.640578 0.894300 0.155115
H8    H     H_    0.326358 0.359422 0.105700 0.155116
N1    N     N_R   0.499960 0.499970 0.857200 -0.098872
N2    N     N_R   0.500040 0.500030 0.142800 -0.098872
O1    O     O_R   0.499990 0.316750 0.614620 -0.580432
O2    O     O_R   0.500010 0.683250 0.385380 -0.580432
O3    O     O_R   0.499990 0.316780 0.385290 -0.638397
O4    O     O_R   0.500010 0.683220 0.614710 -0.638397
O5    O     O_R   0.271750 0.499990 0.587840 -0.567927
O6    O     O_R   0.728250 0.500010 0.412160 -0.567927
O7    O     O_R   0.271750 0.500010 0.358510 -0.631014
O8    O     O_R   0.728250 0.499990 0.641490 -0.631014
Zn1   Zn    Zn3+2 0.500000 0.499980 0.653120 0.993062
Zn2   Zn    Zn3+2 0.500000 0.500020 0.346880 0.993062
O9    O     O_3   0.694967 0.657688 0.169763 -0.750964
H9    H     H_    0.757531 0.708298 0.112990 0.303487
O10   O     O_3   0.305033 0.342312 0.830237 -0.750963
H10   H     H_    0.242469 0.291702 0.887010 0.303487

loop_
_geom_bond_atom_site_label_1
_geom_bond_atom_site_label_2
_ccdc_geom_bond_type
O9    H9    S    
C4    O8    A    
C13   O9    S    
C2    O4    A    
C1    O3    A    
C16   H8    S    
C8    H4    S    
C10   H6    S    
C3    O5    A    
C9    C11   A    
O3    Zn2   S    
C9    H5    S    
C4    O6    A    
C1    C12   S    
C10   C12   A    
O4    Zn1   S    
N1    Zn1   S    
C8    C11   A    
C5    C6    D    
C2    C11   S    
O6    Zn2   S    
C15   H7    S    
O5    Zn1   S    
C13   C15   A    
C14   N1    A    
C16   N2    A    
C7    C12   A    
C6    H2    S    
C14   C16   A    
C13   N2    A    
C15   N1    A    
C5    H1    S    
C3    O7    A    
C7    C9    A    
O7    Zn2   S    
O2    Zn2   S    
C4    C6    S    
O8    Zn1   S    
N2    Zn2   S    
O10   H10   S    
C1    O1    A    
C7    H3    S    
C2    O2    A    
O1    Zn1   S    
C14   O10   S    
C8    C10   A    
C3    C5    S    
