data_mof_unit_41901.cif
_audit_creation_date              2013-03-05T15:42:54-0500
_audit_creation_method            fapswitch 2.2
_symmetry_space_group_name_H-M    P1
_symmetry_Int_Tables_number       1
_space_group_crystal_system       triclinic
_cell_length_a                    15.070002
_cell_length_b                    10.946045
_cell_length_c                    9.731382
_cell_angle_alpha                 90.421421
_cell_angle_beta                  90.682787
_cell_angle_gamma                 90.542724
_cell_volume                      1605.02804141

loop_
_atom_site_label
_atom_site_type_symbol
_atom_site_description
_atom_site_fract_x
_atom_site_fract_y
_atom_site_fract_z
_atom_type_partial_charge
O1    O     O_R   0.500020 0.321960 0.617040 -0.537781
O2    O     O_R   0.499980 0.321920 0.382900 -0.519028
C1    C     C_R   0.503606 0.265874 0.499425 0.760818
O3    O     O_R   0.370270 0.499990 0.617090 -0.521168
O4    O     O_R   0.370240 0.499950 0.382940 -0.529696
C2    C     C_R   0.329054 0.499762 0.499401 0.844205
Cu1   Cu    Cu3+1 0.500020 0.500020 0.638630 1.096987
Cu2   Cu    Cu3+1 0.499980 0.499980 0.361370 1.193256
O5    O     O_R   0.500020 0.678080 0.617100 -0.538207
O6    O     O_R   0.499980 0.678040 0.382960 -0.548579
O7    O     O_R   0.629760 0.500050 0.617060 -0.614377
O8    O     O_R   0.629730 0.500010 0.382910 -0.476401
C3    C     C_R   0.497585 0.734403 0.500384 0.756565
C4    C     C_R   0.671005 0.499686 0.500608 0.865161
C5    C     C_R   0.814777 0.575253 0.592581 0.514611
C6    C     C_R   0.767570 0.498754 0.501552 -0.326004
C7    C     C_R   0.811996 0.422872 0.409445 0.588286
C8    C     C_R   0.904854 0.422388 0.407797 -0.221560
C9    C     C_R   0.953091 0.499806 0.499553 -0.179055
C10   C     C_R   0.907841 0.577316 0.592292 -0.036426
C11   C     C_R   0.950467 0.346534 0.316032 0.603897
C12   C     C_R   0.042736 0.345682 0.315808 0.553133
C13   C     C_R   0.091918 0.420720 0.407664 -0.212380
C14   C     C_R   0.046630 0.499726 0.498403 -0.075211
C15   C     C_R   0.094687 0.578173 0.588709 0.005098
C16   C     C_R   0.049271 0.653633 0.680468 -0.242274
C17   C     C_R   0.956735 0.655868 0.681261 0.515571
C18   C     C_R   0.185288 0.417533 0.412397 0.446654
C19   C     C_R   0.232402 0.499766 0.498420 -0.268940
C20   C     C_R   0.187634 0.581144 0.585032 0.410664
H1    H     H_    0.085295 0.712001 0.752609 0.206020
C21   C     C_2   0.500679 0.933799 0.390996 0.456932
C22   C     C_2   0.485773 0.865458 0.502573 0.282972
C23   C     C_2   0.487613 0.065509 0.394454 0.465034
C24   C     C_2   0.520154 0.135281 0.498193 0.221676
C25   C     C_2   0.447963 0.430812 0.921584 0.760615
N1    N     N_2   0.499020 0.498660 0.846910 -0.095185
C26   C     C_2   0.437340 0.450495 0.074669 0.759198
N2    N     N_2   0.499000 0.498630 0.153040 0.034470
F1    F     F_    0.769218 0.650483 0.677336 -0.663897
F2    F     F_    0.452898 0.915842 0.619609 -0.630449
F3    F     F_    0.444893 0.115954 0.284979 -0.606088
O9    O     O_3   0.570250 0.084336 0.603611 -0.530610
C27   C     C_3   0.658547 0.127670 0.595905 -0.212025
H2    H     H_    0.663610 0.225591 0.626503 0.162807
H3    H     H_    0.686376 0.113660 0.491416 0.169415
H4    H     H_    0.700033 0.075112 0.669064 0.203640
F4    F     F_    0.399579 0.340099 0.860010 -0.605825
O10   O     O_3   0.519022 0.608521 0.904333 -0.539620
C28   C     C_3   0.608955 0.635382 0.878606 0.219588
H5    H     H_    0.616005 0.690449 0.784632 0.182228
H6    H     H_    0.651153 0.552435 0.873722 0.171112
H7    H     H_    0.635229 0.692551 0.964747 0.169457
F5    F     F_    0.360049 0.412928 0.131210 -0.586312
F6    F     F_    0.581374 0.487694 0.105290 -0.567874
F7    F     F_    0.764086 0.347910 0.323972 -0.571876
F8    F     F_    0.906177 0.272413 0.225485 -0.544608
F9    F     F_    0.083238 0.271729 0.223605 -0.561901
O11   O     O_3   0.231076 0.335013 0.332081 -0.451058
C29   C     C_3   0.245903 0.228548 0.409736 -0.049046
H8    H     H_    0.182798 0.188770 0.448653 0.126140
H9    H     H_    0.292834 0.246868 0.496686 0.102601
H10   H     H_    0.276254 0.158892 0.342227 0.235582
O12   O     O_3   0.235233 0.660911 0.669739 -0.549663
C30   C     C_3   0.249507 0.770719 0.597906 -0.213475
H11   H     H_    0.285522 0.835761 0.666902 0.253037
H12   H     H_    0.185774 0.814070 0.567461 0.135801
H13   H     H_    0.291186 0.755704 0.505810 0.133748
O13   O     O_3   0.914638 0.729899 0.775561 -0.514569
C31   C     C_3   0.916152 0.851016 0.727001 -0.173173
H14   H     H_    0.877392 0.908806 0.798123 0.209847
H15   H     H_    0.884554 0.857604 0.623269 0.159985
H16   H     H_    0.984973 0.888596 0.725276 0.134126
F10   F     F_    0.525061 0.882847 0.269309 -0.596593

loop_
_geom_bond_atom_site_label_1
_geom_bond_atom_site_label_2
_geom_bond_distance
_ccdc_geom_bond_type
C12   F9    1.358176 S    
O4    Cu2   1.968900 S    
C28   H6    1.114467 S    
C13   C14   1.416932 A    
C3    C22   1.447235 S    
C31   H14   1.109303 S    
C10   C17   1.411974 A    
C20   O12   1.385588 S    
N2    F6    1.336792 S    
C8    C11   1.404958 A    
N1    O10   1.352202 S    
C11   F8    1.358445 S    
C9    C10   1.419036 A    
C17   O13   1.383438 S    
C27   H4    1.109464 S    
C1    C24   1.453379 S    
Cu2   O8    1.964048 S    
C30   H13   1.112626 S    
C22   F2    1.362407 S    
C21   C22   1.342980 D    
C31   H16   1.112464 S    
C25   C26   1.514253 S    
C9    C14   1.409816 A    
Cu1   N1    2.027250 S    
O11   C29   1.411715 S    
O1    Cu1   1.958807 S    
C11   C12   1.390634 A    
O12   C30   1.410922 S    
C29   H9    1.112168 S    
Cu1   O7    1.968902 S    
C7    F7    1.360449 S    
C16   C17   1.395087 A    
C19   C20   1.404603 A    
O3    Cu1   1.964046 S    
O4    C2    1.298631 A    
C26   N2    1.300239 D    
O3    C2    1.296318 A    
C25   N1    1.296952 D    
Cu2   N2    2.027161 S    
O8    C4    1.296884 A    
C7    C8    1.399714 A    
C25   F4    1.357850 S    
O2    C1    1.294061 A    
O13   C31   1.410797 S    
C29   H10   1.108394 S    
O9    C27   1.411447 S    
C21   F10   1.361206 S    
C5    C10   1.402487 A    
C23   C24   1.346347 D    
O7    C4    1.298983 A    
C4    C6    1.455278 S    
C5    F1    1.357935 S    
C23   F3    1.361387 S    
C28   H7    1.109388 S    
C6    C7    1.398366 A    
C5    C6    1.398132 A    
Cu1   O5    1.961812 S    
Cu1   Cu2   2.698114 S    
C2    C19   1.456462 S    
C24   O9    1.389682 S    
C14   C15   1.412828 A    
Cu2   O6    1.958807 S    
C30   H11   1.108704 S    
C18   O11   1.384623 S    
C15   C20   1.401673 A    
O10   C28   1.409818 S    
C8    C9    1.416191 A    
O5    C3    1.296624 A    
C12   C13   1.408868 A    
C18   C19   1.406320 A    
C31   H15   1.114096 S    
C27   H3    1.114641 S    
C28   H5    1.104589 S    
C15   C16   1.400870 A    
C13   C18   1.408064 A    
C16   H1    1.083290 S    
O2    Cu2   1.961812 S    
C27   H2    1.112003 S    
C30   H12   1.113262 S    
C21   C23   1.457141 S    
C29   H8    1.113811 S    
O1    C1    1.296761 A    
O6    C3    1.295660 A    
C26   F5    1.355745 S    
