data_mof_unit_11324.cif
_audit_creation_date              2012-12-11T14:19:18-0500
_audit_creation_method            fapswitch 2.2
_symmetry_space_group_name_H-M    P1
_symmetry_Int_Tables_number       1
_space_group_crystal_system       triclinic
_cell_length_a                    19.519949
_cell_length_b                    7.23009
_cell_length_c                    17.73384
_cell_angle_alpha                 89.999936
_cell_angle_beta                  107.358492
_cell_angle_gamma                 89.999906
_cell_volume                      2388.80889343

loop_
_atom_site_label
_atom_site_type_symbol
_atom_type_description
_atom_site_fract_x
_atom_site_fract_y
_atom_site_fract_z
_atom_type_partial_charge
O1    O     O_R   0.414820 0.494320 0.416790 -0.512592
O2    O     O_R   0.585180 0.994320 0.583210 -0.512595
O3    O     O_R   0.560270 0.819500 0.430140 -0.560526
O4    O     O_R   0.439730 0.319500 0.569860 -0.560526
C1    C     C_R   0.582324 0.656068 0.416224 0.842136
C2    C     C_R   0.417678 0.156068 0.583778 0.842133
O5    O     O_R   0.413840 0.823740 0.407440 -0.540619
O6    O     O_R   0.586160 0.323740 0.592560 -0.540619
O7    O     O_R   0.437710 0.998590 0.560350 -0.531784
O8    O     O_R   0.562290 0.498590 0.439650 -0.531783
C3    C     C_R   0.386559 0.655989 0.386623 0.676116
C4    C     C_R   0.613441 0.155989 0.613377 0.676110
O9    O     O_3   0.508000 0.662290 0.550200 -0.376689
O10   O     O_3   0.492000 0.162290 0.449800 -0.376686
V1    V     V_3+5 0.498520 0.935380 0.490690 1.495486
V2    V     V_3+5 0.501480 0.435380 0.509310 1.495486
C5    C     C_2   0.801143 0.268885 0.768884 0.452911
C6    C     C_2   0.198855 0.768881 0.231119 0.452915
C7    C     C_2   0.827062 0.113471 0.811204 -0.412527
C8    C     C_2   0.172937 0.613469 0.188797 -0.412531
H1    H     H_    0.805401 0.979056 0.791609 0.194685
H2    H     H_    0.194599 0.479054 0.208392 0.194688
C9    C     C_2   0.731854 0.277425 0.701234 -0.006321
C10   C     C_2   0.268144 0.777421 0.298769 -0.006317
C11   C     C_2   0.679845 0.142568 0.682097 0.159719
C12   C     C_2   0.320155 0.642569 0.317902 0.159723
C13   C     C_R   0.296362 0.210971 0.602224 0.321447
C14   C     C_R   0.703641 0.710959 0.397779 0.321444
C15   C     C_R   0.368005 0.149794 0.632809 -0.248348
C16   C     C_R   0.631997 0.649792 0.367194 -0.248353
C17   C     C_R   0.393345 0.090921 0.711724 0.359454
C18   C     C_R   0.606657 0.590920 0.288278 0.359458
C19   C     C_R   0.344824 0.067295 0.756483 -0.058331
C20   C     C_R   0.655178 0.567289 0.243519 -0.058335
C21   C     C_R   0.273523 0.129187 0.726946 -0.048421
C22   C     C_R   0.726480 0.629174 0.273056 -0.048420
C23   C     C_R   0.248995 0.200405 0.649308 -0.023554
C24   C     C_R   0.751009 0.700388 0.350695 -0.023534
C25   C     C_R   0.367546 0.986416 0.831193 -0.246025
C26   C     C_R   0.632455 0.486409 0.168810 -0.246022
C27   C     C_R   0.324195 0.984733 0.881299 0.449509
C28   C     C_R   0.675806 0.484722 0.118704 0.449510
C29   C     C_R   0.251925 0.048820 0.853769 -0.022250
C30   C     C_R   0.748075 0.548810 0.146232 -0.022251
C31   C     C_R   0.227058 0.121666 0.775340 -0.045165
C32   C     C_R   0.772944 0.621652 0.224662 -0.045169
C33   C     C_R   0.156104 0.190071 0.745289 0.063674
C34   C     C_R   0.843899 0.690053 0.254713 0.063696
C35   C     C_R   0.130771 0.255320 0.666813 0.395410
C36   C     C_R   0.869234 0.755297 0.333190 0.395424
C37   C     C_R   0.177508 0.259664 0.619898 -0.255914
C38   C     C_R   0.822496 0.759639 0.380105 -0.255950
C39   C     C_R   0.203520 0.043681 0.900663 0.138522
C40   C     C_R   0.796480 0.543676 0.099337 0.138519
C41   C     C_R   0.133445 0.117352 0.870010 -0.125103
C42   C     C_R   0.866554 0.617349 0.129989 -0.125108
C43   C     C_R   0.110868 0.190090 0.793655 -0.219223
C44   C     C_R   0.889133 0.690077 0.206345 -0.219212
H3    H     H_    0.420561 0.926292 0.852024 0.170856
H4    H     H_    0.579440 0.426288 0.147979 0.170857
H5    H     H_    0.056555 0.242461 0.771350 0.146716
H6    H     H_    0.943447 0.742446 0.228650 0.146720
H7    H     H_    0.158037 0.314445 0.560743 0.157490
H8    H     H_    0.841965 0.814417 0.439261 0.157471
O11   O     O_R   0.937810 0.773680 0.060480 -0.536767
O12   O     O_R   0.062190 0.273680 0.939520 -0.536767
O13   O     O_R   0.086190 0.439740 0.092580 -0.547732
O14   O     O_R   0.913810 0.939740 0.907420 -0.547735
C45   C     C_R   0.110236 0.608761 0.116796 0.754364
C46   C     C_R   0.889764 0.108761 0.883205 0.754367
O15   O     O_R   0.939760 0.444210 0.069890 -0.534219
O16   O     O_R   0.060240 0.944210 0.930110 -0.534220
O17   O     O_R   0.914790 0.269640 0.916760 -0.496423
O18   O     O_R   0.085210 0.769640 0.083240 -0.496423
C47   C     C_R   0.918514 0.612061 0.083900 0.718617
C48   C     C_R   0.081485 0.112061 0.916099 0.718614
O19   O     O_3   0.992050 0.601530 0.949880 -0.378194
O20   O     O_3   0.007950 0.101530 0.050120 -0.378191
V3    V     V_3+5 0.001480 0.328340 0.009300 1.508183
V4    V     V_3+5 0.998520 0.828340 0.990700 1.508178
O21   O     O_3   0.840149 0.432198 0.787192 -0.517576
C49   C     C_3   0.894217 0.432547 0.748642 0.171946
H9    H     H_    0.874557 0.377234 0.687255 0.105427
H10   H     H_    0.940704 0.347874 0.782482 0.091839
C50   C     C_3   0.919868 0.629640 0.743283 -0.651155
H11   H     H_    0.941807 0.689903 0.803064 0.231604
H12   H     H_    0.962637 0.629583 0.713693 0.177665
H13   H     H_    0.874725 0.717174 0.708544 0.225920
O22   O     O_3   0.159846 0.932191 0.212815 -0.517577
C51   C     C_3   0.105775 0.932522 0.251360 0.171948
H14   H     H_    0.125432 0.877195 0.312746 0.105427
H15   H     H_    0.059290 0.847852 0.217515 0.091844
C52   C     C_3   0.080121 0.129611 0.256724 -0.651162
H16   H     H_    0.058188 0.189887 0.196945 0.231603
H17   H     H_    0.037347 0.129540 0.286306 0.177677
H18   H     H_    0.125261 0.217140 0.291472 0.225918
O23   O     O_3   0.061940 0.328751 0.639441 -0.561693
C53   C     C_3   0.023260 0.248493 0.566427 0.081331
H19   H     H_    0.033337 0.096808 0.565012 0.124317
H20   H     H_    0.037259 0.317534 0.517002 0.124993
C54   C     C_3   0.943503 0.276496 0.553810 -0.735492
H21   H     H_    0.930928 0.426437 0.553337 0.228083
H22   H     H_    0.912221 0.214533 0.496575 0.193346
H23   H     H_    0.928033 0.208464 0.602367 0.210095
O24   O     O_3   0.938065 0.828734 0.360554 -0.561698
C55   C     C_3   0.976735 0.748622 0.433605 0.081342
H24   H     H_    0.966656 0.596951 0.435080 0.124343
H25   H     H_    0.962729 0.817802 0.482996 0.124960
C56   C     C_3   0.056496 0.776585 0.446226 -0.735485
H26   H     H_    0.069073 0.926516 0.446647 0.228072
H27   H     H_    0.087768 0.714724 0.503487 0.193363
H28   H     H_    0.071973 0.708432 0.397700 0.210114
I1    I     I_    0.719618 0.533477 0.636579 -0.336436
I2    I     I_    0.280377 0.033466 0.363427 -0.336424
O25   O     O_3   0.690185 0.976428 0.722475 -0.549802
C57   C     C_3   0.648203 0.975054 0.774729 0.084029
H29   H     H_    0.590521 0.961936 0.741000 0.175963
H30   H     H_    0.657220 0.102247 0.812052 0.131715
C58   C     C_3   0.668884 0.809416 0.829503 -0.617701
H31   H     H_    0.636304 0.809862 0.871139 0.152792
H32   H     H_    0.658816 0.679018 0.794810 0.241765
H33   H     H_    0.726559 0.817088 0.863934 0.239511
O26   O     O_3   0.309818 0.476435 0.277520 -0.549797
C59   C     C_3   0.351793 0.475091 0.225258 0.084013
H34   H     H_    0.409476 0.461949 0.258982 0.175970
H35   H     H_    0.342778 0.602305 0.187949 0.131718
C60   C     C_3   0.331101 0.309487 0.170466 -0.617716
H36   H     H_    0.363673 0.309960 0.128822 0.152803
H37   H     H_    0.341170 0.179066 0.205145 0.241758
H38   H     H_    0.273424 0.317178 0.136044 0.239504
O27   O     O_3   0.271261 0.267047 0.524191 -0.539824
C61   C     C_3   0.271696 0.462389 0.519979 0.132645
H39   H     H_    0.325597 0.511737 0.520258 0.138146
H40   H     H_    0.257257 0.531328 0.569458 0.101971
C62   C     C_3   0.217373 0.522339 0.443054 -0.734139
H41   H     H_    0.163064 0.473087 0.441139 0.209963
H42   H     H_    0.216721 0.675437 0.438359 0.189987
H43   H     H_    0.231352 0.461853 0.392104 0.259732
O28   O     O_3   0.728743 0.767034 0.475812 -0.539823
C63   C     C_3   0.728307 0.962376 0.480024 0.132642
H44   H     H_    0.674406 0.011724 0.479742 0.138146
H45   H     H_    0.742748 0.031314 0.430546 0.101971
C64   C     C_3   0.782628 0.022327 0.556950 -0.734145
H46   H     H_    0.836939 0.973079 0.558867 0.209964
H47   H     H_    0.783279 0.175425 0.561646 0.189988
H48   H     H_    0.768649 0.961838 0.607899 0.259742
O29   O     O_3   0.466352 0.061885 0.745216 -0.574969
C65   C     C_3   0.496056 0.206266 0.799569 0.001526
H49   H     H_    0.543594 0.150429 0.845234 0.152708
H50   H     H_    0.459153 0.259109 0.831817 0.135076
C66   C     C_3   0.520099 0.368887 0.758973 -0.703000
H51   H     H_    0.472931 0.437828 0.717659 0.216312
H52   H     H_    0.548562 0.471717 0.803771 0.185693
H53   H     H_    0.557093 0.320866 0.726495 0.212130
O30   O     O_3   0.533650 0.561890 0.254786 -0.574968
C67   C     C_3   0.503948 0.706273 0.200433 0.001519
H54   H     H_    0.456410 0.650439 0.154767 0.152705
H55   H     H_    0.540852 0.759114 0.168185 0.135076
C68   C     C_3   0.479906 0.868896 0.241029 -0.702987
H56   H     H_    0.527073 0.937837 0.282342 0.216310
H57   H     H_    0.451441 0.971724 0.196231 0.185692
H58   H     H_    0.442912 0.820876 0.273508 0.212134
O31   O     O_3   0.353773 0.915386 0.956558 -0.539159
C69   C     C_3   0.402257 0.045684 0.004029 0.122544
H59   H     H_    0.390547 0.054591 0.061275 0.159957
H60   H     H_    0.396993 0.189271 0.979625 0.104361
C70   C     C_3   0.479499 0.979326 0.021160 -0.789810
H61   H     H_    0.499142 0.999167 0.969235 0.204591
H62   H     H_    0.514891 0.058989 0.071333 0.203527
H63   H     H_    0.482873 0.830709 0.036629 0.233538
O32   O     O_3   0.646228 0.415370 0.043445 -0.539160
C71   C     C_3   0.597745 0.545666 0.995973 0.122547
H64   H     H_    0.609453 0.554562 0.938726 0.159959
H65   H     H_    0.603011 0.689256 0.020374 0.104364
C72   C     C_3   0.520502 0.479317 0.978845 -0.789822
H66   H     H_    0.500860 0.499164 0.030770 0.204592
H67   H     H_    0.485110 0.558981 0.928672 0.203525
H68   H     H_    0.517126 0.330700 0.963376 0.233539
I3    I     I_    0.230080 0.927507 0.017899 -0.384576
I4    I     I_    0.769919 0.427506 0.982101 -0.384576

loop_
_geom_bond_atom_site_label_1
_geom_bond_atom_site_label_2
_ccdc_geom_bond_type
O14   V4    S    
C64   H48   S    
C16   C18   A    
O32   C71   S    
C44   H6    S    
C52   H16   S    
C26   H4    S    
C13   C15   A    
C13   O27   S    
O31   C69   S    
O1    C3    A    
C65   C66   S    
O16   C48   A    
O2    C4    A    
C2    O7    A    
O15   V3    S    
O21   C49   S    
O26   C59   S    
C72   H67   S    
C50   H11   S    
O5    C3    A    
O12   V3    S    
C69   H60   S    
C54   H21   S    
C49   C50   S    
C6    C10   S    
C67   H54   S    
C7    H1    S    
C10   C12   D    
C34   C36   A    
C11   O25   S    
C23   C37   A    
C50   H13   S    
C33   C43   A    
C55   H24   S    
O25   C57   S    
C57   H29   S    
C62   H42   S    
C31   C33   A    
C66   H53   S    
C56   H27   S    
C5    C7    D    
C29   C39   A    
O29   C65   S    
C30   C32   A    
C61   H39   S    
C35   C37   A    
C36   O24   S    
C36   C38   A    
C66   H51   S    
C17   C19   A    
C22   C32   A    
C70   H63   S    
C5    O21   S    
C6    C8    D    
C71   C72   S    
C17   O29   S    
C58   H32   S    
O12   C48   A    
C52   H17   S    
C42   C47   S    
O18   V4    S    
C27   C29   A    
C14   O28   S    
C28   C30   A    
C39   I3    S    
C71   H65   S    
O23   C53   S    
C72   H68   S    
C32   C34   A    
C39   C41   A    
O28   C63   S    
C40   C42   A    
C50   H12   S    
C62   H41   S    
O13   V3    S    
C63   H44   S    
C33   C35   A    
C38   H8    S    
C56   H28   S    
C70   H61   S    
O20   V3    S    
C3    C12   S    
O16   V4    S    
C70   H62   S    
O13   C45   A    
C18   C20   A    
O4    V2    S    
C60   H37   S    
C41   C43   A    
C9    I1    S    
C18   O30   S    
C19   C25   A    
C51   H15   S    
C68   H56   S    
C14   C24   A    
O6    C4    A    
C25   H3    S    
C2    C15   S    
C46   O17   A    
C68   H57   S    
O17   V3    S    
C68   H58   S    
C37   H7    S    
C45   O18   A    
C40   I4    S    
O1    V2    S    
C5    C9    S    
C65   H49   S    
C63   C64   S    
C43   H5    S    
O2    V1    S    
C29   C31   A    
C62   H43   S    
C57   H30   S    
C59   C60   S    
C41   C48   S    
O4    C2    A    
C8    H2    S    
C53   H19   S    
C52   H18   S    
C49   H10   S    
C27   O31   S    
C20   C26   A    
C8    C45   S    
C12   O26   S    
O27   C61   S    
C21   C31   A    
O3    V1    S    
C71   H64   S    
C51   C52   S    
C59   H35   S    
C1    C16   S    
C54   H22   S    
C58   H33   S    
C64   H47   S    
C69   H59   S    
C21   C23   A    
O10   V1    S    
C6    O22   S    
C69   C70   S    
C65   H50   S    
C26   C28   A    
O3    C1    A    
C58   H31   S    
C34   C44   A    
C60   H36   S    
C63   H45   S    
C67   C68   S    
C54   H23   S    
C53   C54   S    
O24   C55   S    
C53   H20   S    
O11   C47   A    
C57   C58   S    
C4    C11   S    
C67   H55   S    
O7    V1    S    
C60   H38   S    
C14   C16   A    
C15   C17   A    
C72   H66   S    
O8    V2    S    
C56   H26   S    
C22   C24   A    
O15   C47   A    
O19   V4    S    
C51   H14   S    
C55   H25   S    
C13   C23   A    
C61   C62   S    
C61   H40   S    
O5    V1    S    
C19   C21   A    
C42   C44   A    
C20   C22   A    
C66   H52   S    
C28   O32   S    
C35   O23   S    
C30   C40   A    
C1    O8    A    
C9    C11   D    
C24   C38   A    
C25   C27   A    
O6    V2    S    
C49   H9    S    
O9    V2    S    
O30   C67   S    
O11   V4    S    
O14   C46   A    
C10   I2    S    
C7    C46   S    
O22   C51   S    
C64   H46   S    
C59   H34   S    
C55   C56   S    
