data_mof_unit_12212.cif
_audit_creation_date              2012-10-26T21:04:55-0400
_audit_creation_method            fapswitch 2.2
_symmetry_space_group_name_H-M    P1
_symmetry_Int_Tables_number       1
_space_group_crystal_system       triclinic
_cell_length_a                    11.697199
_cell_length_b                    12.396273
_cell_length_c                    13.07979
_cell_angle_alpha                 116.092937
_cell_angle_beta                  77.724115
_cell_angle_gamma                 101.07211
_cell_volume                      1653.82491808

loop_
_atom_site_label
_atom_site_type_symbol
_atom_type_description
_atom_site_fract_x
_atom_site_fract_y
_atom_site_fract_z
_atom_type_partial_charge
C1    C     C_R   0.509701 0.854730 0.285924 0.521764
C2    C     C_R   0.349325 0.482352 0.167684 -0.139879
C3    C     C_R   0.381638 0.605102 0.198608 -0.117840
C4    C     C_R   0.715656 0.999803 0.500124 0.534525
C5    C     C_R   0.498260 0.350772 0.867711 -0.184706
C6    C     C_R   0.402377 0.188444 0.922550 0.254588
C7    C     C_R   0.513599 0.771155 0.161931 -0.005923
C8    C     C_R   0.707530 0.364751 0.352127 0.247219
C9    C     C_R   0.337289 0.751785 0.644350 0.150941
C10   C     C_R   0.316897 0.659847 0.683488 -0.142771
C11   C     C_R   0.384437 0.565762 0.635455 -0.152102
C12   C     C_R   0.463460 0.227305 0.837351 0.000822
C13   C     C_R   0.475175 0.558788 0.545598 -0.001275
C14   C     C_R   0.502306 0.658354 0.512091 0.170841
C15   C     C_R   0.540249 0.455981 0.488542 -0.058575
C16   C     C_R   0.483724 0.144700 0.714173 0.556959
C17   C     C_R   0.640727 0.461931 0.409141 0.028588
C18   C     C_R   0.669975 0.561404 0.381014 -0.159876
C19   C     C_R   0.599783 0.654573 0.427756 -0.110824
C20   C     C_R   0.508629 0.346278 0.504997 0.001762
C21   C     C_R   0.660813 0.253072 0.355769 0.156685
C22   C     C_R   0.284296 0.000350 0.500184 0.542016
C23   C     C_R   0.579134 0.811144 0.079572 -0.147451
C24   C     C_1   0.837351 0.999358 0.500092 -0.039240
C25   C     C_1   0.939951 0.999570 0.500053 -0.052346
C26   C     C_1   0.059949 0.000169 0.500081 -0.052761
C27   C     C_1   0.162573 0.000563 0.500111 -0.035454
C28   C     C_R   0.364691 0.274550 0.032312 -0.111872
C29   C     C_3   0.450499 0.026877 0.935431 -0.117873
C30   C     C_3   0.905039 0.415216 0.338900 -0.139430
C31   C     C_3   0.243379 0.838680 0.688089 -0.201993
C32   C     C_3   0.156739 0.845179 0.797001 -0.331361
C33   C     C_3   0.079484 0.947128 0.838577 -0.442247
C34   C     C_R   0.597679 0.733033 0.964280 -0.147344
C35   C     C_3   0.697137 0.143667 0.248415 -0.183993
C36   C     C_3   0.794107 0.081833 0.258308 -0.259069
C37   C     C_3   0.884537 0.042621 0.149412 -0.479466
C38   C     C_R   0.558092 0.611107 0.928886 -0.117692
C39   C     C_R   0.495073 0.564707 0.008807 0.044858
C40   C     C_R   0.463357 0.647850 0.124533 0.029758
C41   C     C_R   0.462459 0.438556 0.977679 0.015963
C42   C     C_R   0.392543 0.398435 0.059700 0.006482
Cu1   Cu    Cu3+1 0.526510 0.098270 0.475420 0.910732
Cu2   Cu    Cu3+1 0.473490 0.901730 0.524580 0.913758
H1    H     H_    0.744896 0.565026 0.317152 0.162691
H2    H     H_    0.577474 0.556425 0.838051 0.103307
H3    H     H_    0.647109 0.766613 0.902155 0.112887
H4    H     H_    0.339290 0.665307 0.280596 0.151705
H5    H     H_    0.542436 0.041043 0.894355 0.126339
H6    H     H_    0.427889 0.928300 0.910393 0.139925
H7    H     H_    0.444530 0.071806 0.030836 0.107479
H8    H     H_    0.897229 0.508642 0.406716 0.117474
H9    H     H_    0.986799 0.418159 0.278506 0.140460
H10   H     H_    0.914451 0.354150 0.377773 0.113020
H11   H     H_    0.134144 0.036135 0.863478 0.188737
H12   H     H_    0.435092 0.336636 0.566839 0.134243
H13   H     H_    0.029443 0.933924 0.769875 0.149476
H14   H     H_    0.015952 0.947221 0.914761 0.142616
H15   H     H_    0.097385 0.759201 0.777943 0.144881
H16   H     H_    0.205962 0.861290 0.867273 0.191241
H17   H     H_    0.285191 0.931181 0.708820 0.243155
H18   H     H_    0.188994 0.810323 0.618620 0.146521
H19   H     H_    0.840477 0.979776 0.073875 0.139722
H20   H     H_    0.930931 0.122695 0.134625 0.174173
H21   H     H_    0.950632 0.995451 0.158896 0.145560
H22   H     H_    0.841356 0.143572 0.331937 0.172869
H23   H     H_    0.363062 0.499284 0.670791 0.101238
H24   H     H_    0.754520 0.999400 0.271379 0.185833
H25   H     H_    0.617594 0.083896 0.220150 0.132547
H26   H     H_    0.727331 0.169383 0.174694 0.157544
H27   H     H_    0.245654 0.656446 0.750010 0.102224
H28   H     H_    0.624932 0.721112 0.393968 0.183181
H29   H     H_    0.290156 0.452991 0.228856 0.102423
H30   H     H_    0.312285 0.244130 0.095709 0.115363
H31   H     H_    0.553136 0.376017 0.802839 0.129621
H32   H     H_    0.619801 0.902116 0.103261 0.110629
N1    N     N_R   0.566700 0.246290 0.438210 -0.255328
N2    N     N_R   0.434010 0.754320 0.561170 -0.233493
O1    O     O_R   0.533340 0.972510 0.318140 -0.513255
O2    O     O_3   0.808788 0.372135 0.276886 -0.596427
O3    O     O_R   0.488570 0.806530 0.359650 -0.524606
O4    O     O_R   0.685190 0.083000 0.479260 -0.500580
O5    O     O_R   0.640410 0.917020 0.520770 -0.509846
O6    O     O_R   0.511430 0.193470 0.640350 -0.514676
O7    O     O_R   0.466660 0.027490 0.681860 -0.470547
O8    O     O_R   0.359590 0.082980 0.479230 -0.487745
O9    O     O_R   0.314810 0.917000 0.520740 -0.533624
O10   O     O_3   0.370290 0.067223 0.896873 -0.583861

loop_
_geom_bond_atom_site_label_1
_geom_bond_atom_site_label_2
_ccdc_geom_bond_type
C33   H11   S    
C33   H14   S    
C41   C42   A    
C31   H17   S    
C35   C36   S    
C23   H32   S    
C20   H12   S    
Cu2   O5    S    
C28   H30   S    
C39   C41   A    
C29   H5    S    
C30   H10   S    
C26   C27   T    
C20   N1    A    
C36   C37   S    
C6    C12   A    
C38   C39   A    
C4    C24   S    
C36   H22   S    
Cu1   O1    S    
C3    H4    S    
C16   O6    A    
C6    O10   S    
C18   C19   A    
C29   O10   S    
C5    C41   A    
C6    C28   A    
C12   C16   S    
C35   H26   S    
C37   H21   S    
C7    C40   A    
Cu2   O9    S    
C9    C10   A    
C30   O2    S    
C10   H27   S    
C14   N2    A    
C34   C38   A    
C13   C14   A    
Cu1   O6    S    
C31   H18   S    
C19   H28   S    
C37   H19   S    
C11   H23   S    
C17   C18   A    
C29   H6    S    
C15   C20   A    
C30   H9    S    
C24   C25   T    
C5    C12   A    
Cu2   O3    S    
C39   C40   A    
C25   C26   S    
C5    H31   S    
Cu1   Cu2   S    
C31   C32   S    
C23   C34   A    
C8    C21   A    
C22   O9    A    
C2    H29   S    
C3    C40   A    
C22   C27   S    
C13   C15   A    
C16   O7    A    
C1    O1    A    
C32   H16   S    
Cu2   O7    S    
C18   H1    S    
C37   H20   S    
C29   H7    S    
C15   C17   A    
C30   H8    S    
C33   H13   S    
C1    C7    S    
Cu1   O8    S    
C14   C19   A    
C36   H24   S    
C21   C35   S    
Cu1   N1    S    
C8    C17   A    
C32   C33   S    
Cu2   N2    S    
C2    C3    A    
C11   C13   A    
C4    O5    A    
C2    C42   A    
C7    C23   A    
C28   C42   A    
C9    N2    A    
C22   O8    A    
C38   H2    S    
C10   C11   A    
C9    C31   S    
C4    O4    A    
C35   H25   S    
C21   N1    A    
C8    O2    S    
Cu1   O4    S    
C34   H3    S    
C32   H15   S    
C1    O3    A    
