data_mof_unit_55344.cif
_audit_creation_date              2012-12-10T19:48:35-0500
_audit_creation_method            fapswitch 2.2
_symmetry_space_group_name_H-M    P1
_symmetry_Int_Tables_number       1
_space_group_crystal_system       triclinic
_cell_length_a                    13.002021
_cell_length_b                    14.234477
_cell_length_c                    14.939401
_cell_angle_alpha                 90.415838
_cell_angle_beta                  90.22443
_cell_angle_gamma                 69.610048
_cell_volume                      2591.62545486

loop_
_atom_site_label
_atom_site_type_symbol
_atom_type_description
_atom_site_fract_x
_atom_site_fract_y
_atom_site_fract_z
_atom_type_partial_charge
C1    C     C_R   0.500648 0.499928 0.671799 1.041206
C2    C     C_R   0.824132 0.406581 0.477091 -0.261960
C3    C     C_R   0.597787 0.521109 0.901727 0.349100
C4    C     C_R   0.704956 0.443918 0.493640 0.969960
C5    C     C_R   0.596837 0.511683 0.809380 0.358175
C6    C     C_R   0.506600 0.497848 0.767337 -0.366507
C7    C     C_R   0.422271 0.482202 0.815724 0.260313
C8    C     C_R   0.427961 0.481716 0.909251 0.455068
C9    C     C_R   0.513895 0.504117 0.951660 -0.146053
C10   C     C_R   0.428823 0.577733 0.093992 0.456930
C11   C     C_R   0.421687 0.571196 0.186871 0.301582
C12   C     C_R   0.984683 0.453517 0.466081 -0.038502
C13   C     C_R   0.507170 0.499013 0.232627 -0.358914
C14   C     C_R   0.599720 0.432749 0.187441 0.258252
C15   C     C_R   0.601078 0.433822 0.094554 0.448253
C16   C     C_R   0.501402 0.499457 0.328212 1.026297
C17   C     C_R   0.515744 0.506190 0.048495 -0.215617
C18   C     C_R   0.556054 0.877146 0.568818 -0.402404
C19   C     C_R   0.548679 0.779781 0.569898 0.552286
C20   C     C_R   0.450627 0.813543 0.432442 0.328182
C21   C     C_R   0.453921 0.911947 0.431555 0.425623
C22   C     C_R   0.507818 0.944594 0.500469 -0.024316
C23   C     C_R   0.873915 0.474235 0.447107 -0.159154
C24   C     C_R   0.561272 0.085732 0.433532 0.240230
C25   C     C_R   0.547869 0.188814 0.430575 0.513188
C26   C     C_R   0.455688 0.218458 0.570387 0.372202
C27   C     C_R   0.457345 0.117081 0.571609 0.197399
C28   C     C_R   0.294583 0.556253 0.500730 0.951116
C29   C     C_R   0.511158 0.049812 0.502691 -0.076077
C30   C     C_R   0.008388 0.704214 0.422557 0.411868
C31   C     C_R   0.174726 0.593020 0.492705 -0.431042
C32   C     C_R   0.889894 0.307246 0.498851 0.389950
C33   C     C_R   0.005104 0.278913 0.495842 0.339829
C34   C     C_R   0.024682 0.533868 0.466120 -0.019862
C35   C     C_R   0.053003 0.351990 0.476406 0.400709
C36   C     C_3   0.146563 0.819571 0.513114 -0.221203
C37   C     C_3   0.759600 0.429637 0.742335 -0.217582
C38   C     C_3   0.371485 0.366471 0.978839 -0.322979
C39   C     C_3   0.379830 0.734449 0.037447 -0.290093
C40   C     C_3   0.676281 0.280986 0.027718 -0.209203
C41   C     C_3   0.558650 0.764010 0.723371 -0.180590
C42   C     C_3   0.295623 0.028800 0.383889 -0.183173
C43   C     C_3   0.517781 0.230639 0.284305 -0.149544
C44   C     C_3   0.857208 0.196203 0.596735 -0.200206
C45   C     C_R   0.963687 0.626016 0.424055 -0.224300
C46   C     C_3   0.125841 0.167056 0.588791 -0.362533
C47   C     C_R   0.862134 0.635799 0.383265 0.367198
C48   C     C_R   0.818725 0.557923 0.392870 0.417962
C49   C     C_R   0.120587 0.526511 0.512969 0.439629
C50   C     C_R   0.116113 0.685321 0.452173 0.441944
H1    H     H_    0.599208 0.900681 0.621529 0.202518
H2    H     H_    0.400342 0.317493 0.918796 0.149886
H3    H     H_    0.296857 0.354352 0.003737 0.212899
H4    H     H_    0.390227 0.766208 0.103795 0.193847
H5    H     H_    0.314294 0.793228 0.000920 0.202278
H6    H     H_    0.456483 0.716171 0.997532 0.152238
H7    H     H_    0.277198 0.677157 0.193781 0.394167
H8    H     H_    0.686438 0.380238 0.295482 0.368823
H9    H     H_    0.615767 0.292528 0.972523 0.110797
H10   H     H_    0.650993 0.246977 0.086758 0.163294
H11   H     H_    0.755128 0.226497 0.003334 0.194129
H12   H     H_    0.189115 0.873981 0.502888 0.175472
H13   H     H_    0.562398 0.707791 0.774999 0.213141
H14   H     H_    0.472044 0.816865 0.722215 0.126385
H15   H     H_    0.614956 0.803152 0.745207 0.154459
H16   H     H_    0.364766 0.737656 0.389630 0.413319
H17   H     H_    0.727143 0.734956 0.340233 0.331308
H18   H     H_    0.288935 0.071062 0.447792 0.156060
H19   H     H_    0.247375 0.978000 0.387835 0.204959
H20   H     H_    0.258802 0.084165 0.330475 0.189190
H21   H     H_    0.642731 0.952577 0.385096 0.355112
H22   H     H_    0.544154 0.266960 0.228079 0.169391
H23   H     H_    0.180952 0.776865 0.575009 0.136860
H24   H     H_    0.522172 0.155392 0.260110 0.195922
H25   H     H_    0.431190 0.277031 0.300169 0.134480
H26   H     H_    0.426127 0.248226 0.695857 0.320726
H27   H     H_    0.352961 0.138992 0.670185 0.337672
H28   H     H_    0.879211 0.821735 0.420965 0.353131
H29   H     H_    0.207205 0.476132 0.620466 0.371746
H30   H     H_    0.874217 0.246442 0.647612 0.080250
H31   H     H_    0.924748 0.122440 0.596432 0.199527
H32   H     H_    0.781519 0.183347 0.617929 0.160091
H33   H     H_    0.194165 0.252558 0.442747 0.338518
H34   H     H_    0.057686 0.863068 0.522093 0.174156
H35   H     H_    0.069098 0.195319 0.646223 0.155661
H36   H     H_    0.187289 0.204953 0.588805 0.219862
H37   H     H_    0.170577 0.085953 0.599488 0.202933
H38   H     H_    0.725229 0.594549 0.286974 0.351569
H39   H     H_    0.661496 0.571119 0.001962 0.343967
H40   H     H_    0.723623 0.380814 0.704625 0.107498
H41   H     H_    0.825203 0.439433 0.700194 0.176047
H42   H     H_    0.798103 0.392579 0.805533 0.187870
H43   H     H_    0.280461 0.462607 0.812214 0.380050
H44   H     H_    0.433682 0.343992 0.033116 0.145756
N1    N     N_R   0.500000 0.747530 0.500020 -0.210691
N2    N     N_R   0.499940 0.252470 0.500020 -0.184000
O1    O     O_R   0.499990 0.420530 0.630930 -0.565472
O2    O     O_3   0.680345 0.524642 0.759555 -0.532747
O3    O     O_3   0.335442 0.469477 0.769608 -0.744171
O4    O     O_3   0.344184 0.469020 0.959139 -0.554111
O5    O     O_3   0.347777 0.650062 0.046808 -0.560983
O6    O     O_3   0.333078 0.633673 0.235030 -0.713450
O7    O     O_3   0.690271 0.366541 0.230455 -0.664512
O8    O     O_3   0.692436 0.371352 0.049427 -0.528026
O9    O     O_3   0.593015 0.714983 0.640114 -0.539012
O10   O     O_3   0.393520 0.787539 0.364978 -0.678630
O11   O     O_3   0.807134 0.720257 0.334045 -0.728256
O12   O     O_R   0.499990 0.579480 0.630940 -0.574930
O13   O     O_3   0.405930 0.975305 0.361598 -0.570523
O14   O     O_3   0.624398 0.023476 0.367687 -0.685998
O15   O     O_3   0.588174 0.224688 0.358187 -0.518480
O16   O     O_3   0.408222 0.284773 0.638444 -0.671798
O17   O     O_3   0.405467 0.082028 0.637247 -0.778396
O18   O     O_3   0.951295 0.798431 0.390298 -0.645922
O19   O     O_3   0.158126 0.455779 0.579862 -0.687472
O20   O     O_3   0.840784 0.235701 0.509308 -0.529016
O21   O     O_3   0.163355 0.325186 0.456195 -0.708975
O22   O     O_3   0.068998 0.178963 0.506433 -0.604102
O23   O     O_R   0.653620 0.381060 0.499970 -0.582000
O24   O     O_3   0.730020 0.555815 0.342580 -0.768476
O25   O     O_3   0.681144 0.547387 0.939836 -0.683109
O26   O     O_R   0.653620 0.540010 0.499980 -0.556847
O27   O     O_R   0.500010 0.420520 0.369060 -0.611696
O28   O     O_R   0.500010 0.579470 0.369070 -0.562522
O29   O     O_R   0.346380 0.459990 0.500020 -0.539227
O30   O     O_R   0.346380 0.618940 0.500030 -0.624346
O31   O     O_3   0.164730 0.756084 0.437394 -0.538276
Zn1   Zn    Zn3+2 0.500000 0.393860 0.499990 1.058176
Zn2   Zn    Zn3+2 0.500000 0.606140 0.500010 1.027397

loop_
_geom_bond_atom_site_label_1
_geom_bond_atom_site_label_2
_ccdc_geom_bond_type
C43   H22   S    
C40   H10   S    
C22   C29   S    
H29   O19   S    
C27   C29   A    
C30   C45   A    
C26   N2    A    
C14   O7    S    
C7    C8    A    
C48   O24   S    
H7    O6    S    
C12   C23   A    
C46   O22   S    
C26   C27   A    
C7    O3    S    
C37   H40   S    
C16   O27   A    
C31   C49   A    
C44   H32   S    
C10   O5    S    
C5    C6    A    
H27   O17   S    
C5    O2    S    
C39   H4    S    
C38   H2    S    
C10   C17   A    
H21   O14   S    
C42   H20   S    
N2    Zn1   S    
C2    C32   A    
C18   C19   A    
C24   C29   A    
C39   H5    S    
C47   C48   A    
C8    C9    A    
O29   Zn1   S    
C4    O23   A    
C15   O8    S    
H38   O24   S    
H43   O3    S    
O26   Zn2   S    
C46   H35   S    
O23   Zn1   S    
C43   H24   S    
C30   C50   A    
C33   O22   S    
C40   H9    S    
C21   C22   A    
C42   H18   S    
H28   O18   S    
C43   O15   S    
H16   O10   S    
O1    Zn1   S    
C36   H12   S    
C37   O2    S    
C28   O30   A    
C18   H1    S    
C39   O5    S    
C20   O10   S    
C45   C47   A    
C43   H25   S    
C37   H41   S    
C1    C6    S    
C44   H30   S    
C24   O14   S    
C24   C25   A    
C38   O4    S    
C44   H31   S    
C36   H23   S    
C1    O1    A    
C41   H15   S    
O30   Zn2   S    
C42   H19   S    
C40   H11   S    
C2    C4    S    
C3    C9    A    
C40   O8    S    
C39   H6    S    
H26   O16   S    
C38   H44   S    
C4    O26   A    
C34   C45   A    
C32   O20   S    
C12   C35   A    
O12   Zn2   S    
C41   O9    S    
C19   O9    S    
C9    C17   S    
C49   O19   S    
C20   N1    A    
C47   O11   S    
C35   O21   S    
C36   O31   S    
C41   H13   S    
C31   C50   A    
C12   C34   A    
C26   O16   S    
C19   N1    A    
C28   O29   A    
C46   H37   S    
C30   O18   S    
C15   C17   A    
C34   C49   A    
C23   C48   A    
C37   H42   S    
C18   C22   A    
C42   O13   S    
C28   C31   S    
C3    C5    A    
C21   O13   S    
C6    C7    A    
H8    O7    S    
C27   O17   S    
C32   C33   A    
H33   O21   S    
C8    O4    S    
C11   C13   A    
H17   O11   S    
O27   Zn1   S    
C38   H3    S    
H39   O25   S    
C36   H34   S    
C33   C35   A    
O28   Zn2   S    
C11   O6    S    
C16   O28   A    
C10   C11   A    
C25   O15   S    
C1    O12   A    
C20   C21   A    
C44   O20   S    
C25   N2    A    
C13   C16   S    
C2    C23   A    
N1    Zn2   S    
C14   C15   A    
C50   O31   S    
C41   H14   S    
C13   C14   A    
C3    O25   S    
C46   H36   S    
