data_mof_unit_26973.cif
_audit_creation_date              2012-12-11T15:34:24-0500
_audit_creation_method            fapswitch 2.2
_symmetry_space_group_name_H-M    P1
_symmetry_Int_Tables_number       1
_space_group_crystal_system       triclinic
_cell_length_a                    15.0463
_cell_length_b                    15.059388
_cell_length_c                    34.912913
_cell_angle_alpha                 90.4981
_cell_angle_beta                  90.025333
_cell_angle_gamma                 60.021796
_cell_volume                      6852.17242259

loop_
_atom_site_label
_atom_site_type_symbol
_atom_type_description
_atom_site_fract_x
_atom_site_fract_y
_atom_site_fract_z
_atom_type_partial_charge
C1    C     C_R   0.302637 0.608235 0.555811 0.550186
C2    C     C_R   0.656289 0.656028 0.669898 -0.013144
C3    C     C_R   0.281838 0.610279 0.265534 -0.117422
C4    C     C_R   0.200841 0.621784 0.288918 0.023775
C5    C     C_R   0.111970 0.630841 0.272425 -0.117887
C6    C     C_R   0.101318 0.635470 0.232769 -0.115070
C7    C     C_R   0.180031 0.629667 0.209379 0.033601
C8    C     C_R   0.199843 0.560439 0.354671 -0.132736
C9    C     C_R   0.222220 0.558823 0.393521 -0.131399
C10   C     C_R   0.249163 0.703339 0.384525 -0.125044
C11   C     C_R   0.228954 0.703365 0.345707 -0.119763
C12   C     C_R   0.207855 0.629668 0.330443 0.027348
C13   C     C_R   0.567174 0.725738 0.650443 -0.094220
C14   C     C_R   0.250752 0.627989 0.408427 0.025225
C15   C     C_R   0.736246 0.024766 0.943076 0.542086
C16   C     C_R   0.745610 0.722701 0.945194 0.545389
C17   C     C_R   0.038111 0.734105 0.948254 0.535789
C18   C     C_R   0.722967 0.038933 0.052818 0.544262
C19   C     C_R   0.733431 0.734312 0.054713 0.546059
C20   C     C_R   0.028647 0.743981 0.057676 0.549506
C21   C     C_R   0.555238 0.712061 0.611518 0.260427
C22   C     C_R   0.668986 0.668760 0.789383 0.343592
C23   C     C_R   0.662414 0.662551 0.711831 0.347946
C24   C     C_R   0.757525 0.594494 0.851099 -0.123188
C25   C     C_R   0.775278 0.606960 0.889377 -0.131132
C26   C     C_R   0.626705 0.777890 0.889535 -0.134523
C27   C     C_R   0.608877 0.765359 0.851244 -0.124565
C28   C     C_R   0.676759 0.675223 0.831247 0.033823
C29   C     C_R   0.610736 0.588753 0.555253 0.553648
C30   C     C_R   0.712669 0.700450 0.908424 0.022353
C31   C     C_R   0.724873 0.068375 0.904489 0.021705
C32   C     C_R   0.641159 0.084373 0.881707 -0.124818
C33   C     C_R   0.641521 0.100673 0.842550 -0.118517
C34   C     C_R   0.724612 0.103004 0.825526 0.028115
C35   C     C_R   0.804664 0.095072 0.848510 -0.122412
C36   C     C_R   0.805158 0.077217 0.887762 -0.126318
C37   C     C_R   0.740187 0.187157 0.766726 -0.113008
C38   C     C_R   0.731443 0.200132 0.727106 -0.112793
C39   C     C_R   0.711965 0.134993 0.703928 0.023624
C40   C     C_R   0.590618 0.299978 0.553484 0.547051
C41   C     C_R   0.707723 0.052865 0.720658 -0.099535
C42   C     C_R   0.714897 0.040855 0.760286 -0.110535
C43   C     C_R   0.728532 0.109525 0.783609 0.022183
C44   C     C_R   0.593938 0.175678 0.647224 -0.000184
C45   C     C_R   0.566126 0.214988 0.610278 -0.133254
C46   C     C_R   0.725395 0.216849 0.603615 -0.132178
C47   C     C_R   0.754098 0.176954 0.640311 -0.141246
C48   C     C_R   0.687746 0.158994 0.662953 0.014525
C49   C     C_R   0.629608 0.239538 0.588794 0.007185
C50   C     C_R   0.090472 0.698222 0.910900 0.020672
C51   C     C_R   0.300596 0.610145 0.445955 0.540298
C52   C     C_R   0.114629 0.762418 0.889741 -0.126028
C53   C     C_R   0.136470 0.744737 0.850774 -0.118450
C54   C     C_R   0.136263 0.661734 0.832423 0.030205
C55   C     C_R   0.121978 0.591837 0.854070 -0.118309
C56   C     C_R   0.098768 0.610168 0.893104 -0.125641
C57   C     C_R   0.214889 0.563359 0.772018 -0.109361
C58   C     C_R   0.224249 0.559872 0.732167 -0.108651
C59   C     C_R   0.160229 0.646581 0.710265 0.058654
C60   C     C_R   0.083604 0.735064 0.728640 -0.066397
C61   C     C_R   0.075292 0.739038 0.768421 -0.109168
C62   C     C_R   0.607847 0.589778 0.445239 0.539177
C63   C     C_R   0.142222 0.653958 0.790385 0.027388
C64   C     C_R   0.191566 0.725518 0.652588 0.275859
C65   C     C_R   0.226860 0.714433 0.614626 -0.105855
C66   C     C_R   0.226523 0.554455 0.608021 -0.146627
C67   C     C_R   0.193324 0.563583 0.645858 -0.173111
C68   C     C_R   0.179184 0.646746 0.668761 0.038536
C69   C     C_R   0.246932 0.628064 0.592492 -0.023590
C70   C     C_R   0.692276 0.717596 0.090566 -0.030039
C71   C     C_R   0.604293 0.797865 0.107976 -0.158237
C72   C     C_R   0.577458 0.787853 0.145297 -0.172531
C73   C     C_R   0.587416 0.303813 0.443470 0.545060
C74   C     C_R   0.638360 0.697809 0.165906 0.028257
C75   C     C_R   0.724375 0.615316 0.147921 0.264097
C76   C     C_R   0.748987 0.624930 0.110186 -0.108228
C77   C     C_R   0.620111 0.609941 0.223359 -0.074717
C78   C     C_R   0.621185 0.599544 0.263023 -0.108745
C79   C     C_R   0.622063 0.674197 0.287110 0.027461
C80   C     C_R   0.616195 0.762029 0.271215 -0.116474
C81   C     C_R   0.615750 0.772175 0.231528 -0.128804
C82   C     C_R   0.620411 0.694915 0.207321 0.038185
C83   C     C_R   0.548168 0.731442 0.352069 -0.138259
C84   C     C_R   0.631759 0.623731 0.592087 0.016992
C85   C     C_R   0.545313 0.712917 0.390974 -0.134921
C86   C     C_R   0.708607 0.555539 0.384912 -0.130454
C87   C     C_R   0.711607 0.573330 0.345855 -0.000711
C88   C     C_R   0.628834 0.660038 0.328924 0.013194
C89   C     C_R   0.623536 0.622718 0.407411 0.006736
C90   C     C_R   0.698675 0.103541 0.087473 0.017880
C91   C     C_R   0.773070 0.122883 0.103542 -0.120301
C92   C     C_R   0.759093 0.165142 0.140208 -0.115332
C93   C     C_R   0.670542 0.188812 0.161331 0.029754
C94   C     C_R   0.592206 0.178081 0.143967 -0.119108
C95   C     C_R   0.724490 0.559573 0.610904 -0.180265
C96   C     C_R   0.606128 0.135792 0.107284 -0.128245
C97   C     C_R   0.574320 0.283561 0.220306 -0.120667
C98   C     C_R   0.567028 0.292148 0.260123 -0.079936
C99   C     C_R   0.651065 0.226499 0.282890 0.061412
C100  C     C_R   0.744037 0.156063 0.265431 -0.113553
C101  C     C_R   0.751491 0.147632 0.225684 -0.110050
C102  C     C_R   0.666100 0.209822 0.202803 0.028843
C103  C     C_R   0.712745 0.244591 0.346659 -0.175845
C104  C     C_R   0.700233 0.259262 0.386089 -0.144012
C105  C     C_R   0.551085 0.237912 0.383260 -0.115584
C106  C     C_R   0.736684 0.575651 0.649359 -0.144791
C107  C     C_R   0.560800 0.226705 0.343164 0.276298
C108  C     C_R   0.641828 0.231452 0.324902 0.039302
C109  C     C_R   0.616940 0.260093 0.404549 -0.021447
C110  C     C_R   0.088802 0.703736 0.093097 0.002619
C111  C     C_R   0.091048 0.618912 0.110529 -0.183941
C112  C     C_R   0.127999 0.591145 0.147421 -0.164020
C113  C     C_R   0.161938 0.648355 0.168073 -0.033144
C114  C     C_R   0.167125 0.729384 0.150053 0.007640
C115  C     C_R   0.135296 0.753868 0.111832 0.256468
C116  C     C_R   0.271873 0.613203 0.225882 -0.103662
Cr1   Cr    Cr6+3 0.421670 0.426920 0.499620 1.007986
Cr2   Cr    Cr6+3 0.427030 0.651190 0.500980 1.026153
Cr3   Cr    Cr6+3 0.651280 0.421870 0.499380 1.008347
Cr4   Cr    Cr6+3 0.910810 0.908010 0.001130 1.022538
Cr5   Cr    Cr6+3 0.682800 0.909890 0.998370 1.009110
Cr6   Cr    Cr6+3 0.908370 0.682300 0.002180 1.006796
H1    H     H_    0.785635 0.492802 0.596627 0.139987
H2    H     H_    0.870845 0.064931 0.904541 0.123143
H3    H     H_    0.826547 0.164083 0.651725 0.104032
H4    H     H_    0.735108 0.263940 0.714723 0.120439
H5    H     H_    0.751034 0.240565 0.784321 0.115576
H6    H     H_    0.578190 0.108517 0.825273 0.118007
H7    H     H_    0.695217 0.000349 0.703188 0.122040
H8    H     H_    0.707668 0.979249 0.772880 0.121064
H9    H     H_    0.491921 0.232092 0.599226 0.126501
H10   H     H_    0.869132 0.097327 0.835776 0.105703
H11   H     H_    0.776251 0.234383 0.587594 0.127127
H12   H     H_    0.109526 0.830558 0.902577 0.127426
H13   H     H_    0.080655 0.559258 0.908652 0.125415
H14   H     H_    0.182464 0.503486 0.657789 0.120540
H15   H     H_    0.284093 0.490853 0.718558 0.119978
H16   H     H_    0.266714 0.496904 0.788568 0.113704
H17   H     H_    0.149105 0.798472 0.834541 0.115523
H18   H     H_    0.031726 0.801828 0.712260 0.119190
H19   H     H_    0.017111 0.808906 0.782149 0.109950
H20   H     H_    0.841623 0.545538 0.903302 0.129271
H21   H     H_    0.244855 0.770294 0.603324 0.152507
H22   H     H_    0.122068 0.527045 0.840311 0.110713
H23   H     H_    0.241334 0.487012 0.591618 0.136783
H24   H     H_    0.558925 0.870113 0.093483 0.139339
H25   H     H_    0.816671 0.561539 0.097255 0.140371
H26   H     H_    0.623157 0.532425 0.274977 0.112495
H27   H     H_    0.622328 0.550204 0.205184 0.144079
H28   H     H_    0.511457 0.852062 0.158715 0.125811
H29   H     H_    0.615712 0.820750 0.289502 0.119270
H30   H     H_    0.807267 0.521779 0.663426 0.143113
H31   H     H_    0.616762 0.837953 0.219730 0.113285
H32   H     H_    0.484480 0.798834 0.339574 0.113669
H33   H     H_    0.478811 0.766250 0.407613 0.124644
H34   H     H_    0.770187 0.486064 0.397203 0.130431
H35   H     H_    0.844659 0.100065 0.088736 0.142156
H36   H     H_    0.547149 0.122453 0.095521 0.128017
H37   H     H_    0.495523 0.349144 0.273193 0.112406
H38   H     H_    0.507884 0.333023 0.203213 0.101447
H39   H     H_    0.504442 0.788964 0.665660 0.147543
H40   H     H_    0.819766 0.174413 0.152844 0.119173
H41   H     H_    0.809735 0.105215 0.282595 0.110970
H42   H     H_    0.822649 0.089050 0.212916 0.116447
H43   H     H_    0.775093 0.248586 0.332827 0.126213
H44   H     H_    0.752463 0.275959 0.401716 0.141433
H45   H     H_    0.523402 0.195266 0.159759 0.109435
H46   H     H_    0.489071 0.234430 0.397524 0.124840
H47   H     H_    0.058931 0.576894 0.096517 0.141138
H48   H     H_    0.233695 0.758360 0.327256 0.117263
H49   H     H_    0.810156 0.523378 0.836633 0.131333
H50   H     H_    0.351768 0.601243 0.278060 0.108532
H51   H     H_    0.334130 0.606284 0.208146 0.108650
H52   H     H_    0.124708 0.528147 0.160715 0.114967
H53   H     H_    0.049255 0.639162 0.290232 0.111447
H54   H     H_    0.029955 0.648006 0.220385 0.105541
H55   H     H_    0.182359 0.504085 0.343060 0.102934
H56   H     H_    0.222813 0.500060 0.411366 0.117027
H57   H     H_    0.271023 0.757509 0.395120 0.127842
H58   H     H_    0.576666 0.850604 0.903572 0.126237
H59   H     H_    0.545170 0.828495 0.836850 0.133213
H60   H     H_    0.578067 0.078138 0.893615 0.129012
N1    N     N_R   0.743884 0.588751 0.769337 -0.239448
N2    N     N_R   0.740482 0.585538 0.731341 -0.235305
N3    N     N_R   0.587322 0.742527 0.731862 -0.231251
N4    N     N_R   0.590833 0.745838 0.769887 -0.232556
O1    O     O_R   0.502070 0.323090 0.541280 -0.519868
O2    O     O_R   0.520720 0.641670 0.461580 -0.508890
O3    O     O_R   0.674120 0.502090 0.457500 -0.522027
O4    O     O_R   0.640110 0.338380 0.459630 -0.500718
O5    O     O_3   0.499990 0.499990 0.499990 -0.238010
O6    O     O_R   0.017640 0.822070 0.960410 -0.527448
O7    O     O_R   0.822000 0.989470 0.960340 -0.502692
O8    O     O_R   0.666920 0.007430 0.955290 -0.521259
O9    O     O_R   0.694410 0.812480 0.959650 -0.503809
O10   O     O_R   0.831550 0.656950 0.958960 -0.519367
O11   O     O_R   0.998590 0.685540 0.963930 -0.502344
O12   O     O_R   0.338340 0.520690 0.539540 -0.501078
O13   O     O_R   0.008220 0.831200 0.045060 -0.471463
O14   O     O_R   0.813270 0.997930 0.038810 -0.497964
O15   O     O_R   0.657500 0.016560 0.039940 -0.520676
O16   O     O_R   0.685680 0.820940 0.038120 -0.498456
O17   O     O_R   0.822130 0.666070 0.043610 -0.521876
O18   O     O_R   0.989860 0.694000 0.042400 -0.513929
O19   O     O_3   0.833990 0.833400 0.000560 -0.236009
O20   O     O_R   0.324760 0.674070 0.543580 -0.501698
O21   O     O_R   0.522400 0.640310 0.540110 -0.454594
O22   O     O_R   0.675940 0.500630 0.542210 -0.529723
O23   O     O_R   0.641790 0.337020 0.538150 -0.500040
O24   O     O_R   0.500260 0.324550 0.456580 -0.521557
O25   O     O_R   0.336660 0.522040 0.461020 -0.503109
O26   O     O_R   0.322940 0.675540 0.458880 -0.524724
C117  C     C_1   0.520727 0.161708 0.669312 0.171557
N5    N     N_1   0.461973 0.150554 0.686947 -0.317196
O27   O     O_3   0.463059 0.779066 0.594329 -0.560049
C118  C     C_3   0.473474 0.854658 0.574231 0.013603
H61   H     H_    0.418813 0.879770 0.549913 0.151336
H62   H     H_    0.551314 0.825091 0.561339 0.111243
C119  C     C_3   0.445577 0.947850 0.600144 -0.274665
H63   H     H_    0.368261 0.975832 0.612851 0.169930
H64   H     H_    0.501989 0.925626 0.623770 0.164850
C120  C     C_3   0.445356 0.034691 0.577872 -0.475100
H65   H     H_    0.522726 0.009219 0.565707 0.150276
H66   H     H_    0.424345 0.100896 0.597411 0.160001
H67   H     H_    0.388444 0.059912 0.554313 0.141815
O28   O     O_3   0.185654 0.803359 0.675998 -0.564422
C121  C     C_3   0.119473 0.901602 0.660598 -0.005003
H68   H     H_    0.058194 0.945832 0.682091 0.144590
H69   H     H_    0.079509 0.900971 0.633710 0.108490
C122  C     C_3   0.179661 0.957345 0.653970 -0.253601
H70   H     H_    0.213283 0.963713 0.681505 0.185547
H71   H     H_    0.243510 0.912772 0.633478 0.182752
C123  C     C_3   0.110948 0.064522 0.638096 -0.490550
H72   H     H_    0.078363 0.059826 0.610095 0.145401
H73   H     H_    0.156762 0.102969 0.633820 0.150263
H74   H     H_    0.047348 0.111243 0.658440 0.147096
C124  C     C_1   0.799427 0.500381 0.323748 0.176019
N6    N     N_1   0.870059 0.441595 0.306230 -0.345533
O29   O     O_3   0.786226 0.525438 0.167276 -0.582030
C125  C     C_3   0.868007 0.532053 0.184252 0.001841
H75   H     H_    0.838467 0.599858 0.203870 0.143956
H76   H     H_    0.917636 0.537894 0.161881 0.123180
C126  C     C_3   0.932734 0.435285 0.207510 -0.241002
H77   H     H_    0.882404 0.424901 0.228073 0.208149
H78   H     H_    0.968147 0.367599 0.187931 0.166301
C127  C     C_3   0.017141 0.441348 0.229604 -0.468663
H79   H     H_    0.070093 0.448815 0.209504 0.132847
H80   H     H_    0.061793 0.370368 0.246452 0.162130
H81   H     H_    0.983307 0.507965 0.249673 0.161386
O30   O     O_3   0.497917 0.202680 0.321559 -0.571003
C128  C     C_3   0.392319 0.272932 0.328022 -0.003788
H82   H     H_    0.357341 0.307187 0.300033 0.146817
H83   H     H_    0.376243 0.338592 0.347458 0.118904
C129  C     C_3   0.340320 0.215115 0.343215 -0.259887
H84   H     H_    0.350001 0.155484 0.321964 0.177018
H85   H     H_    0.377302 0.176260 0.370361 0.160675
C130  C     C_3   0.226078 0.286999 0.350519 -0.482115
H86   H     H_    0.214849 0.343188 0.373485 0.141490
H87   H     H_    0.190192 0.241824 0.359901 0.153815
H88   H     H_    0.187519 0.328476 0.323949 0.151611
O31   O     O_3   0.140789 0.833636 0.094625 -0.550262
C131  C     C_3   0.222891 0.793603 0.067860 0.023398
H89   H     H_    0.205682 0.854352 0.046516 0.159264
H90   H     H_    0.230562 0.726270 0.051376 0.113671
C132  C     C_3   0.324589 0.766138 0.087534 -0.273845
H91   H     H_    0.315698 0.833510 0.104089 0.188743
H92   H     H_    0.345849 0.701919 0.107665 0.156336
C133  C     C_3   0.411205 0.733645 0.058391 -0.481827
H93   H     H_    0.421102 0.666656 0.041337 0.149953
H94   H     H_    0.484056 0.711607 0.073586 0.165337
H95   H     H_    0.394377 0.797918 0.038830 0.145817
C134  C     C_1   0.198223 0.792649 0.171014 0.222342
N7    N     N_1   0.223108 0.843264 0.187740 -0.312878

loop_
_geom_bond_atom_site_label_1
_geom_bond_atom_site_label_2
_ccdc_geom_bond_type
C7    C116  A    
C80   H29   S    
C96   H36   S    
C87   C88   A    
C22   N4    A    
C101  C102  A    
C87   C124  S    
C21   C84   A    
C52   H12   S    
C41   C42   A    
C75   O29   S    
C25   H20   S    
O27   C118  S    
C118  C119  S    
Cr5   O19   S    
C55   C56   A    
C131  C132  S    
C64   O28   S    
C97   C98   A    
N3    N4    A    
Cr2   O21   S    
C128  H82   S    
C39   C41   A    
C40   O1    A    
C77   C78   A    
C52   C53   A    
C99   C108  S    
C105  C107  A    
C46   C49   A    
C26   C27   A    
C37   C38   A    
C29   O22   A    
C116  H51   S    
C5    C6    A    
C10   H57   S    
C64   C68   A    
C32   H60   S    
Cr1   O24   S    
C36   H2    S    
C103  H43   S    
C118  H62   S    
Cr5   O16   S    
C130  H86   S    
C3    C116  A    
Cr4   O6    S    
C14   C51   S    
O31   C131  S    
C65   H21   S    
C3    H50   S    
C128  H83   S    
C66   C69   A    
C119  C120  S    
C54   C63   S    
C95   H1    S    
C40   C49   S    
C98   C99   A    
C62   C89   S    
Cr4   O13   S    
C81   H31   S    
C15   C31   S    
C122  C123  S    
Cr2   O26   S    
C34   C35   A    
C85   H33   S    
Cr6   O18   S    
C2    C13   A    
C24   H49   S    
C86   H34   S    
C110  C111  A    
C79   C88   S    
C66   H23   S    
C129  H85   S    
Cr1   O5    S    
C41   H7    S    
C54   C55   A    
C15   O8    A    
C51   O26   A    
C37   H5    S    
O29   C125  S    
C76   H25   S    
C8    C9    A    
C126  H78   S    
C47   C48   A    
C50   C52   A    
C107  C108  A    
C21   O27   S    
C17   O11   A    
C103  C108  A    
C4    C12   S    
C115  O31   S    
C123  H72   S    
C131  H89   S    
C97   C102  A    
C107  O30   S    
C78   H26   S    
C29   O21   A    
C27   C28   A    
C1    O12   A    
C1    C69   S    
C83   C88   A    
C123  H74   S    
C59   C60   A    
C22   C28   S    
C124  N6    T    
C5    H53   S    
Cr6   O19   S    
C122  H70   S    
C35   C36   A    
C74   C82   S    
C8    H55   S    
C19   O17   A    
C112  C113  A    
C38   H4    S    
C57   C63   A    
C62   O3    A    
C57   C58   A    
C101  H42   S    
C17   O6    A    
C38   C39   A    
C47   H3    S    
C127  H80   S    
Cr3   O23   S    
C45   H9    S    
C106  H30   S    
C74   C75   A    
C67   C68   A    
C18   C90   S    
C97   H38   S    
C24   C28   A    
C73   O24   A    
Cr1   O25   S    
C44   C48   A    
C24   C25   A    
C20   O18   A    
C29   C84   S    
C72   C74   A    
Cr1   O1    S    
C114  C115  A    
C77   H27   S    
C91   C92   A    
C83   H32   S    
C9    C14   A    
Cr2   O2    S    
C78   C79   A    
C134  N7    T    
C128  C129  S    
C131  H90   S    
C129  C130  S    
C58   C59   A    
C117  N5    T    
C40   O23   A    
C2    C106  A    
C19   O16   A    
C81   C82   A    
C44   C117  S    
C60   C61   A    
C111  H47   S    
C84   C95   A    
Cr6   O17   S    
C37   C43   A    
C17   C50   S    
C94   C96   A    
C75   C76   A    
C27   H59   S    
N1    N2    A    
C22   N1    A    
C16   O10   A    
C95   C106  A    
C59   C68   S    
C119  H64   S    
C123  H73   S    
Cr2   O5    S    
C121  H68   S    
C133  H95   S    
C45   C49   A    
C20   O13   A    
C8    C12   A    
C126  C127  S    
C71   H24   S    
C125  H76   S    
C33   C34   A    
C13   C21   A    
C42   H8    S    
C93   C94   A    
C46   C47   A    
C118  H61   S    
C13   H39   S    
C1    O20   A    
C132  H92   S    
C70   C71   A    
C60   H18   S    
C20   C110  S    
C58   H15   S    
C61   H19   S    
C83   C85   A    
C133  H94   S    
C26   C30   A    
C94   H45   S    
C72   H28   S    
C18   O14   A    
C122  H71   S    
Cr4   O19   S    
C53   C54   A    
C3    C4    A    
Cr6   O10   S    
Cr5   O8    S    
C103  C104  A    
C56   H13   S    
C44   C45   A    
C62   O2    A    
C113  C114  A    
C132  H91   S    
C92   H40   S    
C25   C30   A    
C119  H63   S    
C105  C109  A    
C127  H79   S    
C120  H66   S    
C85   C89   A    
C55   H22   S    
C111  C112  A    
C121  H69   S    
C112  H52   S    
C86   C87   A    
C73   O4    A    
C31   C32   A    
C34   C43   S    
Cr3   O3    S    
C125  C126  S    
Cr3   O5    S    
C80   C81   A    
C86   C89   A    
C114  C134  S    
C93   C102  S    
C11   C12   A    
C90   C96   A    
C6    C7    A    
C26   H58   S    
C100  H41   S    
Cr4   O7    S    
C120  H67   S    
C105  H46   S    
C130  H88   S    
C64   C65   A    
C7    C113  S    
C129  H84   S    
C67   H14   S    
O30   C128  S    
Cr5   O15   S    
C23   N2    A    
C16   O9    A    
C99   C100  A    
C32   C33   A    
C46   H11   S    
C70   C76   A    
Cr2   O20   S    
C90   C91   A    
C104  C109  A    
C6    H54   S    
C77   C82   A    
C65   C69   A    
C35   H10   S    
Cr3   O4    S    
C92   C93   A    
Cr4   O14   S    
C57   H16   S    
C66   C67   A    
C18   O15   A    
C23   N3    A    
C73   C109  S    
C33   H6    S    
Cr6   O11   S    
C120  H65   S    
C132  C133  S    
C50   C56   A    
C91   H35   S    
C53   H17   S    
C10   C11   A    
Cr1   O12   S    
C104  H44   S    
C79   C80   A    
C15   O7    A    
C51   O25   A    
C4    C5    A    
C121  C122  S    
C71   C72   A    
C98   H37   S    
C11   H48   S    
O28   C121  S    
C42   C43   A    
C2    C23   S    
C125  H75   S    
C31   C36   A    
C39   C48   S    
C19   C70   S    
C100  C101  A    
Cr3   O22   S    
C130  H87   S    
C16   C30   S    
C110  C115  A    
Cr5   O9    S    
C9    H56   S    
C126  H77   S    
C10   C14   A    
C133  H93   S    
C61   C63   A    
C127  H81   S    
