data_mof_unit_53347.cif
_audit_creation_date              2012-12-10T17:12:38-0500
_audit_creation_method            fapswitch 2.2
_symmetry_space_group_name_H-M    P1
_symmetry_Int_Tables_number       1
_space_group_crystal_system       triclinic
_cell_length_a                    23.415842
_cell_length_b                    10.514625
_cell_length_c                    10.075349
_cell_angle_alpha                 88.692594
_cell_angle_beta                  89.081271
_cell_angle_gamma                 89.917437
_cell_volume                      2479.67352392

loop_
_atom_site_label
_atom_site_type_symbol
_atom_type_description
_atom_site_fract_x
_atom_site_fract_y
_atom_site_fract_z
_atom_type_partial_charge
C1    C     C_R   0.512539 0.266670 0.501511 0.851342
C2    C     C_R   0.971659 0.259725 0.517099 0.302039
C3    C     C_R   0.030742 0.262618 0.529563 -0.202295
C4    C     C_R   0.059701 0.377670 0.543720 -0.046348
C5    C     C_R   0.029063 0.492653 0.549416 -0.067950
C6    C     C_R   0.058393 0.609299 0.562075 -0.151265
C7    C     C_R   0.026903 0.723483 0.575178 0.506827
C8    C     C_R   0.967707 0.721142 0.564469 -0.203361
C9    C     C_R   0.119177 0.380665 0.548693 0.563028
C10   C     C_R   0.118362 0.607567 0.557837 0.588225
C11   C     C_R   0.241577 0.529218 0.646801 0.343345
C12   C     C_R   0.389237 0.498145 0.501496 0.905397
C13   C     C_R   0.300489 0.531231 0.630596 -0.326457
C14   C     C_R   0.326575 0.497327 0.509431 -0.167063
C15   C     C_R   0.292015 0.459423 0.403848 0.292829
C16   C     C_R   0.232960 0.461164 0.419579 -0.169908
C17   C     C_R   0.207711 0.495541 0.540088 0.185830
C18   C     C_R   0.759380 0.450388 0.617546 -0.153360
C19   C     C_R   0.700352 0.451719 0.613830 -0.261330
C20   C     C_R   0.672633 0.498387 0.500372 -0.098984
C21   C     C_R   0.704587 0.541491 0.389530 -0.216173
C22   C     C_R   0.763988 0.538499 0.392303 0.319777
C23   C     C_R   0.498496 0.740193 0.497974 0.825621
C24   C     C_R   0.791279 0.493978 0.507499 0.233255
C25   C     C_2   0.534361 0.935646 0.394215 0.376095
C26   C     C_2   0.499956 0.879586 0.489158 0.214270
C27   C     C_2   0.547238 0.074253 0.397612 0.329950
C28   C     C_2   0.536806 0.138578 0.509054 0.199218
C29   C     C_2   0.538259 0.556134 0.923740 0.593220
C30   C     C_2   0.544655 0.514838 0.068068 0.275161
C31   C     C_R   0.610508 0.500838 0.499409 0.837935
C32   C     C_R   0.879519 0.605082 0.534440 0.599089
C33   C     C_R   0.880127 0.379507 0.509151 0.566236
C34   C     C_R   0.939883 0.374747 0.521951 -0.074018
C35   C     C_R   0.969134 0.491104 0.539921 -0.056856
C36   C     C_R   0.938703 0.606618 0.546216 -0.086552
H1    H     H_    0.676452 0.415345 0.699363 0.165539
H2    H     H_    0.683610 0.578400 0.301802 0.211877
H3    H     H_    0.054185 0.173846 0.524925 0.225823
H4    H     H_    0.944542 0.810030 0.570415 0.232688
H5    H     H_    0.325829 0.558088 0.714328 0.199918
H6    H     H_    0.206218 0.433067 0.338542 0.191798
H7    H     H_    0.780548 0.415346 0.705933 0.164347
N1    N     N_R   0.851953 0.493160 0.514871 -0.350050
N2    N     N_R   0.146999 0.494446 0.552538 -0.340660
N3    N     N_2   0.500610 0.501330 0.852150 0.022608
N4    N     N_2   0.500630 0.501360 0.147810 0.017684
O1    O     O_R   0.499990 0.319060 0.613040 -0.637017
O2    O     O_2   0.849798 0.272728 0.491301 -0.509181
O3    O     O_2   0.149278 0.271045 0.547295 -0.533478
O4    O     O_2   0.148136 0.717384 0.555396 -0.491042
O5    O     O_R   0.500010 0.319100 0.386900 -0.549485
O6    O     O_R   0.416150 0.499940 0.613100 -0.677554
O7    O     O_R   0.416160 0.499980 0.386960 -0.521278
O8    O     O_R   0.499990 0.680900 0.613100 -0.607504
O9    O     O_R   0.500010 0.680940 0.386960 -0.566943
O10   O     O_R   0.583840 0.500020 0.613040 -0.640484
O11   O     O_R   0.583850 0.500060 0.386900 -0.575896
O12   O     O_2   0.849425 0.714336 0.543017 -0.520401
Zn1   Zn    Zn3+2 0.499990 0.499970 0.650990 0.963992
Zn2   Zn    Zn3+2 0.500010 0.500030 0.349010 1.081469
Br1   Br    Br    0.939813 0.093569 0.490597 -0.416531
Br2   Br    Br    0.806632 0.593352 0.237634 -0.489635
O13   O     O_3   0.556715 0.863072 0.292064 -0.667178
C37   C     C_3   0.531311 0.893019 0.167359 0.120562
H8    H     H_    0.543402 0.814418 0.100898 0.160838
H9    H     H_    0.550759 0.978279 0.118801 0.156727
C38   C     C_3   0.465169 0.900652 0.165734 -0.384518
H10   H     H_    0.451373 0.875481 0.064593 0.206533
H11   H     H_    0.445553 0.830822 0.236584 0.270844
C39   C     C_3   0.441288 0.033131 0.193029 -0.797854
H12   H     H_    0.438968 0.050931 0.300836 0.284747
H13   H     H_    0.397085 0.040173 0.155241 0.254155
H14   H     H_    0.467827 0.107831 0.143069 0.279044
O14   O     O_3   0.456941 0.953484 0.547150 -0.678435
C40   C     C_3   0.443130 0.918361 0.680004 0.152364
H15   H     H_    0.437146 0.007842 0.735218 0.175179
H16   H     H_    0.477876 0.866800 0.732700 0.182329
C41   C     C_3   0.386423 0.846177 0.686057 -0.388751
H17   H     H_    0.352447 0.906940 0.641933 0.251438
H18   H     H_    0.389799 0.758341 0.627531 0.228883
C42   C     C_3   0.369507 0.810936 0.828812 -0.871568
H19   H     H_    0.401667 0.744982 0.871468 0.284170
H20   H     H_    0.327273 0.763109 0.831101 0.296849
H21   H     H_    0.366572 0.897458 0.889869 0.260176
O15   O     O_3   0.565101 0.140257 0.283627 -0.634168
C43   C     C_3   0.623815 0.115467 0.257584 0.088221
H22   H     H_    0.632856 0.146925 0.153621 0.201608
H23   H     H_    0.634836 0.012666 0.262851 0.160398
C44   C     C_3   0.662733 0.188157 0.350154 -0.426803
H24   H     H_    0.646040 0.285610 0.362086 0.265536
H25   H     H_    0.663162 0.139270 0.448865 0.203912
C45   C     C_3   0.723852 0.195355 0.295914 -0.759102
H26   H     H_    0.741540 0.098216 0.283332 0.268080
H27   H     H_    0.750736 0.246808 0.366616 0.299205
H28   H     H_    0.725218 0.247726 0.198905 0.276633
O16   O     O_3   0.545956 0.079304 0.631949 -0.670856
C46   C     C_3   0.586369 0.147796 0.705139 0.092135
H29   H     H_    0.563754 0.214814 0.771623 0.212741
H30   H     H_    0.617134 0.202938 0.640788 0.105379
C47   C     C_3   0.619864 0.054579 0.792122 -0.351206
H31   H     H_    0.590173 0.010279 0.866833 0.214082
H32   H     H_    0.638405 0.978395 0.729897 0.238927
C48   C     C_3   0.667974 0.121601 0.863260 -0.946794
H33   H     H_    0.700089 0.158915 0.789976 0.281609
H34   H     H_    0.689387 0.053304 0.931910 0.267796
H35   H     H_    0.650745 0.201897 0.921372 0.281384
O17   O     O_3   0.563150 0.667771 0.875119 -0.688265
C49   C     C_3   0.623138 0.655686 0.863638 0.089020
H36   H     H_    0.636079 0.695438 0.764536 0.183863
H37   H     H_    0.638747 0.555515 0.866274 0.153740
C50   C     C_3   0.652318 0.733664 0.969701 -0.420399
H38   H     H_    0.638036 0.833987 0.961773 0.217147
H39   H     H_    0.640160 0.697260 0.070380 0.256043
C51   C     C_3   0.717148 0.729069 0.953540 -0.807805
H40   H     H_    0.732602 0.629418 0.963525 0.291396
H41   H     H_    0.737020 0.786478 0.031554 0.283062
H42   H     H_    0.730400 0.768938 0.854741 0.263635
O18   O     O_3   0.483322 0.387495 0.904372 -0.611621
C52   C     C_3   0.426776 0.364636 0.865282 0.250422
H43   H     H_    0.425805 0.328600 0.763908 0.191923
H44   H     H_    0.399710 0.451474 0.872423 0.169544
C53   C     C_3   0.401230 0.258896 0.953218 -0.426941
H45   H     H_    0.426179 0.170273 0.938074 0.212719
H46   H     H_    0.404139 0.285211 0.058858 0.296481
C54   C     C_3   0.339023 0.233780 0.919065 -0.840645
H47   H     H_    0.312951 0.321115 0.931964 0.309247
H48   H     H_    0.321577 0.157357 0.985842 0.280463
H49   H     H_    0.335931 0.202671 0.814770 0.253524
Br3   Br    Br    0.614459 0.431614 0.113194 -0.601228
Br4   Br    Br    0.433384 0.589882 0.099982 -0.487291
O19   O     O_3   0.053283 0.839571 0.592318 -0.582252
C55   C     C_3   0.064110 0.856418 0.728828 0.157224
H50   H     H_    0.105606 0.906785 0.735665 0.213532
H51   H     H_    0.068795 0.765285 0.786998 0.134627
C56   C     C_3   0.017561 0.939071 0.791704 -0.412891
H52   H     H_    0.014517 0.030756 0.735273 0.261824
H53   H     H_    0.975719 0.889843 0.787759 0.237824
C57   C     C_3   0.030585 0.966307 0.936204 -0.830370
H54   H     H_    0.032992 0.876027 0.995320 0.274136
H55   H     H_    0.996107 0.026223 0.978847 0.282207
H56   H     H_    0.071731 0.018056 0.942859 0.271249
Br5   Br    Br    0.209021 0.568425 0.816932 -0.487114
Br6   Br    Br    0.320901 0.393498 0.240583 -0.460649

loop_
_geom_bond_atom_site_label_1
_geom_bond_atom_site_label_2
_ccdc_geom_bond_type
C28   O16   S    
C43   H22   S    
C9    N2    A    
C45   H26   S    
C11   C13   A    
C35   C36   A    
C40   C41   S    
C13   H5    S    
O16   C46   S    
C53   H45   S    
C54   H47   S    
C18   C24   A    
C32   C36   A    
C31   O11   A    
C17   N2    S    
C18   C19   A    
O5    Zn2   S    
C49   H37   S    
C5    C6    A    
C57   H56   S    
C53   H46   S    
C33   O2    S    
C15   C16   A    
O17   C49   S    
C34   C35   A    
C8    C36   A    
C23   C26   S    
C50   H38   S    
C19   H1    S    
C39   H14   S    
C22   Br2   S    
C38   H10   S    
C21   H2    S    
C19   C20   A    
C16   C17   A    
C51   H41   S    
C1    C28   S    
C29   O17   S    
C12   O6    A    
C52   C53   S    
O8    Zn1   S    
C2    C34   A    
O11   Zn2   S    
C3    H3    S    
C45   H27   S    
C13   C14   A    
C56   C57   S    
C10   O4    S    
C48   H34   S    
C48   H33   S    
O6    Zn1   S    
C52   H44   S    
O1    Zn1   S    
C47   H31   S    
C30   N4    D    
C23   O9    A    
C37   C38   S    
C40   H15   S    
C56   H53   S    
C49   C50   S    
C39   H13   S    
O15   C43   S    
O19   C55   S    
C53   C54   S    
C54   H49   S    
C37   H9    S    
C25   C26   D    
C30   Br3   S    
C42   H19   S    
C41   H17   S    
N4    Br4   S    
C25   O13   S    
C27   O15   S    
O14   C40   S    
N4    Zn2   S    
C29   C30   S    
C55   C56   S    
C44   H25   S    
C57   H54   S    
C51   H42   S    
C10   N2    A    
C26   O14   S    
C32   N1    A    
C7    O19   S    
C50   H39   S    
C38   H11   S    
C12   C14   S    
C37   H8    S    
C45   H28   S    
C46   H30   S    
C43   H23   S    
C55   H50   S    
C24   N1    S    
C22   C24   A    
C25   C27   S    
C3    C4    A    
C42   H21   S    
C16   H6    S    
C52   H43   S    
C44   C45   S    
C41   H18   S    
C11   C17   A    
C54   H48   S    
N3    Zn1   S    
C14   C15   A    
C33   N1    A    
C9    O3    S    
C40   H16   S    
C56   H52   S    
O10   Zn1   S    
C6    C10   A    
C41   C42   S    
O18   C52   S    
C1    O1    A    
C23   O8    A    
C6    C7    A    
O7    Zn2   S    
C47   C48   S    
C46   C47   S    
C42   H20   S    
C29   N3    D    
O13   C37   S    
C31   O10   A    
C2    C3    A    
C39   H12   S    
C49   H36   S    
C57   H55   S    
C44   H24   S    
C38   C39   S    
C5    C35   A    
C33   C34   A    
N3    O18   S    
C48   H35   S    
C1    O5    A    
C7    C8    A    
C15   Br6   S    
C2    Br1   S    
C4    C5    A    
C20   C21   A    
C47   H32   S    
C46   H29   S    
C43   C44   S    
C18   H7    S    
C27   C28   D    
C55   H51   S    
O9    Zn2   S    
C8    H4    S    
C32   O12   S    
C4    C9    A    
C21   C22   A    
C11   Br5   S    
C50   C51   S    
C12   O7    A    
C51   H40   S    
C20   C31   S    
