data_mof_unit_65334.cif
_audit_creation_date              2012-12-10T21:14:41-0500
_audit_creation_method            fapswitch 2.2
_symmetry_space_group_name_H-M    P1
_symmetry_Int_Tables_number       1
_space_group_crystal_system       triclinic
_cell_length_a                    17.596374
_cell_length_b                    16.880409
_cell_length_c                    11.544706
_cell_angle_alpha                 89.999734
_cell_angle_beta                  91.523964
_cell_angle_gamma                 90.0
_cell_volume                      3427.95715181

loop_
_atom_site_label
_atom_site_type_symbol
_atom_type_description
_atom_site_fract_x
_atom_site_fract_y
_atom_site_fract_z
_atom_type_partial_charge
C1    C     C_R   0.353387 0.500000 0.500191 0.894233
C2    C     C_R   0.646612 0.500000 0.499793 0.894240
C3    C     C_R   0.768883 0.572094 0.498457 -0.159219
C4    C     C_R   0.231109 0.427906 0.501249 -0.159200
C5    C     C_R   0.231109 0.572094 0.501250 -0.159200
C6    C     C_R   0.768883 0.427906 0.498458 -0.159220
C7    C     C_R   0.729127 0.500000 0.498970 -0.055739
C8    C     C_R   0.270868 0.500000 0.500857 -0.055760
C9    C     C_R   0.886360 0.500000 0.498672 0.146359
C10   C     C_R   0.113626 0.500000 0.500654 0.146350
C11   C     C_1   0.966291 0.500000 0.499286 -0.039936
C12   C     C_1   0.033694 0.500000 0.499925 -0.039937
C13   C     C_R   0.499734 0.500000 0.281667 0.900019
C14   C     C_R   0.500265 0.500000 0.718333 0.900012
C15   C     C_R   0.466267 0.833419 0.408692 0.488084
C16   C     C_R   0.533734 0.166583 0.591314 0.488087
C17   C     C_R   0.533734 0.833416 0.591314 0.488085
C18   C     C_R   0.466267 0.166581 0.408692 0.488084
C19   C     C_R   0.465855 0.749388 0.410094 -0.109667
C20   C     C_R   0.534147 0.250614 0.589906 -0.109655
C21   C     C_R   0.534147 0.749385 0.589905 -0.109654
C22   C     C_R   0.465856 0.250612 0.410094 -0.109667
C23   C     C_1   0.500000 0.963678 0.500006 0.232426
C24   C     C_1   0.500000 0.036322 0.500007 0.232426
C25   C     C_1   0.499742 0.500000 0.161350 -0.128998
C26   C     C_1   0.500257 0.500000 0.838650 -0.128969
C27   C     C_1   0.499878 0.500000 0.059263 0.060929
C28   C     C_1   0.500120 0.500000 0.940737 0.060940
C29   C     C_R   0.500000 0.876276 0.500005 -0.181525
C30   C     C_R   0.500000 0.123724 0.500005 -0.181526
C31   C     C_R   0.847617 0.571976 0.498458 -0.151555
C32   C     C_R   0.152372 0.428024 0.500997 -0.151555
C33   C     C_R   0.152372 0.571976 0.500998 -0.151554
C34   C     C_R   0.847617 0.428024 0.498459 -0.151555
H1    H     H_    0.878209 0.627710 0.498361 0.153388
H2    H     H_    0.121778 0.372290 0.501019 0.153391
H3    H     H_    0.121778 0.627710 0.501021 0.153391
H4    H     H_    0.878209 0.372290 0.498363 0.153389
H5    H     H_    0.739378 0.628386 0.497985 0.203544
H6    H     H_    0.260616 0.371614 0.501813 0.203573
H7    H     H_    0.260616 0.628385 0.501814 0.203573
H8    H     H_    0.739378 0.371614 0.497987 0.203545
N1    N     N_R   0.500000 0.707230 0.500000 -0.211128
N2    N     N_R   0.500000 0.292770 0.500000 -0.211128
O1    O     O_R   0.389110 0.566570 0.499990 -0.589852
O2    O     O_R   0.610890 0.433430 0.500010 -0.589863
O3    O     O_R   0.610890 0.566570 0.500010 -0.589862
O4    O     O_R   0.389110 0.433430 0.499990 -0.589850
O5    O     O_R   0.500000 0.566540 0.334450 -0.613637
O6    O     O_R   0.500000 0.433460 0.665550 -0.613639
O7    O     O_R   0.500000 0.566540 0.665550 -0.613639
O8    O     O_R   0.500000 0.433460 0.334450 -0.613638
Zn1   Zn    Zn3+2 0.500000 0.588860 0.500000 1.002743
Zn2   Zn    Zn3+2 0.500000 0.411140 0.500000 1.002743
F1    F     F_    0.432433 0.873204 0.318823 -0.586649
F2    F     F_    0.567569 0.126801 0.681184 -0.586650
F3    F     F_    0.567570 0.873198 0.681183 -0.586650
F4    F     F_    0.432434 0.126797 0.318823 -0.586649
C35   C     C_2   0.427640 0.709206 0.311710 1.093239
O9    O     O_2   0.453228 0.715740 0.214726 -0.565378
O10   O     O_R   0.360315 0.667483 0.327893 -0.804955
H9    H     H_    0.339298 0.643031 0.253499 0.332926
C36   C     C_2   0.572374 0.290799 0.688277 1.093246
O11   O     O_2   0.546789 0.284280 0.785266 -0.565392
O12   O     O_R   0.639707 0.332504 0.672078 -0.804926
H10   H     H_    0.660732 0.356960 0.746464 0.332927
C37   C     C_2   0.572374 0.709200 0.688277 1.093246
O13   O     O_2   0.546791 0.715719 0.785266 -0.565393
O14   O     O_R   0.639708 0.667494 0.672076 -0.804926
H11   H     H_    0.660733 0.643039 0.746463 0.332927
C38   C     C_2   0.427640 0.290795 0.311709 1.093238
O15   O     O_2   0.453227 0.284259 0.214725 -0.565376
O16   O     O_R   0.360316 0.332519 0.327893 -0.804955
H12   H     H_    0.339299 0.356971 0.253499 0.332925

loop_
_geom_bond_atom_site_label_1
_geom_bond_atom_site_label_2
_ccdc_geom_bond_type
C19   C35   S    
O4    Zn2   S    
C5    C8    A    
C3    C31   A    
C23   C24   T    
C36   O12   S    
C1    O4    A    
C6    C7    A    
C18   C30   A    
C10   C32   A    
C2    O3    A    
C25   C27   T    
C13   O8    A    
C17   C29   A    
O16   H12   S    
C9    C31   A    
C26   C28   T    
C2    C7    S    
C16   C20   A    
O3    Zn1   S    
C13   C25   S    
O8    Zn2   S    
O2    Zn2   S    
C20   C36   S    
C16   F2    S    
O1    Zn1   S    
C35   O9    D    
C34   H4    S    
C14   C26   S    
C15   C19   A    
C9    C11   S    
C1    O1    A    
C23   C29   S    
O6    Zn2   S    
C6    C34   A    
C10   C12   S    
O5    Zn1   S    
C32   H2    S    
C31   H1    S    
C20   N2    A    
C19   N1    A    
C9    C34   A    
C15   C29   A    
C10   C33   A    
C3    C7    A    
C5    C33   A    
C2    O2    A    
C14   O7    A    
O14   H11   S    
C13   O5    A    
C35   O10   S    
C24   C30   S    
C21   N1    A    
O10   H9    S    
C14   O6    A    
C17   C21   A    
C3    H5    S    
C37   O13   D    
C1    C8    S    
N2    Zn2   S    
C22   C38   S    
C38   O15   D    
O7    Zn1   S    
C33   H3    S    
O12   H10   S    
C6    H8    S    
C4    C32   A    
C27   C28   S    
C38   O16   S    
C5    H7    S    
C22   N2    A    
C4    C8    A    
C18   C22   A    
C16   C30   A    
N1    Zn1   S    
C21   C37   S    
C18   F4    S    
C4    H6    S    
C11   C12   T    
C17   F3    S    
C36   O11   D    
C37   O14   S    
C15   F1    S    
