data_mof_unit_8402.cif
_audit_creation_date              2012-12-11T15:43:10-0500
_audit_creation_method            fapswitch 2.2
_symmetry_space_group_name_H-M    P1
_symmetry_Int_Tables_number       1
_space_group_crystal_system       triclinic
_cell_length_a                    19.18165
_cell_length_b                    11.076418
_cell_length_c                    18.67853
_cell_angle_alpha                 89.956709
_cell_angle_beta                  88.922639
_cell_angle_gamma                 89.949201
_cell_volume                      3967.81050056

loop_
_atom_site_label
_atom_site_type_symbol
_atom_type_description
_atom_site_fract_x
_atom_site_fract_y
_atom_site_fract_z
_atom_type_partial_charge
C1    C     C_R   0.733023 0.383605 0.149339 0.527220
C2    C     C_R   0.991665 0.971362 0.045096 0.264948
C3    C     C_R   0.754009 0.445906 0.569406 0.021573
C4    C     C_R   0.729670 0.379301 0.351663 0.542744
C5    C     C_R   0.270014 0.380374 0.648768 0.544640
C6    C     C_R   0.229975 0.880283 0.351260 0.541133
C7    C     C_R   0.770320 0.879377 0.648364 0.543760
C8    C     C_R   0.530698 0.156797 0.352307 0.547516
C9    C     C_R   0.465668 0.156593 0.645138 0.554400
C10   C     C_R   0.034348 0.656599 0.354866 0.553338
C11   C     C_R   0.969304 0.656770 0.647691 0.549535
C12   C     C_R   0.740492 0.974354 0.355420 0.553603
C13   C     C_R   0.520279 0.468068 0.950090 0.280961
C14   C     C_R   0.260183 0.976534 0.643703 0.555856
C15   C     C_R   0.239784 0.476639 0.356338 0.547791
C16   C     C_R   0.759500 0.474310 0.644600 0.555755
C17   C     C_R   0.450259 0.162665 0.938356 -0.010805
C18   C     C_R   0.497063 0.164606 0.079487 0.014727
C19   C     C_R   0.000912 0.660529 0.922155 0.014852
C20   C     C_R   0.052305 0.659995 0.061509 -0.008851
C21   C     C_R   0.474360 0.270662 0.969744 -0.047931
C22   C     C_R   0.508523 0.264684 0.034637 -0.010044
C23   C     C_R   0.991727 0.761222 0.966482 -0.006802
C24   C     C_R   0.555745 0.462256 0.015198 0.262409
C25   C     C_R   0.027343 0.766889 0.030128 -0.043229
C26   C     C_R   0.460517 0.065179 0.053618 -0.156571
C27   C     C_R   0.443829 0.060885 0.981872 -0.157193
C28   C     C_R   0.058752 0.557717 0.018338 -0.149766
C29   C     C_R   0.038182 0.560639 0.947439 -0.157196
C30   C     C_3   0.397039 0.438716 0.958703 -0.319028
C31   C     C_3   0.633267 0.283732 0.021773 -0.388332
C32   C     C_3   0.868183 0.789004 0.980901 -0.391090
C33   C     C_3   0.112594 0.921474 0.033637 -0.326928
C34   C     C_R   0.738895 0.946598 0.914397 -0.000685
C35   C     C_R   0.265615 0.921034 0.080397 0.004304
C36   C     C_R   0.235676 0.415075 0.921385 0.006359
C37   C     C_R   0.761718 0.442366 0.084546 0.004957
C38   C     C_R   0.688503 0.889347 0.957164 0.010690
C39   C     C_R   0.279433 0.832780 0.028374 -0.029871
C40   C     C_R   0.220640 0.321232 0.969450 -0.022551
C41   C     C_R   0.266340 0.380223 0.851772 0.512678
C42   C     C_R   0.802781 0.373063 0.037947 -0.033680
C43   C     C_R   0.685797 0.911861 0.031286 0.007777
C44   C     C_R   0.276314 0.861007 0.955342 0.001145
C45   C     C_R   0.226767 0.337621 0.043225 -0.036621
C46   C     C_R   0.806260 0.399817 0.964973 -0.008385
C47   C     C_R   0.774330 0.063781 0.017754 -0.174056
C48   C     C_R   0.281932 0.069517 0.988025 -0.174589
C49   C     C_R   0.233047 0.549718 0.021822 -0.160986
C50   C     C_R   0.734254 0.574354 0.984453 -0.154620
C51   C     C_R   0.776336 0.043122 0.944018 -0.144040
C52   C     C_R   0.233852 0.881017 0.148662 0.510355
C53   C     C_R   0.275297 0.040988 0.061018 -0.164096
C54   C     C_R   0.233872 0.532263 0.947480 -0.174283
C55   C     C_R   0.731520 0.548646 0.057909 -0.128484
C56   C     C_3   0.611815 0.912770 0.952094 -0.239988
C57   C     C_3   0.347160 0.766991 0.017641 -0.216913
C58   C     C_3   0.152298 0.257989 0.979590 -0.190041
C59   C     C_3   0.880099 0.360544 0.040094 -0.226295
C60   C     C_3   0.609622 0.931373 0.031310 -0.242680
C61   C     C_3   0.339184 0.785183 0.938489 -0.225300
C62   C     C_3   0.161438 0.269487 0.059260 -0.239712
C63   C     C_R   0.767106 0.883920 0.850575 0.523887
C64   C     C_3   0.883029 0.386775 0.961342 -0.236475
C65   C     C_R   0.731900 0.993349 0.062858 -0.009441
C66   C     C_R   0.269689 0.982327 0.935294 0.008305
C67   C     C_R   0.241146 0.452017 0.069022 0.020220
C68   C     C_R   0.769174 0.496470 0.936691 0.000407
C69   C     C_R   0.532158 0.155034 0.147476 0.531302
C70   C     C_R   0.435734 0.151586 0.861242 0.529129
C71   C     C_R   0.065535 0.650951 0.139001 0.546137
C72   C     C_R   0.966512 0.654126 0.853578 0.536542
C73   C     C_R   0.482227 0.162163 0.569486 0.018820
C74   C     C_R   0.466459 0.385789 0.940123 0.047418
C75   C     C_R   0.493257 0.164878 0.420111 0.018961
C76   C     C_R   0.006751 0.664682 0.579879 0.019940
C77   C     C_R   0.017785 0.662167 0.430511 0.018814
C78   C     C_R   0.468994 0.058646 0.529561 0.045775
C79   C     C_R   0.473915 0.059044 0.456410 0.028692
C80   C     C_R   0.025743 0.558680 0.543568 0.029123
C81   C     C_R   0.030669 0.558388 0.470423 0.044965
C82   C     C_R   0.493048 0.274105 0.458358 -0.170016
C83   C     C_R   0.489851 0.272375 0.533222 -0.171920
C84   C     C_R   0.010562 0.772408 0.466783 -0.171928
C85   C     C_R   0.565136 0.344276 0.041563 0.049590
C86   C     C_R   0.007333 0.774008 0.541649 -0.170015
C87   C     C_3   0.499636 0.935601 0.536548 -0.272209
C88   C     C_3   0.504322 0.933864 0.455844 -0.268619
C89   C     C_3   0.994868 0.433918 0.544107 -0.269403
C90   C     C_3   0.999605 0.435785 0.463410 -0.270732
C91   C     C_R   0.749193 0.927707 0.580023 0.019541
C92   C     C_R   0.252262 0.932226 0.418396 0.017289
C93   C     C_R   0.247719 0.432696 0.581680 0.017857
C94   C     C_R   0.750795 0.427380 0.420025 0.019102
C95   C     C_R   0.791935 0.010669 0.543780 0.020968
C96   C     C_R   0.937280 0.844879 0.959664 0.057689
C97   C     C_R   0.210049 0.016417 0.454438 0.019657
C98   C     C_R   0.290209 0.516241 0.545459 0.021750
C99   C     C_R   0.708254 0.510853 0.456126 0.021360
C100  C     C_R   0.790278 0.018466 0.470561 0.039184
C101  C     C_R   0.211968 0.024704 0.527666 0.039204
C102  C     C_R   0.288246 0.524401 0.472230 0.040466
C103  C     C_R   0.709891 0.518751 0.529344 0.041193
C104  C     C_R   0.695956 0.875793 0.466997 -0.166310
C105  C     C_R   0.307723 0.885108 0.531044 -0.152790
C106  C     C_R   0.191875 0.386356 0.469220 -0.153006
C107  C     C_R   0.041405 0.882102 0.055573 0.051749
C108  C     C_R   0.803830 0.375056 0.533187 -0.167624
C109  C     C_R   0.696715 0.868585 0.541684 -0.161090
C110  C     C_R   0.306331 0.876665 0.456326 -0.149883
C111  C     C_R   0.193315 0.378032 0.543950 -0.150375
C112  C     C_R   0.803066 0.367683 0.458507 -0.161599
C113  C     C_3   0.869617 0.026099 0.543256 -0.270060
C114  C     C_3   0.132676 0.036091 0.454944 -0.266907
C115  C     C_3   0.367670 0.534711 0.544788 -0.268551
C116  C     C_3   0.630625 0.527183 0.456560 -0.268249
C117  C     C_R   0.728231 0.019059 0.139969 0.548503
C118  C     C_R   0.951153 0.964038 0.982732 0.241049
C119  C     C_R   0.272138 0.018045 0.860051 0.533360
C120  C     C_R   0.239575 0.476567 0.145057 0.541161
C121  C     C_R   0.772356 0.521398 0.859671 0.554007
C122  C     C_3   0.867361 0.032426 0.462709 -0.266683
C123  C     C_3   0.135137 0.041992 0.535608 -0.268796
C124  C     C_3   0.365128 0.540510 0.464129 -0.269011
C125  C     C_3   0.632838 0.533543 0.537109 -0.270103
C126  C     C_R   0.745961 0.946005 0.430643 0.020617
C127  C     C_R   0.256387 0.952322 0.567685 0.019258
C128  C     C_R   0.243504 0.452593 0.432398 0.020166
Cr1   Cr    Cr6+3 0.772010 0.169670 0.250090 1.081521
Cr2   Cr    Cr6+3 0.383290 0.010760 0.749160 1.024497
Cr3   Cr    Cr6+3 0.116710 0.510760 0.250840 1.023861
Cr4   Cr    Cr6+3 0.883290 0.510760 0.749160 1.007051
Cr5   Cr    Cr6+3 0.227990 0.169670 0.749910 1.042174
Cr6   Cr    Cr6+3 0.272010 0.669670 0.250090 1.040793
Cr7   Cr    Cr6+3 0.727990 0.669670 0.749910 1.060705
Cr8   Cr    Cr6+3 0.615000 0.323260 0.249260 1.073379
Cr9   Cr    Cr6+3 0.385000 0.323260 0.750740 1.063796
Cr10  Cr    Cr6+3 0.115000 0.823260 0.249260 1.069827
Cr11  Cr    Cr6+3 0.885000 0.823260 0.750740 1.073757
Cr12  Cr    Cr6+3 0.616710 0.010760 0.250840 1.005078
H1    H     H_    0.452661 0.985444 0.086318 0.150273
H2    H     H_    0.036515 0.368213 0.440859 0.138203
H3    H     H_    0.462507 0.868491 0.559136 0.136066
H4    H     H_    0.558939 0.930245 0.436152 0.168918
H5    H     H_    0.551289 0.937147 0.562482 0.139942
H6    H     H_    0.469016 0.866686 0.431375 0.125774
H7    H     H_    0.029902 0.366161 0.568602 0.125652
H8    H     H_    0.947972 0.438097 0.437444 0.142149
H9    H     H_    0.658555 0.823209 0.437754 0.117163
H10   H     H_    0.346318 0.835054 0.560157 0.119944
H11   H     H_    0.152975 0.336982 0.440252 0.120281
H12   H     H_    0.425774 0.978289 0.960538 0.140922
H13   H     H_    0.841108 0.322160 0.562532 0.117150
H14   H     H_    0.660747 0.808166 0.568565 0.127502
H15   H     H_    0.342908 0.817614 0.429261 0.124414
H16   H     H_    0.156468 0.319746 0.571196 0.124159
H17   H     H_    0.838871 0.306772 0.431760 0.130399
H18   H     H_    0.897187 0.944775 0.561815 0.165235
H19   H     H_    0.103295 0.957072 0.436183 0.169554
H20   H     H_    0.396711 0.455237 0.563629 0.168394
H21   H     H_    0.602831 0.446198 0.438063 0.165064
H22   H     H_    0.885905 0.112124 0.568503 0.129182
H23   H     H_    0.079400 0.476085 0.039468 0.146815
H24   H     H_    0.118068 0.123239 0.429813 0.129060
H25   H     H_    0.382700 0.621662 0.569758 0.127240
H26   H     H_    0.614610 0.613375 0.431195 0.129864
H27   H     H_    0.883452 0.121293 0.440879 0.140064
H28   H     H_    0.120295 0.131351 0.557476 0.133788
H29   H     H_    0.380326 0.629598 0.442091 0.134031
H30   H     H_    0.616958 0.622583 0.558819 0.134617
H31   H     H_    0.892175 0.953662 0.435607 0.143009
H32   H     H_    0.109404 0.964264 0.562773 0.143777
H33   H     H_    0.390480 0.462332 0.437044 0.143113
H34   H     H_    0.045393 0.480857 0.914695 0.154978
H35   H     H_    0.607799 0.455074 0.564289 0.140644
H36   H     H_    0.807022 0.132507 0.039863 0.166702
H37   H     H_    0.300574 0.156769 0.972131 0.113297
H38   H     H_    0.223320 0.637691 0.043589 0.124371
H39   H     H_    0.709910 0.655294 0.965213 0.181089
H40   H     H_    0.811042 0.096799 0.911319 0.207237
H41   H     H_    0.278822 0.110266 0.101551 0.125252
H42   H     H_    0.230495 0.607306 0.910913 0.128272
H43   H     H_    0.704281 0.609735 0.093387 0.201430
H44   H     H_    0.153538 0.163305 0.960340 0.188659
H45   H     H_    0.501777 0.358733 0.431040 0.119768
H46   H     H_    0.895099 0.267213 0.051607 0.241942
H47   H     H_    0.580997 0.833917 0.935959 0.250713
H48   H     H_    0.346040 0.671314 0.034395 0.181714
H49   H     H_    0.599736 0.996201 0.921429 0.145039
H50   H     H_    0.391619 0.817553 0.039919 0.178412
H51   H     H_    0.108404 0.312201 0.959084 0.185358
H52   H     H_    0.905546 0.430634 0.073313 0.168943
H53   H     H_    0.597507 0.025276 0.045411 0.140632
H54   H     H_    0.382483 0.832692 0.911358 0.196005
H55   H     H_    0.121224 0.322964 0.087738 0.194167
H56   H     H_    0.495975 0.355506 0.562608 0.117327
H57   H     H_    0.909060 0.473206 0.948934 0.157457
H58   H     H_    0.581015 0.861147 0.062188 0.214216
H59   H     H_    0.326933 0.702170 0.908953 0.146077
H60   H     H_    0.170941 0.183676 0.087095 0.129974
H61   H     H_    0.898703 0.309100 0.927352 0.215107
H62   H     H_    0.385165 0.516717 0.924049 0.198009
H63   H     H_    0.357664 0.366918 0.956085 0.122525
H64   H     H_    0.395373 0.470382 0.014906 0.166597
H65   H     H_    0.668937 0.347319 0.994598 0.150028
H66   H     H_    0.657313 0.243533 0.069511 0.138354
H67   H     H_    0.004735 0.855693 0.437396 0.119722
H68   H     H_    0.625804 0.209595 0.982532 0.114987
H69   H     H_    0.834879 0.852822 0.010723 0.147982
H70   H     H_    0.841886 0.753432 0.933351 0.135834
H71   H     H_    0.874806 0.710935 0.017767 0.119937
H72   H     H_    0.127696 0.003724 0.062545 0.170893
H73   H     H_    0.148223 0.845359 0.042450 0.123470
H74   H     H_    0.115586 0.941514 0.975565 0.171152
H75   H     H_    0.941471 0.138856 0.814800 0.351564
H76   H     H_    0.076128 0.108113 0.178265 0.340191
H77   H     H_    0.535568 0.594004 0.771429 0.348249
H78   H     H_    0.998853 0.858677 0.568969 0.119631
H79   H     H_    0.569459 0.669243 0.168332 0.351919
H80   H     H_    0.940220 0.431066 0.563760 0.169043
O1    O     O_R   0.787520 0.042810 0.170440 -0.441236
O2    O     O_R   0.454050 0.051210 0.669140 -0.513483
O3    O     O_R   0.045950 0.551210 0.330860 -0.511540
O4    O     O_R   0.954050 0.551210 0.669140 -0.524604
O5    O     O_R   0.681390 0.959480 0.325510 -0.507841
O6    O     O_R   0.318610 0.959480 0.674490 -0.502120
O7    O     O_R   0.181390 0.459480 0.325510 -0.506987
O8    O     O_R   0.818610 0.459480 0.674490 -0.506822
O9    O     O_3   0.667900 0.167900 0.250060 -0.295180
O10   O     O_3   0.332100 0.167900 0.749940 -0.305885
O11   O     O_3   0.167900 0.667900 0.250060 -0.290281
O12   O     O_R   0.212480 0.042810 0.829560 -0.464928
O13   O     O_3   0.832100 0.667900 0.749940 -0.296327
O14   O     O_R   0.765640 0.292100 0.175020 -0.508432
O15   O     O_R   0.234360 0.292100 0.824980 -0.511770
O16   O     O_R   0.265640 0.792100 0.175020 -0.499861
O17   O     O_R   0.734360 0.792100 0.824980 -0.503498
O18   O     O_R   0.670190 0.408840 0.168540 -0.453177
O19   O     O_R   0.329810 0.408840 0.831460 -0.515790
O20   O     O_R   0.170190 0.908840 0.168540 -0.516931
O21   O     O_R   0.829810 0.908840 0.831460 -0.454964
O22   O     O_R   0.556620 0.251410 0.175160 -0.463050
O23   O     O_R   0.287520 0.542810 0.170440 -0.481401
O24   O     O_R   0.443380 0.251410 0.824840 -0.453644
O25   O     O_R   0.056620 0.751410 0.175160 -0.452748
O26   O     O_R   0.943380 0.751410 0.824840 -0.455533
O27   O     O_R   0.545960 0.049620 0.170320 -0.545861
O28   O     O_R   0.454040 0.049620 0.829680 -0.510229
O29   O     O_R   0.045960 0.549620 0.170320 -0.502042
O30   O     O_R   0.954040 0.549620 0.829680 -0.545225
O31   O     O_R   0.681390 0.958010 0.176690 -0.498868
O32   O     O_R   0.318610 0.958010 0.823310 -0.517719
O33   O     O_R   0.181390 0.458010 0.176690 -0.532240
O34   O     O_R   0.712480 0.542810 0.829560 -0.431730
O35   O     O_R   0.818610 0.458010 0.823310 -0.502346
O36   O     O_R   0.787510 0.044390 0.330970 -0.500625
O37   O     O_R   0.212490 0.044390 0.669030 -0.507123
O38   O     O_R   0.287510 0.544390 0.330970 -0.510420
O39   O     O_R   0.712490 0.544390 0.669030 -0.510002
O40   O     O_R   0.765630 0.293570 0.323840 -0.507774
O41   O     O_R   0.234370 0.293570 0.676160 -0.509326
O42   O     O_R   0.265630 0.793570 0.323840 -0.509428
O43   O     O_R   0.734370 0.793570 0.676160 -0.512011
O44   O     O_R   0.670190 0.410420 0.329080 -0.521508
O45   O     O_R   0.556610 0.252880 0.323980 -0.503960
O46   O     O_R   0.329810 0.410420 0.670920 -0.518031
O47   O     O_R   0.170190 0.910420 0.329080 -0.518760
O48   O     O_R   0.829810 0.910420 0.670920 -0.520580
O49   O     O_2   0.003496 0.179696 0.939958 -0.319588
O50   O     O_2   0.041520 0.000853 0.874223 -0.298672
O51   O     O_3   0.919416 0.084000 0.850469 -0.532687
O52   O     O_2   0.012725 0.205515 0.077922 -0.336459
O53   O     O_2   0.913437 0.104126 0.134633 -0.274547
O54   O     O_3   0.035908 0.052115 0.179844 -0.498521
O55   O     O_2   0.479269 0.681639 0.898119 -0.326960
O56   O     O_R   0.443390 0.252880 0.676020 -0.491459
O57   O     O_2   0.603923 0.636299 0.894197 -0.309082
O58   O     O_3   0.524171 0.526436 0.804383 -0.511088
O59   O     O_2   0.503696 0.682953 0.044367 -0.320156
O60   O     O_2   0.466565 0.516664 0.122023 -0.304829
O61   O     O_3   0.589284 0.603071 0.138651 -0.528502
O62   O     O_R   0.056610 0.752880 0.323980 -0.491162
O63   O     O_R   0.943390 0.752880 0.676020 -0.502119
O64   O     O_R   0.545950 0.051210 0.330860 -0.525017
S1    S     S_3+6 0.980519 0.059983 0.911783 -0.020538
S2    S     S_3+6 0.987183 0.088551 0.108925 -0.009247
S3    S     S_3+6 0.532584 0.584170 0.887004 0.012326
S4    S     S_3+6 0.527072 0.569119 0.080260 -0.005634

loop_
_geom_bond_atom_site_label_1
_geom_bond_atom_site_label_2
_ccdc_geom_bond_type
C99   C103  A    
C105  C110  A    
C12   O36   A    
Cr8   O18   S    
C35   C53   A    
Cr12  O27   S    
C9    O56   A    
C64   H61   S    
Cr1   O40   S    
O55   S3    D    
C6    O47   A    
C25   C107  A    
C84   C86   A    
C11   C76   S    
C69   O22   A    
C12   C126  S    
C63   O21   A    
C59   H46   S    
C72   O26   A    
C37   C42   A    
C113  C122  S    
C60   H53   S    
C20   C71   S    
C115  C124  S    
C115  H25   S    
C67   C120  S    
C47   H36   S    
C60   H58   S    
C108  C112  A    
Cr12  O9    S    
C4    O40   A    
C21   C22   A    
C5    O41   A    
C116  H26   S    
Cr12  O31   S    
C30   H62   S    
C40   C58   S    
O58   S3    S    
C82   H45   S    
C99   C116  S    
C33   H73   S    
C8    O45   A    
C20   C28   A    
C98   C102  A    
C17   C21   A    
Cr7   O17   S    
C15   O7    A    
C19   C23   A    
C105  H10   S    
Cr1   O36   S    
Cr6   O38   S    
C109  H14   S    
C81   C90   S    
H77   O58   S    
C71   O25   A    
C52   O16   A    
C3    C103  A    
C16   O8    A    
C122  H27   S    
Cr9   O10   S    
C14   O37   A    
C68   C121  S    
C63   O17   A    
Cr3   O33   S    
C57   C61   S    
Cr8   O9    S    
C115  H20   S    
C10   O62   A    
C38   C43   A    
C32   H69   S    
C6    C92   S    
Cr2   O6    S    
Cr6   O16   S    
C75   C79   A    
C71   O29   A    
C78   C87   S    
C27   H12   S    
C31   C85   S    
C61   H59   S    
Cr5   O41   S    
C34   C51   A    
C100  C126  A    
C31   H65   S    
C102  C128  A    
C30   C74   S    
Cr10  O47   S    
C45   C62   S    
C86   H78   S    
C22   C85   A    
Cr5   O10   S    
C118  S1    S    
C110  H15   S    
C9    O2    A    
C69   O27   A    
Cr11  O13   S    
C7    O43   A    
O54   S2    S    
C123  H32   S    
O61   S4    S    
Cr12  O64   S    
C92   C97   A    
C121  O35   A    
C106  C111  A    
C48   C53   A    
C105  C127  A    
C17   C27   A    
C116  H21   S    
C32   H71   S    
C41   O15   A    
C77   C84   A    
C120  O23   A    
Cr9   O19   S    
C46   C68   A    
Cr9   O46   S    
C114  H24   S    
C56   H47   S    
C4    O44   A    
C6    O42   A    
C123  H28   S    
C116  C125  S    
C114  C123  S    
C35   C52   S    
C24   C85   A    
Cr3   O11   S    
C89   H7    S    
C18   C22   A    
C76   C80   A    
C42   C59   S    
C75   C82   A    
C39   C44   A    
C1    C37   S    
C3    C108  A    
Cr7   O39   S    
Cr1   O14   S    
C66   C119  S    
C50   H39   S    
Cr5   O12   S    
C92   C110  A    
C98   C115  S    
C94   C112  A    
C101  C127  A    
C73   C83   A    
Cr7   O34   S    
Cr11  O21   S    
C36   C54   A    
C52   O20   A    
C91   C95   A    
C37   C55   A    
C38   C56   S    
C122  H31   S    
C65   C117  S    
Cr3   O3    S    
C48   C66   A    
C97   C114  S    
C3    C16   S    
Cr3   O29   S    
C28   H23   S    
C70   O28   A    
C58   C62   S    
C87   C88   S    
C24   S4    S    
C18   C26   A    
C11   O63   A    
C29   H34   S    
C2    C118  A    
C30   H63   S    
O57   S3    D    
C26   C27   A    
C28   C29   A    
C14   O6    A    
Cr4   O8    S    
C8    O64   A    
C33   H72   S    
C20   C25   A    
Cr2   O10   S    
C106  C128  A    
C58   H44   S    
C42   C46   A    
C80   C89   S    
C117  O1    A    
C124  H29   S    
C45   C67   A    
C26   H1    S    
Cr4   O13   S    
Cr5   O37   S    
C5    O46   A    
C64   H57   S    
O53   S2    D    
C36   C41   S    
C62   H55   S    
C102  C124  S    
C79   C88   S    
C40   C45   A    
C112  H17   S    
Cr2   O2    S    
Cr2   O28   S    
C95   C100  A    
C47   C51   A    
C14   C127  S    
C56   C60   S    
C104  H9    S    
C35   C39   A    
O60   S4    D    
C32   H70   S    
C77   C81   A    
C1    O14   A    
C43   C65   A    
C7    C91   S    
Cr10  O62   S    
Cr12  O5    S    
C125  H30   S    
C90   H2    S    
C15   O38   A    
C10   O3    A    
C93   C111  A    
C15   C128  S    
C44   C61   S    
C59   H52   S    
O50   S1    D    
C19   C29   A    
C76   C86   A    
C49   H38   S    
C41   O19   A    
O49   S1    D    
C106  H11   S    
C87   H5    S    
Cr4   O4    S    
C11   O4    A    
C33   H74   S    
Cr2   O32   S    
Cr9   O56   S    
Cr8   O22   S    
C62   H60   S    
C31   H68   S    
Cr10  O25   S    
C89   H80   S    
Cr3   O7    S    
C108  H13   S    
C13   C74   A    
C82   C83   A    
C58   H51   S    
C55   H43   S    
C72   O30   A    
C89   C90   S    
Cr11  O26   S    
C50   C68   A    
Cr11  O48   S    
Cr7   O43   S    
Cr8   O44   S    
C44   C66   A    
C33   C107  S    
C117  O31   A    
Cr4   O30   S    
C121  O34   A    
C59   C64   S    
C101  C123  S    
C96   C118  A    
Cr10  O11   S    
C95   C113  S    
C104  C109  A    
O52   S2    D    
C49   C54   A    
C39   C57   S    
Cr1   O9    S    
C2    C107  A    
C23   C96   A    
Cr5   O15   S    
C83   H56   S    
C57   H48   S    
C90   H8    S    
Cr4   O35   S    
C70   O24   A    
C113  H22   S    
C120  O33   A    
Cr9   O24   S    
C73   C78   A    
Cr7   O13   S    
Cr10  O20   S    
C113  H18   S    
C111  H16   S    
C2    S2    S    
C17   C70   S    
Cr6   O42   S    
C19   C72   S    
C9    C73   S    
C103  C125  S    
C48   H37   S    
C10   C77   S    
C13   S3    S    
O51   S1    S    
C114  H19   S    
C36   C40   A    
C31   H66   S    
Cr1   O1    S    
C16   O39   A    
C78   C79   A    
C124  H33   S    
C21   C74   A    
C8    C75   S    
C13   C24   A    
C46   C64   S    
Cr8   O45   S    
C53   H41   S    
C54   H42   S    
Cr6   O11   S    
C43   C60   S    
C4    C94   S    
C119  O12   A    
C32   C96   S    
H79   O61   S    
C51   H40   S    
C125  H35   S    
C56   H49   S    
C88   H6    S    
C49   C67   A    
C34   C38   A    
C80   C81   A    
C5    C93   S    
C1    O18   A    
C30   H64   S    
C50   C55   A    
Cr11  O63   S    
H75   O51   S    
O59   S4    D    
C91   C109  A    
C57   H50   S    
C119  O32   A    
C84   H67   S    
C12   O5    A    
C94   C99   A    
C18   C69   S    
C93   C98   A    
C34   C63   S    
C88   H4    S    
C100  C122  S    
C23   C25   A    
C7    O48   A    
Cr6   O23   S    
C104  C126  A    
H76   O54   S    
C87   H3    S    
C61   H54   S    
C47   C65   A    
C97   C101  A    
