data_mof_unit_10139.cif
_audit_creation_date              2012-12-10T18:38:59-0500
_audit_creation_method            fapswitch 2.2
_symmetry_space_group_name_H-M    P1
_symmetry_Int_Tables_number       1
_space_group_crystal_system       triclinic
_cell_length_a                    10.914589
_cell_length_b                    11.51958
_cell_length_c                    10.798227
_cell_angle_alpha                 90.070415
_cell_angle_beta                  88.665039
_cell_angle_gamma                 89.543657
_cell_volume                      1357.26416373

loop_
_atom_site_label
_atom_site_type_symbol
_atom_type_description
_atom_site_fract_x
_atom_site_fract_y
_atom_site_fract_z
_atom_type_partial_charge
C1    C     C_R   0.510831 0.281691 0.499785 0.909541
C2    C     C_3   0.119583 0.512984 0.499887 -0.177868
C3    C     C_3   0.878401 0.514915 0.495254 -0.154808
C4    C     C_1   0.525767 0.838069 0.500792 -0.206685
C5    C     C_1   0.535200 0.940114 0.501345 -0.015487
C6    C     C_R   0.256699 0.505876 0.500689 0.949918
C7    C     C_R   0.742544 0.508046 0.498671 0.931377
C8    C     C_1   0.499018 0.499245 0.069784 0.004677
C9    C     C_1   0.499384 0.499537 0.930178 0.012819
C10   C     C_R   0.507678 0.718504 0.500081 0.887945
C11   C     C_1   0.525027 0.161332 0.500006 -0.213330
C12   C     C_3   0.069832 0.549931 0.632000 -0.170797
C13   C     C_3   0.067967 0.385468 0.474556 -0.111539
C14   C     C_3   0.927835 0.534092 0.634127 -0.048061
C15   C     C_3   0.928026 0.392251 0.448114 -0.167249
C16   C     C_1   0.533998 0.059136 0.500746 -0.001527
C17   C     C_3   0.073826 0.604667 0.397736 0.771240
C18   C     C_3   0.926494 0.614960 0.404689 0.760244
H1    H     H_    0.106088 0.484885 0.698785 0.178346
H2    H     H_    0.070560 0.340735 0.565993 0.155286
H3    H     H_    0.917358 0.445653 0.674923 0.097343
H4    H     H_    0.883517 0.327201 0.510881 0.159530
N1    N     N_1   0.500000 0.500010 0.180630 -0.093305
N2    N     N_1   0.500000 0.500010 0.819370 -0.093750
O1    O     O_R   0.500000 0.334450 0.602530 -0.608727
O2    O     O_R   0.500000 0.334450 0.397470 -0.602665
O3    O     O_R   0.314800 0.499980 0.602530 -0.633259
O4    O     O_R   0.314800 0.499980 0.397470 -0.585095
O5    O     O_R   0.685200 0.499980 0.602530 -0.635595
O6    O     O_R   0.685200 0.499980 0.397470 -0.615512
O7    O     O_R   0.500000 0.665550 0.602530 -0.612561
O8    O     O_R   0.500000 0.665550 0.397470 -0.650007
Zn1   Zn    Zn3+2 0.500000 0.500000 0.636920 0.945464
Zn2   Zn    Zn3+2 0.500000 0.500000 0.363080 0.951704
C19   C     C_3   0.118850 0.669632 0.677322 -0.228014
C20   C     C_3   0.166428 0.667352 0.808607 -0.987491
H5    H     H_    0.098623 0.631444 0.875228 0.257776
H6    H     H_    0.251199 0.613643 0.812053 0.293041
H7    H     H_    0.188934 0.757255 0.836950 0.253970
H8    H     H_    0.199704 0.697611 0.621866 0.243095
H9    H     H_    0.049352 0.738298 0.669378 0.244157
C21   C     C_3   0.145553 0.301148 0.388189 -0.316328
C22   C     C_3   0.225676 0.218183 0.461844 -0.925312
H10   H     H_    0.274994 0.265694 0.534114 0.271259
H11   H     H_    0.167590 0.151964 0.508856 0.249740
H12   H     H_    0.291354 0.172727 0.398143 0.263577
H13   H     H_    0.089299 0.241997 0.333977 0.219796
H14   H     H_    0.200584 0.347899 0.317401 0.266474
C23   C     C_3   0.855424 0.603565 0.739637 -0.309488
C24   C     C_3   0.792552 0.718813 0.709617 -0.696052
H15   H     H_    0.859623 0.788693 0.695518 0.246063
H16   H     H_    0.732651 0.712099 0.629202 0.284743
H17   H     H_    0.733433 0.745203 0.790090 0.202743
H18   H     H_    0.784744 0.546986 0.783607 0.206635
H19   H     H_    0.915253 0.619357 0.818237 0.180199
C25   C     C_3   0.892361 0.353556 0.313195 -0.253361
C26   C     C_3   0.845634 0.228553 0.308139 -0.990362
H20   H     H_    0.907636 0.167509 0.354880 0.261461
H21   H     H_    0.754106 0.223360 0.354787 0.273537
H22   H     H_    0.836812 0.200996 0.210185 0.256707
H23   H     H_    0.817591 0.403435 0.273074 0.276667
H24   H     H_    0.968780 0.366685 0.245295 0.222436
O9    O     O_3   0.120241 0.717056 0.428108 -0.689773
C27   C     C_3   0.215588 0.766086 0.355797 0.078031
H25   H     H_    0.185655 0.792821 0.263599 0.159237
H26   H     H_    0.294891 0.707466 0.349193 0.213723
C28   C     C_3   0.252648 0.879985 0.414571 -0.903947
H27   H     H_    0.276186 0.867050 0.512972 0.260560
H28   H     H_    0.331527 0.916593 0.361604 0.232499
H29   H     H_    0.176793 0.944138 0.409938 0.258163
O10   O     O_3   0.120724 0.555878 0.282983 -0.646470
C29   C     C_3   0.097407 0.612063 0.169716 0.148443
H30   H     H_    0.049727 0.696595 0.179532 0.121442
H31   H     H_    0.037507 0.555565 0.114311 0.183959
C30   C     C_3   0.218182 0.625018 0.097379 -0.927475
H32   H     H_    0.232911 0.550078 0.033879 0.251262
H33   H     H_    0.218128 0.707618 0.045142 0.221393
H34   H     H_    0.296816 0.627761 0.159841 0.279844
O11   O     O_3   0.881333 0.721196 0.461290 -0.667077
C31   C     C_3   0.901858 0.829538 0.401687 0.159841
H35   H     H_    0.814445 0.860629 0.362365 0.119855
H36   H     H_    0.972417 0.826933 0.326666 0.145626
C32   C     C_3   0.935263 0.921711 0.496038 -0.842047
H37   H     H_    0.012704 0.892880 0.552793 0.272280
H38   H     H_    0.963291 0.001911 0.447264 0.196517
H39   H     H_    0.854957 0.942674 0.557240 0.238481
O12   O     O_3   0.881078 0.592114 0.283540 -0.697382
C33   C     C_3   0.799123 0.670296 0.227247 0.108235
H40   H     H_    0.845148 0.750815 0.197362 0.098922
H41   H     H_    0.717684 0.688762 0.287608 0.200038
C34   C     C_3   0.759745 0.617253 0.105834 -0.859008
H42   H     H_    0.733507 0.525533 0.119772 0.266880
H43   H     H_    0.682219 0.667989 0.068096 0.217393
H44   H     H_    0.836893 0.618821 0.037042 0.215284

loop_
_geom_bond_atom_site_label_1
_geom_bond_atom_site_label_2
_ccdc_geom_bond_type
C8    C9    S    
O12   C33   S    
C7    O5    A    
C19   C20   S    
C1    C11   S    
C30   H32   S    
C2    C12   S    
O3    Zn1   S    
C14   H3    S    
C20   H5    S    
C3    C7    S    
C31   C32   S    
C26   H21   S    
C14   C23   S    
C23   H18   S    
O5    Zn1   S    
C8    N1    T    
C25   C26   S    
C3    C18   S    
C2    C13   S    
C5    C16   S    
C10   O7    A    
O2    Zn2   S    
C15   H4    S    
C6    O4    A    
C32   H37   S    
C18   O11   S    
C24   H16   S    
O7    Zn1   S    
O4    Zn2   S    
C7    O6    A    
C2    C17   S    
C1    O1    A    
C2    C6    S    
C29   C30   S    
C13   C21   S    
C30   H34   S    
C17   C18   S    
C24   H17   S    
O6    Zn2   S    
C28   H27   S    
C27   C28   S    
C29   H31   S    
C34   H42   S    
C31   H35   S    
C26   H22   S    
C23   H19   S    
O11   C31   S    
C28   H28   S    
C27   H26   S    
C22   H10   S    
C34   H43   S    
C30   H33   S    
C11   C16   T    
C6    O3    A    
C33   C34   S    
N1    Zn2   S    
C24   H15   S    
C21   H14   S    
C12   C19   S    
C22   H11   S    
C3    C14   S    
C31   H36   S    
C32   H38   S    
C33   H41   S    
C17   O10   S    
C13   C15   S    
C1    O2    A    
C25   H24   S    
C21   C22   S    
C4    C10   S    
C3    C15   S    
C13   H2    S    
C20   H7    S    
C18   O12   S    
C12   C14   S    
C29   H30   S    
C9    N2    T    
N2    Zn1   S    
C28   H29   S    
C15   C25   S    
C20   H6    S    
C19   H8    S    
O10   C29   S    
C27   H25   S    
C34   H44   S    
C26   H20   S    
C12   H1    S    
C21   H13   S    
C19   H9    S    
C22   H12   S    
O9    C27   S    
C10   O8    A    
C4    C5    T    
C32   H39   S    
C33   H40   S    
C23   C24   S    
O1    Zn1   S    
C25   H23   S    
C17   O9    S    
O8    Zn2   S    
