data_mof_unit_11460.cif
_audit_creation_date              2012-12-10T17:21:38-0500
_audit_creation_method            fapswitch 2.2
_symmetry_space_group_name_H-M    P1
_symmetry_Int_Tables_number       1
_space_group_crystal_system       triclinic
_cell_length_a                    10.738003
_cell_length_b                    10.783274
_cell_length_c                    9.608184
_cell_angle_alpha                 90.098094
_cell_angle_beta                  89.966503
_cell_angle_gamma                 92.397173
_cell_volume                      1111.56422181

loop_
_atom_site_label
_atom_site_type_symbol
_atom_type_description
_atom_site_fract_x
_atom_site_fract_y
_atom_site_fract_z
_atom_type_partial_charge
C1    C     C_R   0.495619 0.262649 0.499926 0.788281
C2    C     C_3   0.877847 0.497374 0.499110 0.119841
C3    C     C_3   0.932537 0.615583 0.572892 -0.435213
C4    C     C_3   0.928855 0.498077 0.347379 -0.335241
C5    C     C_R   0.301435 0.121813 0.653405 -0.188856
C6    C     C_R   0.211831 0.053639 0.729416 -0.130732
C7    C     C_R   0.213552 0.924845 0.732375 -0.135272
C8    C     C_R   0.304478 0.863523 0.658711 -0.191232
C9    C     C_R   0.396720 0.930595 0.581102 0.105831
C10   C     C_R   0.395749 0.061708 0.579451 0.107449
C11   C     C_R   0.486682 0.128548 0.499671 -0.119035
C12   C     C_R   0.259966 0.499195 0.499815 0.741027
C13   C     C_R   0.571551 0.066909 0.417320 -0.189802
C14   C     C_R   0.571806 0.939008 0.417795 -0.201127
C15   C     C_R   0.487414 0.870682 0.500938 -0.099460
C16   C     C_R   0.665972 0.664266 0.144019 -0.154681
C17   C     C_R   0.747358 0.744300 0.071996 -0.218593
C18   C     C_R   0.747211 0.744478 0.928584 -0.209603
C19   C     C_R   0.665672 0.664607 0.856339 -0.145444
C20   C     C_R   0.581478 0.580833 0.925331 0.210066
C21   C     C_R   0.581543 0.580715 0.074832 0.216570
C22   C     C_R   0.422236 0.423352 0.073762 -0.061785
C23   C     C_R   0.495915 0.737122 0.500242 0.770297
C24   C     C_R   0.422284 0.423368 0.925928 -0.062086
C25   C     C_R   0.739859 0.499674 0.499770 0.729734
C26   C     C_3   0.068151 0.381369 0.576429 -0.385476
C27   C     C_3   0.923544 0.381433 0.579031 -0.096002
C28   C     C_3   0.076160 0.616059 0.572236 -0.387523
C29   C     C_3   0.071222 0.494862 0.347613 -0.357641
C30   C     C_3   0.121816 0.497955 0.499166 0.132316
Cu1   Cu    Cu3+1 0.499990 0.499990 0.640660 0.917127
Cu2   Cu    Cu3+1 0.500010 0.500010 0.359340 0.933175
H1    H     H_    0.103530 0.380568 0.685320 0.139944
H2    H     H_    0.900927 0.583560 0.292778 0.155461
H3    H     H_    0.113482 0.700260 0.516946 0.164974
H4    H     H_    0.900770 0.700268 0.519643 0.159027
H5    H     H_    0.639925 0.118328 0.354690 0.182204
H6    H     H_    0.293976 0.221347 0.651110 0.131443
H7    H     H_    0.140024 0.100952 0.785061 0.127788
H8    H     H_    0.143152 0.872032 0.790501 0.129811
H9    H     H_    0.299721 0.763489 0.661526 0.152578
H10   H     H_    0.640352 0.893112 0.355417 0.144735
H11   H     H_    0.358418 0.360495 0.128772 0.137291
H12   H     H_    0.102066 0.296548 0.525066 0.183532
H13   H     H_    0.673628 0.672209 0.253682 0.191129
H14   H     H_    0.810924 0.806822 0.128240 0.149850
H15   H     H_    0.810695 0.807120 0.872534 0.145985
H16   H     H_    0.672978 0.672839 0.746677 0.197252
H17   H     H_    0.358492 0.360519 0.870736 0.131964
H18   H     H_    0.894567 0.389917 0.689901 0.103369
H19   H     H_    0.110774 0.620738 0.681354 0.170291
H20   H     H_    0.899097 0.619246 0.682384 0.173154
H21   H     H_    0.110346 0.575923 0.287900 0.170155
H22   H     H_    0.100060 0.409224 0.293582 0.183407
H23   H     H_    0.889086 0.417883 0.286890 0.214679
N1    N     N_R   0.501200 0.501210 0.147910 -0.198767
N2    N     N_R   0.501250 0.501290 0.852040 -0.199736
O1    O     O_R   0.499990 0.319640 0.618810 -0.580705
O2    O     O_R   0.500000 0.319660 0.381240 -0.568345
O3    O     O_R   0.317680 0.499970 0.618790 -0.595947
O4    O     O_R   0.317700 0.499990 0.381210 -0.583973
O5    O     O_R   0.500000 0.680340 0.618760 -0.599722
O6    O     O_R   0.500010 0.680360 0.381190 -0.588034
O7    O     O_R   0.682300 0.500010 0.618790 -0.606990
O8    O     O_R   0.682320 0.500030 0.381210 -0.597983
C31   C     C_2   0.864461 0.260071 0.527018 0.305113
H24   H     H_    0.788772 0.215439 0.585717 0.073040
O9    O     O_2   0.897901 0.212913 0.418318 -0.564880

loop_
_geom_bond_atom_site_label_1
_geom_bond_atom_site_label_2
_ccdc_geom_bond_type
Cu1   O3    S    
C16   H13   S    
C21   N1    A    
C31   O9    D    
C3    H20   S    
C16   C21   A    
C2    C25   S    
C4    H2    S    
C9    C10   A    
C26   H1    S    
C2    C4    S    
C4    C29   S    
C1    C11   S    
C27   H18   S    
C14   H10   S    
C2    C27   S    
C18   H15   S    
Cu1   N2    S    
C19   C20   A    
C15   C23   S    
C17   C18   A    
C9    C15   A    
C26   H12   S    
C5    C10   A    
C27   C31   S    
Cu1   Cu2   S    
C13   C14   A    
C8    H9    S    
C12   O4    A    
C11   C13   A    
Cu1   O5    S    
C26   C27   S    
C29   C30   S    
C29   H21   S    
C3    H4    S    
Cu1   O1    S    
C28   C30   S    
C3    C28   S    
Cu2   O4    S    
C26   C30   S    
C6    C7    A    
C2    C3    S    
C1    O2    A    
C4    H23   S    
C5    C6    A    
C28   H19   S    
C22   C24   A    
C23   O6    A    
C16   C17   A    
C10   C11   A    
Cu2   O8    S    
C12   O3    A    
C1    O1    A    
C7    C8    A    
C31   H24   S    
C17   H14   S    
Cu2   O6    S    
C18   C19   A    
C29   H22   S    
C24   H17   S    
C20   N2    A    
C25   O8    A    
C6    H7    S    
C24   N2    A    
C22   N1    A    
C14   C15   A    
C19   H16   S    
Cu2   O2    S    
C12   C30   S    
C20   C21   A    
C5    H6    S    
C7    H8    S    
C13   H5    S    
Cu1   O7    S    
Cu2   N1    S    
C23   O5    A    
C22   H11   S    
C28   H3    S    
C8    C9    A    
C25   O7    A    
