data_mof_unit_7237.cif
_audit_creation_date              2012-12-10T18:23:02-0500
_audit_creation_method            fapswitch 2.2
_symmetry_space_group_name_H-M    P1
_symmetry_Int_Tables_number       1
_space_group_crystal_system       triclinic
_cell_length_a                    14.965418
_cell_length_b                    14.058549
_cell_length_c                    10.642764
_cell_angle_alpha                 90.007183
_cell_angle_beta                  84.882919
_cell_angle_gamma                 90.201221
_cell_volume                      2230.21517295

loop_
_atom_site_label
_atom_site_type_symbol
_atom_type_description
_atom_site_fract_x
_atom_site_fract_y
_atom_site_fract_z
_atom_type_partial_charge
C1    C     C_R   0.326579 0.500010 0.499765 0.915065
C2    C     C_R   0.673291 0.500496 0.497111 0.902755
C3    C     C_R   0.952756 0.516790 0.498930 0.022489
C4    C     C_R   0.045961 0.515716 0.499889 0.022944
C5    C     C_R   0.913582 0.541439 0.387711 0.089759
C6    C     C_R   0.084354 0.502964 0.614694 0.088646
C7    C     C_R   0.936383 0.494081 0.725938 -0.233492
C8    C     C_R   0.062404 0.561189 0.279327 -0.238539
C9    C     C_R   0.028568 0.508168 0.728844 0.083182
C10   C     C_R   0.969278 0.572417 0.280757 0.102082
C11   C     C_R   0.570725 0.800109 0.441445 0.217299
C12   C     C_R   0.428226 0.200697 0.558031 0.225429
C13   C     C_R   0.429113 0.799217 0.558610 0.224677
C14   C     C_R   0.571772 0.199891 0.445826 0.216404
C15   C     C_R   0.420598 0.898605 0.537296 -0.052481
C16   C     C_R   0.579192 0.100763 0.469585 -0.059205
C17   C     C_R   0.579717 0.899635 0.464702 -0.045801
C18   C     C_R   0.419771 0.100346 0.538732 -0.063184
C19   C     C_R   0.500018 0.949666 0.502329 -0.004033
C20   C     C_R   0.499496 0.050028 0.503134 0.008275
C21   C     C_R   0.336700 0.947201 0.541837 0.117025
C22   C     C_R   0.662589 0.052018 0.467450 0.096990
C23   C     C_R   0.663621 0.949815 0.459587 0.118864
C24   C     C_R   0.336140 0.049543 0.547787 0.095802
C25   C     C_R   0.503814 0.499901 0.256841 0.983791
C26   C     C_R   0.502316 0.499783 0.742486 0.996107
C27   C     C_3   0.470196 0.579921 0.044726 0.169162
C28   C     C_3   0.544330 0.417760 0.952708 0.159442
C29   C     C_3   0.554834 0.573604 0.950802 0.146549
C30   C     C_3   0.460240 0.423856 0.046993 0.148971
C31   C     C_3   0.423088 0.504417 0.969361 0.092974
C32   C     C_3   0.592048 0.492715 0.029250 0.094314
C33   C     C_3   0.506767 0.498663 0.876631 -0.264724
C34   C     C_3   0.507381 0.499252 0.121616 -0.264493
C35   C     C_R   0.820169 0.535774 0.388832 -0.229922
C36   C     C_R   0.177198 0.492147 0.611950 -0.258991
C37   C     C_R   0.768734 0.503325 0.496277 -0.037175
C38   C     C_R   0.230711 0.501316 0.498568 -0.045874
C39   C     C_R   0.806821 0.485844 0.608043 -0.237403
C40   C     C_R   0.193439 0.523793 0.387016 -0.229669
C41   C     C_R   0.898664 0.495987 0.611091 0.098247
C42   C     C_R   0.100729 0.531631 0.387299 0.099492
H1    H     H_    0.786479 0.555016 0.307132 0.188142
H2    H     H_    0.208296 0.477889 0.697371 0.191596
H3    H     H_    0.764478 0.468378 0.693184 0.164419
H4    H     H_    0.236701 0.536441 0.301209 0.164193
H5    H     H_    0.893091 0.490843 0.813206 0.177844
H6    H     H_    0.105660 0.579724 0.195865 0.157806
N1    N     N_R   0.500000 0.750030 0.500000 -0.136267
N2    N     N_R   0.500000 0.249970 0.500000 -0.131874
O1    O     O_R   0.367850 0.580280 0.500030 -0.605214
O2    O     O_R   0.632150 0.419720 0.499970 -0.604940
O3    O     O_R   0.632150 0.580280 0.499970 -0.613566
O4    O     O_R   0.367850 0.419720 0.500030 -0.599355
O5    O     O_R   0.499970 0.580260 0.313950 -0.585249
O6    O     O_R   0.500030 0.419740 0.686050 -0.585679
O7    O     O_R   0.500030 0.580260 0.686050 -0.576225
O8    O     O_R   0.499970 0.419740 0.313950 -0.584888
Zn1   Zn    Zn3+2 0.500000 0.607200 0.500000 1.022034
Zn2   Zn    Zn3+2 0.500000 0.392800 0.500000 1.035254
I1    I     I_    0.288395 0.506638 0.931019 -0.391441
I2    I     I_    0.727688 0.476348 0.068320 -0.387629
I3    I     I_    0.406759 0.709604 0.110683 -0.279530
I4    I     I_    0.604315 0.288525 0.878208 -0.254971
I5    I     I_    0.632690 0.691434 0.873119 -0.313820
I6    I     I_    0.384651 0.303093 0.121934 -0.227756
C43   C     C_3   0.061405 0.550060 0.846727 -0.413010
C44   C     C_3   0.100076 0.650950 0.818820 -0.314863
C45   C     C_3   0.123584 0.705230 0.935847 -0.820323
H7    H     H_    0.152630 0.657708 0.004292 0.282960
H8    H     H_    0.173350 0.761802 0.907837 0.276392
H9    H     H_    0.063553 0.741021 0.981621 0.238548
H10   H     H_    0.161932 0.645780 0.753875 0.256246
H11   H     H_    0.051077 0.693922 0.770457 0.216363
H12   H     H_    0.004852 0.554855 0.920467 0.200824
H13   H     H_    0.110282 0.501485 0.883334 0.233911
C46   C     C_3   0.933114 0.622123 0.170578 -0.428856
C47   C     C_3   0.898762 0.721871 0.206267 -0.377821
C48   C     C_3   0.859254 0.770154 0.095296 -0.781160
H14   H     H_    0.911207 0.779897 0.015285 0.246513
H15   H     H_    0.803616 0.726658 0.062976 0.305347
H16   H     H_    0.832682 0.841101 0.124935 0.255174
H17   H     H_    0.846472 0.717527 0.286411 0.245881
H18   H     H_    0.954892 0.766098 0.236097 0.223618
H19   H     H_    0.987069 0.630675 0.094695 0.209770
H20   H     H_    0.881038 0.578417 0.131653 0.237697
I7    I     I_    0.644289 0.735636 0.284608 -0.342211
I8    I     I_    0.350706 0.267896 0.710616 -0.287747
I9    I     I_    0.352157 0.734783 0.712949 -0.319162
I10   I     I_    0.653479 0.261236 0.292421 -0.257780
C49   C     C_3   0.251374 0.890696 0.518540 -0.458087
C50   C     C_3   0.260606 0.836593 0.392317 -0.298643
C51   C     C_3   0.173544 0.785184 0.368757 -0.859115
H21   H     H_    0.154622 0.734123 0.446346 0.269877
H22   H     H_    0.118318 0.837058 0.362399 0.250673
H23   H     H_    0.182944 0.745258 0.278520 0.265474
H24   H     H_    0.277993 0.887535 0.313973 0.240889
H25   H     H_    0.314420 0.782587 0.391159 0.253356
H26   H     H_    0.232132 0.841668 0.597067 0.223839
H27   H     H_    0.191635 0.935551 0.515305 0.206285
C52   C     C_3   0.745767 0.108480 0.497991 -0.419221
C53   C     C_3   0.767526 0.092848 0.635062 -0.350257
C54   C     C_3   0.841498 0.160342 0.670258 -0.823365
H28   H     H_    0.902943 0.150118 0.605304 0.252567
H29   H     H_    0.819287 0.235477 0.665028 0.278241
H30   H     H_    0.857658 0.145492 0.768156 0.260799
H31   H     H_    0.706373 0.105693 0.700036 0.257712
H32   H     H_    0.789887 0.019143 0.649905 0.231765
H33   H     H_    0.804079 0.093184 0.429209 0.200592
H34   H     H_    0.735224 0.185771 0.490748 0.236882
C55   C     C_3   0.752364 0.895283 0.459969 -0.447788
C56   C     C_3   0.753973 0.827277 0.573538 -0.310907
C57   C     C_3   0.848342 0.790123 0.587953 -0.870032
H35   H     H_    0.874761 0.751497 0.501667 0.260455
H36   H     H_    0.894296 0.849885 0.605721 0.252443
H37   H     H_    0.846362 0.740168 0.669022 0.271522
H38   H     H_    0.728966 0.864442 0.661808 0.237634
H39   H     H_    0.709947 0.764913 0.562218 0.259973
H40   H     H_    0.767116 0.856657 0.370740 0.220059
H41   H     H_    0.810896 0.943002 0.460447 0.208342
C58   C     C_3   0.248436 0.104170 0.541964 -0.401765
C59   C     C_3   0.186208 0.096554 0.665298 -0.322108
C60   C     C_3   0.106842 0.164314 0.663454 -0.837310
H42   H     H_    0.130577 0.239294 0.657622 0.282973
H43   H     H_    0.068531 0.148548 0.581197 0.251231
H44   H     H_    0.061568 0.155491 0.751199 0.254335
H45   H     H_    0.159700 0.023428 0.680464 0.208462
H46   H     H_    0.223475 0.113220 0.748051 0.260177
H47   H     H_    0.261326 0.179991 0.518518 0.227739
H48   H     H_    0.213221 0.079734 0.460328 0.193355

loop_
_geom_bond_atom_site_label_1
_geom_bond_atom_site_label_2
_ccdc_geom_bond_type
C38   C40   A    
C51   H21   S    
O5    Zn1   S    
C27   C29   S    
C31   I1    S    
C55   C56   S    
C58   H48   S    
C6    C9    A    
C8    H6    S    
O3    Zn1   S    
C50   H25   S    
C60   H42   S    
C39   C41   A    
O4    Zn2   S    
C46   C47   S    
C15   C19   A    
C17   C23   A    
C22   C52   S    
C18   C24   A    
C50   C51   S    
C35   C37   A    
C8    C42   A    
C29   C32   S    
C30   C31   S    
C60   H43   S    
C44   H11   S    
C29   C33   S    
C55   H40   S    
C59   H45   S    
C45   H8    S    
C14   I10   S    
O2    Zn2   S    
C47   H17   S    
C11   C17   A    
C19   C20   A    
C11   I7    S    
C44   C45   S    
C31   C33   S    
C53   H32   S    
C49   H27   S    
C35   H1    S    
C18   C20   A    
C25   C34   S    
C39   H3    S    
C57   H37   S    
C40   C42   A    
C52   H33   S    
C46   H19   S    
C51   H22   S    
C45   H7    S    
C14   N2    A    
C56   C57   S    
C10   C46   S    
C50   H24   S    
C27   C34   S    
C30   C34   S    
C27   C31   S    
C43   C44   S    
C52   C53   S    
C28   C32   S    
C4    C6    A    
C49   C50   S    
C48   H15   S    
C12   I8    S    
C47   C48   S    
C60   H44   S    
C44   H10   S    
O6    Zn2   S    
C55   H41   S    
C7    H5    S    
C45   H9    S    
C40   H4    S    
C1    O4    A    
C9    C43   S    
C11   N1    A    
C26   C33   S    
C16   C20   A    
C53   H31   S    
C54   H29   S    
C1    O1    A    
C58   C59   S    
C30   I6    S    
C27   I3    S    
C1    C38   S    
C29   I5    S    
C28   I4    S    
C28   C33   S    
C51   H23   S    
C13   C15   A    
C13   N1    A    
C36   H2    S    
O1    Zn1   S    
C25   O8    A    
C3    C4    A    
C57   H35   S    
C21   C49   S    
C7    C9    A    
C3    C41   A    
C16   C22   A    
C13   I9    S    
C25   O5    A    
C58   H47   S    
C3    C5    A    
C2    O3    A    
C26   O6    A    
C46   H20   S    
C48   H16   S    
C12   N2    A    
C23   C55   S    
N1    Zn1   S    
C2    O2    A    
N2    Zn2   S    
C28   C30   S    
C52   H34   S    
C32   I2    S    
C5    C10   A    
C37   C39   A    
C56   H39   S    
C2    C37   S    
C56   H38   S    
C4    C42   A    
C5    C35   A    
C36   C38   A    
C24   C58   S    
C17   C19   A    
C6    C36   A    
C54   H30   S    
C14   C16   A    
C7    C41   A    
C59   H46   S    
C53   C54   S    
C26   O7    A    
O7    Zn1   S    
C48   H14   S    
C47   H18   S    
C15   C21   A    
C43   H12   S    
C8    C10   A    
C21   C24   A    
C12   C18   A    
C54   H28   S    
C22   C23   A    
C43   H13   S    
C49   H26   S    
C59   C60   S    
O8    Zn2   S    
C32   C34   S    
C57   H36   S    
