data_mof_unit_19781.cif
_audit_creation_date              2012-10-26T21:02:35-0400
_audit_creation_method            fapswitch 2.2
_symmetry_space_group_name_H-M    P1
_symmetry_Int_Tables_number       1
_space_group_crystal_system       triclinic
_cell_length_a                    12.317454
_cell_length_b                    13.191171
_cell_length_c                    15.093628
_cell_angle_alpha                 77.256911
_cell_angle_beta                  101.353249
_cell_angle_gamma                 116.599721
_cell_volume                      2125.27855808

loop_
_atom_site_label
_atom_site_type_symbol
_atom_type_description
_atom_site_fract_x
_atom_site_fract_y
_atom_site_fract_z
_atom_type_partial_charge
C1    C     C_R   0.854909 0.286597 0.507767 0.517517
C2    C     C_R   0.078159 0.463960 0.833267 -0.132221
C3    C     C_R   0.998960 0.499014 0.767822 -0.011680
C4    C     C_R   0.999626 0.499828 0.671095 0.539816
C5    C     C_R   0.918998 0.532421 0.795168 -0.155801
C6    C     C_R   0.274980 0.023038 0.379377 -0.135414
C7    C     C_R   0.227939 0.834835 0.467732 -0.001857
C8    C     C_R   0.815777 0.084590 0.565832 -0.134564
C9    C     C_R   0.737108 0.969442 0.583182 -0.139736
C10   C     C_R   0.613636 0.932098 0.551519 -0.117893
C11   C     C_R   0.566612 0.009550 0.498184 0.039680
C12   C     C_R   0.915376 0.526780 0.073919 0.004765
C13   C     C_R   0.649973 0.124363 0.471503 0.030598
C14   C     C_R   0.439829 0.976567 0.469549 0.035436
C15   C     C_R   0.399842 0.054634 0.408072 0.056899
C16   C     C_R   0.145084 0.713492 0.486468 0.551889
C17   C     C_R   0.484997 0.162262 0.374103 -0.133952
C18   C     C_R   0.608279 0.196004 0.404073 -0.120875
C19   C     C_R   0.351158 0.868428 0.500847 -0.130992
C20   C     C_R   0.189342 0.913202 0.408566 -0.135563
C21   C     C_R   0.773121 0.163618 0.512245 -0.001450
C22   C     C_R   0.344430 0.325617 0.645349 -0.132820
C23   C     C_R   0.154480 0.422551 0.083475 -0.117527
C24   C     C_R   0.760580 0.647795 0.376613 0.445918
C25   C     C_R   0.664002 0.681968 0.354063 -0.144807
C26   C     C_R   0.561141 0.625475 0.400526 -0.162689
C27   C     C_R   0.552113 0.534848 0.472401 -0.032582
C28   C     C_R   0.998759 0.497275 0.328980 0.553562
C29   C     C_R   0.653126 0.504745 0.495882 0.085917
C30   C     C_R   0.447404 0.474408 0.522428 -0.047154
C31   C     C_R   0.446129 0.385610 0.595701 0.047845
C32   C     C_R   0.546701 0.358496 0.619778 0.234926
C33   C     C_R   0.647247 0.417064 0.569897 -0.085444
C34   C     C_R   0.156088 0.425958 0.991008 -0.151490
C35   C     C_R   0.342636 0.497883 0.502801 0.061635
C36   C     C_R   0.245381 0.353580 0.622962 0.015368
C37   C     C_R   0.916953 0.525880 0.166772 -0.174592
C38   C     C_R   0.996071 0.490952 0.232539 -0.031080
C39   C     C_R   0.071358 0.450295 0.205598 0.256807
C40   C     C_R   0.074084 0.454732 0.112301 0.026144
C41   C     C_R   0.995375 0.492159 0.046629 -0.028759
C42   C     C_3   0.630441 0.307613 0.762090 -0.129737
C43   C     C_3   0.081853 0.292293 0.296515 -0.108450
C44   C     C_3   0.848615 0.748131 0.241694 -0.159692
C45   C     C_R   0.077505 0.461530 0.925791 0.022234
C46   C     C_3   0.786991 0.711632 0.004617 -0.145033
C47   C     C_R   0.996813 0.494871 0.953372 0.050500
C48   C     C_R   0.917216 0.530270 0.887623 -0.036787
C49   C     C_R   0.836804 0.562644 0.915070 -0.121004
C50   C     C_R   0.837209 0.564034 0.007778 0.284751
Cu1   Cu    Cu3+1 0.098270 0.475420 0.521130 0.944854
Cu2   Cu    Cu3+1 0.901730 0.524580 0.478870 0.976064
H1    H     H_    0.857087 0.553711 0.188075 0.187087
H2    H     H_    0.341252 0.257733 0.701727 0.149543
H3    H     H_    0.334900 0.562689 0.447801 0.138779
H4    H     H_    0.491012 0.656224 0.379390 0.115528
H5    H     H_    0.667868 0.753505 0.301360 0.094964
H6    H     H_    0.718926 0.390388 0.591856 0.192284
H7    H     H_    0.216744 0.394845 0.132184 0.155585
H8    H     H_    0.218693 0.400503 0.970507 0.110523
H9    H     H_    0.139956 0.437720 0.812444 0.124490
H10   H     H_    0.857869 0.559861 0.744613 0.122469
H11   H     H_    0.773369 0.586695 0.864485 0.106418
H12   H     H_    0.456241 0.220785 0.323982 0.112572
H13   H     H_    0.094072 0.888333 0.382154 0.160552
H14   H     H_    0.632102 0.385574 0.780679 0.110434
H15   H     H_    0.722176 0.323945 0.747376 0.123359
H16   H     H_    0.607519 0.239872 0.822692 0.149010
H17   H     H_    0.141548 0.261464 0.349065 0.144747
H18   H     H_    0.057003 0.244556 0.237942 0.092597
H19   H     H_    0.998374 0.272225 0.327644 0.124974
H20   H     H_    0.843735 0.831703 0.234178 0.098505
H21   H     H_    0.765991 0.685603 0.205693 0.131309
H22   H     H_    0.928436 0.764082 0.208182 0.138766
H23   H     H_    0.243994 0.082252 0.332366 0.100039
H24   H     H_    0.884207 0.765147 0.027734 0.104278
H25   H     H_    0.729374 0.737021 0.034757 0.131653
H26   H     H_    0.768411 0.730001 0.929121 0.119342
H27   H     H_    0.375350 0.807509 0.550620 0.119746
H28   H     H_    0.909858 0.112164 0.596340 0.126704
H29   H     H_    0.558284 0.841583 0.568268 0.102046
H30   H     H_    0.771337 0.909079 0.623934 0.116174
H31   H     H_    0.670211 0.277878 0.371483 0.148266
H32   H     H_    0.167149 0.307584 0.661191 0.117985
N1    N     N_R   0.246280 0.438190 0.553160 -0.235754
N2    N     N_R   0.754320 0.561190 0.447410 -0.222467
O1    O     O_R   0.972510 0.318130 0.526570 -0.513525
O2    O     O_3   0.146789 0.411402 0.269839 -0.558160
O3    O     O_3   0.867844 0.705463 0.334890 -0.532451
O4    O     O_3   0.755374 0.593748 0.034698 -0.579755
O5    O     O_R   0.806530 0.359650 0.490890 -0.534682
O6    O     O_R   0.082980 0.479210 0.647590 -0.507585
O7    O     O_R   0.917000 0.520730 0.611900 -0.534702
O8    O     O_R   0.193470 0.640350 0.509110 -0.519340
O9    O     O_R   0.027490 0.681870 0.473430 -0.446108
O10   O     O_R   0.083000 0.479270 0.388100 -0.454014
O11   O     O_R   0.917020 0.520790 0.352410 -0.480776
O12   O     O_3   0.541694 0.267196 0.687968 -0.572891

loop_
_geom_bond_atom_site_label_1
_geom_bond_atom_site_label_2
_ccdc_geom_bond_type
C28   O11   A    
C1    O1    A    
C42   H16   S    
C1    C21   S    
C33   H6    S    
C49   H11   S    
C27   C29   A    
C11   C13   A    
C24   O3    S    
Cu1   N1    S    
C46   H24   S    
C6    H23   S    
C22   H2    S    
C23   H7    S    
C26   C27   A    
C37   C38   A    
C30   C35   A    
C43   O2    S    
C42   O12   S    
C17   H12   S    
C30   C31   A    
C11   C14   A    
C23   C40   A    
C29   C33   A    
Cu2   O11   S    
Cu2   O9    S    
C12   C37   A    
C6    C15   A    
C50   O4    S    
C47   C48   A    
C8    C9    A    
C9    C10   A    
C2    H9    S    
Cu1   O10   S    
C37   H1    S    
C1    O5    A    
C27   C30   A    
C34   H8    S    
C25   H5    S    
C39   O2    S    
C18   H31   S    
C45   C47   A    
C2    C45   A    
C5    C48   A    
C22   C31   A    
C35   H3    S    
Cu1   Cu2   S    
C20   H13   S    
C24   C25   A    
Cu1   O1    S    
C39   C40   A    
C46   H26   S    
C25   C26   A    
C26   H4    S    
C19   H27   S    
C12   C41   A    
Cu1   O6    S    
C31   C32   A    
C28   C38   S    
C23   C34   A    
C17   C18   A    
C41   C47   A    
C13   C21   A    
Cu2   O7    S    
C34   C45   A    
C44   H22   S    
C29   N2    A    
C13   C18   A    
C48   C49   A    
C7    C20   A    
C43   H18   S    
C7    C19   A    
C42   H15   S    
C3    C4    S    
C6    C20   A    
C42   H14   S    
C15   C17   A    
C7    C16   S    
C16   O9    A    
C43   H19   S    
C14   C19   A    
C3    C5    A    
C8    C21   A    
C46   H25   S    
C12   C50   A    
C46   O4    S    
C36   N1    A    
C22   C36   A    
C9    H30   S    
C10   H29   S    
C16   O8    A    
C28   O10   A    
C32   C33   A    
Cu2   N2    S    
C2    C3    A    
C35   N1    A    
C38   C39   A    
C36   H32   S    
C32   O12   S    
C5    H10   S    
C44   H20   S    
C44   H21   S    
C10   C11   A    
Cu1   O8    S    
C4    O7    A    
C43   H17   S    
C49   C50   A    
C8    H28   S    
C14   C15   A    
Cu2   O5    S    
C40   C41   A    
C24   N2    A    
C44   O3    S    
C4    O6    A    
