data_mof_unit_42476.cif
_audit_creation_date              2012-10-26T19:04:19-0400
_audit_creation_method            fapswitch 2.2
_symmetry_space_group_name_H-M    P1
_symmetry_Int_Tables_number       1
_space_group_crystal_system       triclinic
_cell_length_a                    15.051305
_cell_length_b                    15.583278
_cell_length_c                    9.573391
_cell_angle_alpha                 88.810805
_cell_angle_beta                  90.895858
_cell_angle_gamma                 90.038478
_cell_volume                      2244.66795126

loop_
_atom_site_label
_atom_site_type_symbol
_atom_type_description
_atom_site_fract_x
_atom_site_fract_y
_atom_site_fract_z
_atom_type_partial_charge
C1    C     C_R   0.387084 0.875844 0.501152 0.629522
C2    C     C_R   0.718944 0.218073 0.377074 -0.155538
C3    C     C_R   0.237423 0.301216 0.389786 -0.158272
C4    C     C_R   0.218944 0.718073 0.377074 -0.155538
C5    C     C_R   0.687634 0.813560 0.510191 0.004057
C6    C     C_R   0.678588 0.193634 0.502594 -0.002708
C7    C     C_R   0.187634 0.313560 0.510191 0.004057
C8    C     C_R   0.178588 0.693634 0.502594 -0.002708
C9    C     C_R   0.663873 0.004955 0.147192 -0.136280
C10   C     C_R   0.163873 0.504955 0.147192 -0.136280
C11   C     C_R   0.744257 0.009442 0.076832 -0.029716
C12   C     C_R   0.377046 0.114471 0.498018 0.588808
C13   C     C_R   0.244257 0.509442 0.076832 -0.029716
C14   C     C_R   0.743256 0.008196 0.932185 -0.132005
C15   C     C_R   0.243256 0.508196 0.932185 -0.132005
C16   C     C_R   0.663253 0.003264 0.859100 -0.134956
C17   C     C_R   0.163253 0.503264 0.859100 -0.134956
C18   C     C_R   0.580380 0.002007 0.926818 0.134654
C19   C     C_R   0.080380 0.502007 0.926818 0.134654
C20   C     C_R   0.580487 0.002380 0.076373 0.145010
C21   C     C_R   0.080487 0.502380 0.076373 0.145010
C22   C     C_R   0.423597 0.997609 0.072253 -0.010873
C23   C     C_R   0.887084 0.375845 0.501152 0.629522
C24   C     C_R   0.923597 0.497609 0.072253 -0.010873
C25   C     C_R   0.614393 0.123058 0.500194 0.531459
C26   C     C_R   0.620209 0.881672 0.502983 0.556986
C27   C     C_R   0.114393 0.623058 0.500194 0.531459
C28   C     C_R   0.120209 0.381672 0.502983 0.556986
C29   C     C_R   0.423703 0.997601 0.924311 -0.012486
C30   C     C_R   0.923703 0.497601 0.924311 -0.012486
C31   C     C_R   0.226204 0.106042 0.698084 0.040313
C32   C     C_R   0.340439 0.770529 0.763401 0.033862
C33   C     C_R   0.726204 0.606042 0.698085 0.040313
C34   C     C_R   0.877046 0.614471 0.498018 0.588808
C35   C     C_R   0.840439 0.270529 0.763401 0.033862
C36   C     C_R   0.191674 0.121506 0.829902 -0.129757
C37   C     C_R   0.292904 0.762514 0.887626 -0.152382
C38   C     C_R   0.691674 0.621506 0.829902 -0.129757
C39   C     C_R   0.792904 0.262514 0.887626 -0.152383
C40   C     C_R   0.666030 0.703906 0.864235 -0.111851
C41   C     C_R   0.702560 0.243972 0.883073 -0.135052
C42   C     C_R   0.166030 0.203906 0.864235 -0.111851
C43   C     C_R   0.202560 0.743972 0.883073 -0.135052
C44   C     C_R   0.666247 0.769535 0.762987 -0.064818
C45   C     C_R   0.297353 0.234362 0.384377 -0.153488
C46   C     C_R   0.661508 0.224719 0.756043 -0.093020
C47   C     C_R   0.166247 0.269535 0.762987 -0.064818
C48   C     C_R   0.161508 0.724719 0.756044 -0.093021
C49   C     C_R   0.697693 0.754976 0.626616 0.036817
C50   C     C_R   0.709853 0.228279 0.630380 0.012433
C51   C     C_R   0.197693 0.254976 0.626616 0.036817
C52   C     C_R   0.209853 0.728279 0.630380 0.012432
C53   C     C_R   0.241968 0.176722 0.604885 0.052403
C54   C     C_R   0.294038 0.767347 0.632644 0.045052
C55   C     C_R   0.741968 0.676721 0.604885 0.052404
C56   C     C_R   0.289004 0.775420 0.377666 -0.132619
C57   C     C_R   0.794038 0.267347 0.632644 0.045052
C58   C     C_R   0.301870 0.173280 0.493049 0.026887
C59   C     C_R   0.326265 0.802223 0.504489 0.048211
C60   C     C_R   0.801870 0.673280 0.493049 0.026887
C61   C     C_R   0.826265 0.302223 0.504489 0.048211
C62   C     C_2   0.231000 0.015472 0.654126 0.248021
C63   C     C_2   0.438371 0.765339 0.774313 0.270713
C64   C     C_2   0.731000 0.515472 0.654127 0.248021
C65   C     C_2   0.938370 0.265339 0.774313 0.270713
C66   C     C_2   0.829031 0.014506 0.156905 0.218739
C67   C     C_R   0.797352 0.734362 0.384376 -0.153487
C68   C     C_2   0.329031 0.514505 0.156905 0.218739
C69   C     C_R   0.789004 0.275420 0.377666 -0.132620
C70   C     C_R   0.737423 0.801216 0.389786 -0.158272
Cu1   Cu    Cu3+1 0.499990 0.000000 0.640660 0.934375
Cu2   Cu    Cu3+1 0.999990 0.500000 0.640660 0.934375
Cu3   Cu    Cu3+1 0.500010 0.000000 0.359340 0.950405
Cu4   Cu    Cu3+1 0.000010 0.500000 0.359340 0.950405
H1    H     H_    0.341127 0.231174 0.295836 0.142550
H2    H     H_    0.861263 0.495528 0.867859 0.099284
H3    H     H_    0.182210 0.069365 0.904852 0.108435
H4    H     H_    0.326316 0.767643 0.988203 0.104344
H5    H     H_    0.682210 0.569365 0.904853 0.108435
H6    H     H_    0.826316 0.267643 0.988203 0.104344
H7    H     H_    0.640998 0.716035 0.967403 0.124882
H8    H     H_    0.665483 0.239368 0.978950 0.126109
H9    H     H_    0.140997 0.216034 0.967402 0.124882
H10   H     H_    0.165483 0.739368 0.978950 0.126109
H11   H     H_    0.643709 0.830747 0.797139 0.145344
H12   H     H_    0.314091 0.798532 0.278317 0.132923
H13   H     H_    0.591521 0.209307 0.757486 0.156511
H14   H     H_    0.143709 0.330747 0.797139 0.145344
H15   H     H_    0.091521 0.709307 0.757486 0.156511
H16   H     H_    0.732732 0.845492 0.301261 0.128080
H17   H     H_    0.695553 0.194016 0.277682 0.135722
H18   H     H_    0.232732 0.345493 0.301261 0.128080
H19   H     H_    0.195553 0.694016 0.277682 0.135722
H20   H     H_    0.360970 0.995706 0.126163 0.126770
H21   H     H_    0.860970 0.495706 0.126163 0.126770
H22   H     H_    0.670897 0.002917 0.257319 0.168183
H23   H     H_    0.841127 0.731173 0.295836 0.142550
H24   H     H_    0.170897 0.502917 0.257319 0.168183
H25   H     H_    0.232612 0.963790 0.731905 0.089230
H26   H     H_    0.472465 0.782097 0.870740 0.090518
H27   H     H_    0.732612 0.463790 0.731906 0.089230
H28   H     H_    0.972465 0.282097 0.870740 0.090518
H29   H     H_    0.828623 0.014641 0.270315 0.102794
H30   H     H_    0.328623 0.514639 0.270315 0.102793
H31   H     H_    0.814091 0.298532 0.278317 0.132923
H32   H     H_    0.804717 0.010147 0.874729 0.174330
H33   H     H_    0.304717 0.510147 0.874729 0.174330
H34   H     H_    0.670821 0.999440 0.749567 0.185864
H35   H     H_    0.170821 0.499440 0.749567 0.185864
H36   H     H_    0.361263 0.995528 0.867859 0.099284
N1    N     N_R   0.501200 0.000000 0.147910 -0.242871
N2    N     N_R   0.001200 0.500000 0.147910 -0.242871
N3    N     N_R   0.501270 0.000000 0.852040 -0.251736
N4    N     N_R   0.001270 0.500000 0.852040 -0.251736
O1    O     O_R   0.409820 0.909830 0.618810 -0.496820
O2    O     O_R   0.590170 0.909830 0.618760 -0.527570
O3    O     O_R   0.090170 0.590170 0.618760 -0.533017
O4    O     O_R   0.090170 0.409830 0.618760 -0.527570
O5    O     O_R   0.590190 0.090180 0.381190 -0.528875
O6    O     O_R   0.590190 0.909820 0.381190 -0.520696
O7    O     O_R   0.090190 0.590180 0.381190 -0.528875
O8    O     O_R   0.090190 0.409820 0.381190 -0.520696
O9    O     O_2   0.227248 0.997276 0.530746 -0.507206
O10   O     O_2   0.481433 0.738634 0.677359 -0.501965
O11   O     O_2   0.727248 0.497277 0.530747 -0.507206
O12   O     O_R   0.409820 0.090170 0.618810 -0.507815
O13   O     O_2   0.981433 0.238634 0.677359 -0.501965
O14   O     O_2   0.900197 0.018838 0.097601 -0.495202
O15   O     O_2   0.400197 0.518837 0.097601 -0.495202
O16   O     O_R   0.909820 0.409830 0.618810 -0.496820
O17   O     O_R   0.909820 0.590170 0.618810 -0.507815
O18   O     O_R   0.409840 0.909830 0.381240 -0.497560
O19   O     O_R   0.409840 0.090170 0.381240 -0.493446
O20   O     O_R   0.909840 0.409830 0.381240 -0.497560
O21   O     O_R   0.909840 0.590170 0.381240 -0.493446
O22   O     O_R   0.590170 0.090170 0.618760 -0.533017

loop_
_geom_bond_atom_site_label_1
_geom_bond_atom_site_label_2
_ccdc_geom_bond_type
C44   C49   A    
C33   C55   A    
Cu3   O5    S    
C22   C29   A    
C5    C26   S    
C36   C42   A    
C24   N2    A    
C4    C8    A    
C1    O18   A    
C63   O10   D    
C27   O7    A    
C39   C41   A    
C70   H16   S    
C5    C70   A    
C67   H23   S    
C65   O13   D    
C19   C21   A    
C26   O6    A    
C3    C7    A    
C36   H3    S    
C1    C59   S    
Cu4   N2    S    
C11   C14   A    
C28   O8    A    
C6    C25   S    
C12   O12   A    
C38   H5    S    
C35   C65   S    
Cu2   N4    S    
Cu1   N3    S    
C15   H33   S    
C10   H24   S    
C25   O22   A    
C68   O15   D    
C60   C67   A    
Cu2   O3    S    
C41   C46   A    
Cu1   O12   S    
C2    C69   A    
C43   C48   A    
C8    C52   A    
C40   C44   A    
C11   C66   S    
C12   C58   S    
Cu3   O18   S    
Cu3   O6    S    
C55   C60   A    
C4    C56   A    
C34   C60   S    
C43   H10   S    
C22   H20   S    
C31   C62   S    
C5    C49   A    
C2    C6    A    
C65   H28   S    
C25   O5    A    
C18   N3    A    
C32   C54   A    
C62   O9    D    
C52   C54   A    
Cu3   N1    S    
C24   C30   A    
C54   C59   A    
C27   O3    A    
C10   C21   A    
C64   H27   S    
C45   C58   A    
C29   H36   S    
Cu2   Cu4   S    
C24   H21   S    
Cu1   O22   S    
Cu1   Cu3   S    
C69   H31   S    
C47   C51   A    
C19   N4    A    
C49   C55   A    
C3    C45   A    
C31   C53   A    
C7    C28   S    
C4    H19   S    
C23   O16   A    
C3    H18   S    
C51   C53   A    
C37   C43   A    
C35   C39   A    
C63   H26   S    
C20   N1    A    
C30   H2    S    
C9    C20   A    
C56   H12   S    
C23   C61   S    
Cu4   O21   S    
Cu1   O1    S    
C32   C37   A    
C6    C50   A    
C57   C61   A    
C9    C11   A    
C9    H22   S    
C45   H1    S    
Cu4   O8    S    
Cu3   O19   S    
C34   O17   A    
C22   N1    A    
C48   H15   S    
C13   C15   A    
C14   C16   A    
C44   H11   S    
C21   N2    A    
Cu2   O17   S    
C46   H13   S    
C30   N4    A    
C61   C69   A    
C15   C17   A    
C29   N3    A    
C23   O20   A    
C50   C57   A    
C66   H29   S    
C42   H9    S    
C68   H30   S    
C32   C63   S    
C10   C13   A    
C17   H35   S    
C53   C58   A    
Cu2   O16   S    
C37   H4    S    
C46   C50   A    
C33   C38   A    
C56   C59   A    
C35   C57   A    
C40   H7    S    
C67   C70   A    
C47   H14   S    
C7    C51   A    
C28   O4    A    
C39   H6    S    
C38   C40   A    
C34   O21   A    
C33   C64   S    
C41   H8    S    
Cu4   O20   S    
C17   C19   A    
C66   O14   D    
Cu1   O2    S    
C18   C20   A    
C42   C47   A    
C2    H17   S    
C26   O2    A    
C16   H34   S    
C62   H25   S    
C48   C52   A    
Cu4   O7    S    
C16   C18   A    
C64   O11   D    
C14   H32   S    
Cu2   O4    S    
C8    C27   S    
C31   C36   A    
C1    O1    A    
C12   O19   A    
C13   C68   S    
