data_mof_unit_29062.cif
_audit_creation_date              2013-03-05T16:10:15-0500
_audit_creation_method            fapswitch 2.2
_symmetry_space_group_name_H-M    P1
_symmetry_Int_Tables_number       1
_space_group_crystal_system       triclinic
_cell_length_a                    9.840783
_cell_length_b                    10.713634
_cell_length_c                    13.046571
_cell_angle_alpha                 90.026299
_cell_angle_beta                  71.555809
_cell_angle_gamma                 89.998711
_cell_volume                      1304.85029355

loop_
_atom_site_label
_atom_site_type_symbol
_atom_site_description
_atom_site_fract_x
_atom_site_fract_y
_atom_site_fract_z
_atom_type_partial_charge
O1    O     O_R   0.385370 0.683250 0.500010 -0.618918
O2    O     O_R   0.614700 0.683220 0.500010 -0.617882
C1    C     C_R   0.499957 0.740127 0.500199 0.883988
O3    O     O_R   0.328400 0.499990 0.653620 -0.613758
O4    O     O_R   0.557730 0.499960 0.653620 -0.630129
C2    C     C_R   0.424493 0.476943 0.700853 0.901705
Zn1   Zn    Zn3+2 0.346870 0.500020 0.500000 0.946860
Zn2   Zn    Zn3+2 0.653130 0.499980 0.500000 0.947467
O5    O     O_R   0.385300 0.316780 0.499990 -0.628002
O6    O     O_R   0.614630 0.316750 0.499990 -0.634258
O7    O     O_R   0.442270 0.500040 0.346380 -0.622731
O8    O     O_R   0.671600 0.500010 0.346380 -0.604712
C3    C     C_R   0.499984 0.259869 0.499944 0.860036
C4    C     C_R   0.578059 0.498767 0.295738 0.890614
C5    C     C_R   0.807339 0.469601 0.005766 -0.101218
H1    H     H_    0.848253 0.521966 0.151689 0.171878
H2    H     H_    0.857477 0.399453 0.800937 0.156322
H3    H     H_    0.918150 0.481827 0.956926 0.139292
C6    C     C_R   0.623901 0.481507 0.179317 -0.080247
C7    C     C_R   0.243924 0.392843 0.867722 -0.296578
C8    C     C_R   0.207385 0.353211 0.975488 0.370646
C9    C     C_R   0.309359 0.363493 0.029646 -0.274773
C10   C     C_R   0.453108 0.394086 0.972344 0.033600
C11   C     C_R   0.494068 0.399596 0.859255 0.091348
C12   C     C_R   0.558335 0.420200 0.022369 0.100242
C13   C     C_R   0.704535 0.430883 0.958889 0.170357
C14   C     C_R   0.745409 0.402702 0.849361 -0.235703
C15   C     C_R   0.641022 0.383624 0.800396 -0.179712
C16   C     C_R   0.520605 0.446548 0.132148 -0.257134
C17   C     C_R   0.767460 0.493764 0.116066 -0.131180
C18   C     C_R   0.386542 0.422684 0.810251 -0.175266
H4    H     H_    0.409801 0.443632 0.181752 0.160327
H5    H     H_    0.162213 0.397700 0.828399 0.178121
H6    H     H_    0.277314 0.338850 0.114167 0.168572
H7    H     H_    0.677436 0.356075 0.716425 0.184529
C19   C     C_R   0.608692 0.936120 0.526161 -0.178103
H8    H     H_    0.692829 0.887335 0.546949 0.156608
C20   C     C_R   0.608668 0.064033 0.526133 -0.177438
H9    H     H_    0.692763 0.112897 0.546933 0.155979
C21   C     C_R   0.499821 0.127467 0.500296 -0.007098
C22   C     C_R   0.390800 0.063937 0.474777 -0.175878
H10   H     H_    0.306680 0.112701 0.453945 0.157625
C23   C     C_R   0.390767 0.936052 0.474882 -0.184985
H11   H     H_    0.306586 0.887244 0.454163 0.161708
C24   C     C_R   0.499812 0.872580 0.500431 -0.023712
C25   C     C_R   0.958307 0.428715 0.427809 -0.068114
H12   H     H_    0.927971 0.371756 0.370098 0.169818
C26   C     C_R   0.102196 0.428731 0.427825 -0.060935
H13   H     H_    0.180867 0.371694 0.370106 0.130314
N1    N     N_R   0.142790 0.500030 0.500030 -0.080592
C27   C     C_R   0.041560 0.570985 0.572421 -0.083735
H14   H     H_    0.071787 0.627733 0.630306 0.132974
C28   C     C_R   0.897704 0.571008 0.572362 -0.083688
H15   H     H_    0.818950 0.627802 0.630231 0.139561
N2    N     N_R   0.857180 0.499940 0.500010 -0.090054
N3    N     N_R   0.068532 0.301128 0.029091 0.195673
O9    O     O_R   0.019827 0.295014 0.134068 -0.435552
O10   O     O_R   0.998229 0.245042 0.973042 -0.404079

loop_
_geom_bond_atom_site_label_1
_geom_bond_atom_site_label_2
_geom_bond_distance
_ccdc_geom_bond_type
C25   N2    1.366060 A    
O1    C1    1.282441 A    
O4    Zn2   1.925525 S    
C20   C21   1.396951 A    
C10   C11   1.402361 A    
O6    C3    1.282454 A    
C5    H3    1.082916 S    
C22   C23   1.370111 A    
C22   H10   1.083771 S    
Zn2   O8    1.954330 S    
C19   C20   1.370415 A    
C2    C18   1.475805 S    
C11   C18   1.420489 A    
C19   C24   1.396978 A    
O1    Zn1   1.999301 S    
C28   H15   1.081750 S    
C7    C8    1.402513 A    
Zn1   O7    1.925526 S    
C23   C24   1.396975 A    
C8    N3    1.436405 S    
C13   C14   1.389534 A    
O4    C2    1.283971 A    
O3    Zn1   1.954329 S    
C26   H13   1.081895 S    
C7    H5    1.083288 S    
Zn2   N2    2.008053 S    
C26   N1    1.366739 A    
C19   H8    1.083739 S    
O8    C4    1.291856 A    
N1    C27   1.366095 A    
C16   H4    1.078085 S    
O2    C1    1.282548 A    
C28   N2    1.366508 A    
C23   H11   1.083685 S    
C12   C16   1.389958 A    
C20   H9    1.083775 S    
C9    H6    1.079525 S    
O7    C4    1.289839 A    
C25   C26   1.416041 A    
H1    C17   1.083103 S    
C27   H14   1.081750 S    
H2    C14   1.084290 S    
C10   C12   1.415634 A    
N3    O9    1.301734 A    
Zn1   N1    2.008183 S    
C5    C17   1.390751 A    
O3    C2    1.305285 A    
C14   C15   1.385732 A    
Zn1   O5    1.999244 S    
O5    C3    1.282573 A    
C25   H12   1.081765 S    
C21   C22   1.396767 A    
C5    C13   1.400313 A    
C27   C28   1.415902 A    
C12   C13   1.419520 A    
C8    C9    1.402487 A    
C6    C17   1.398731 A    
C4    C6    1.452897 S    
C1    C24   1.419055 S    
Zn2   O6    1.999303 S    
O2    Zn2   1.999245 S    
C9    C10   1.413681 A    
C11   C15   1.416848 A    
C15   H7    1.080280 S    
N3    O10   1.301599 A    
C3    C21   1.418510 S    
C7    C18   1.403040 A    
C6    C16   1.395679 A    
