data_mof_unit_40117.cif
_audit_creation_date              2012-12-11T14:44:20-0500
_audit_creation_method            fapswitch 2.2
_symmetry_space_group_name_H-M    P1
_symmetry_Int_Tables_number       1
_space_group_crystal_system       triclinic
_cell_length_a                    18.86067
_cell_length_b                    11.090867
_cell_length_c                    18.649
_cell_angle_alpha                 89.999974
_cell_angle_beta                  89.14873
_cell_angle_gamma                 89.999618
_cell_volume                      3900.58931645

loop_
_atom_site_label
_atom_site_type_symbol
_atom_type_description
_atom_site_fract_x
_atom_site_fract_y
_atom_site_fract_z
_atom_type_partial_charge
C1    C     C_R   0.732201 0.382574 0.147980 0.556629
C2    C     C_R   0.267803 0.382569 0.852024 0.556645
C3    C     C_R   0.232201 0.882574 0.147980 0.556629
C4    C     C_R   0.767803 0.882569 0.852024 0.556645
C5    C     C_R   0.510284 0.385713 0.925928 -0.079521
C6    C     C_R   0.489760 0.385734 0.074058 -0.079463
C7    C     C_R   0.010283 0.885713 0.925928 -0.079521
C8    C     C_R   0.989761 0.885734 0.074058 -0.079463
C9    C     C_R   0.004940 0.993927 0.963024 -0.087116
C10   C     C_R   0.995131 0.993937 0.036954 -0.087045
C11   C     C_R   0.504940 0.493927 0.963024 -0.087116
C12   C     C_R   0.495132 0.493937 0.036954 -0.087045
C13   C     C_R   0.675796 0.955121 0.026462 -0.133125
C14   C     C_R   0.324195 0.955050 0.973532 -0.133109
C15   C     C_R   0.175796 0.455121 0.026462 -0.133125
C16   C     C_R   0.824195 0.455050 0.973532 -0.133109
C17   C     C_R   0.681442 0.923980 0.953987 -0.121017
C18   C     C_R   0.318554 0.923913 0.046008 -0.121042
C19   C     C_R   0.181442 0.423980 0.953987 -0.121017
C20   C     C_R   0.818554 0.423913 0.046008 -0.121042
C21   C     C_R   0.743902 0.948252 0.916692 -0.010964
C22   C     C_R   0.256122 0.948268 0.083323 -0.011021
C23   C     C_R   0.243902 0.448252 0.916692 -0.010964
C24   C     C_R   0.756121 0.448268 0.083323 -0.011021
C25   C     C_R   0.791663 0.029950 0.946117 -0.112179
C26   C     C_R   0.208403 0.030051 0.053920 -0.112198
C27   C     C_R   0.291663 0.529950 0.946117 -0.112179
C28   C     C_R   0.708403 0.530051 0.053920 -0.112198
C29   C     C_R   0.788860 0.063284 0.017938 0.039818
C30   C     C_R   0.211179 0.063341 0.982088 0.039807
C31   C     C_R   0.288860 0.563284 0.017938 0.039818
C32   C     C_R   0.711179 0.563341 0.982088 0.039807
C33   C     C_R   0.731712 0.014802 0.061334 -0.018421
C34   C     C_R   0.268294 0.014792 0.938673 -0.018431
C35   C     C_R   0.231712 0.514802 0.061334 -0.018421
C36   C     C_R   0.768294 0.514792 0.938673 -0.018431
C37   C     C_R   0.493468 0.053519 0.463267 0.063877
C38   C     C_R   0.506537 0.053519 0.536740 0.063871
C39   C     C_R   0.993468 0.553519 0.463267 0.063877
C40   C     C_R   0.006537 0.553519 0.536740 0.063871
C41   C     C_R   0.500344 0.161977 0.574631 -0.025298
C42   C     C_R   0.499676 0.161978 0.425379 -0.025315
C43   C     C_R   0.000344 0.661977 0.574631 -0.025298
C44   C     C_R   0.999676 0.661978 0.425379 -0.025315
C45   C     C_R   0.531098 0.155223 0.147273 0.525751
C46   C     C_R   0.468900 0.155221 0.852728 0.525742
C47   C     C_R   0.031098 0.655223 0.147273 0.525751
C48   C     C_R   0.968900 0.655221 0.852728 0.525742
C49   C     C_R   0.501318 0.270179 0.537220 -0.169774
C50   C     C_R   0.498721 0.270180 0.462791 -0.169798
C51   C     C_R   0.001318 0.770179 0.537220 -0.169774
C52   C     C_R   0.998721 0.770180 0.462791 -0.169798
C53   C     C_R   0.824849 0.933787 0.450169 -0.161649
C54   C     C_R   0.175154 0.933788 0.549832 -0.161662
C55   C     C_R   0.324849 0.433787 0.450169 -0.161649
C56   C     C_R   0.675154 0.433788 0.549832 -0.161662
C57   C     C_R   0.834094 0.915793 0.522392 -0.030724
C58   C     C_R   0.165908 0.915807 0.477608 -0.030705
C59   C     C_R   0.334094 0.415793 0.522392 -0.030724
C60   C     C_R   0.665908 0.415807 0.477608 -0.030705
C61   C     C_R   0.784034 0.847003 0.562045 0.003206
C62   C     C_R   0.215959 0.847000 0.437954 0.003174
C63   C     C_R   0.284034 0.347003 0.562045 0.003206
C64   C     C_R   0.715959 0.347000 0.437954 0.003174
C65   C     C_R   0.728070 0.791708 0.525823 -0.096372
C66   C     C_R   0.271915 0.791687 0.474174 -0.096452
C67   C     C_R   0.228070 0.291708 0.525823 -0.096372
C68   C     C_R   0.771915 0.291687 0.474174 -0.096452
C69   C     C_R   0.715175 0.819271 0.453873 0.066003
C70   C     C_R   0.284826 0.819258 0.546119 0.066020
C71   C     C_R   0.215175 0.319271 0.453873 0.066003
C72   C     C_R   0.784826 0.319258 0.546119 0.066020
C73   C     C_R   0.761984 0.898286 0.417125 -0.001467
C74   C     C_R   0.238019 0.898280 0.582873 -0.001441
C75   C     C_R   0.261984 0.398286 0.417125 -0.001467
C76   C     C_R   0.738020 0.398280 0.582873 -0.001441
C77   C     C_R   0.727318 0.025667 0.140451 0.564546
C78   C     C_R   0.272681 0.025661 0.859552 0.564553
C79   C     C_R   0.227318 0.525667 0.140451 0.564546
C80   C     C_R   0.772681 0.525661 0.859552 0.564553
C81   C     C_R   0.709618 0.331232 0.360005 0.564153
C82   C     C_R   0.290379 0.331235 0.639994 0.564181
C83   C     C_R   0.209618 0.831232 0.360005 0.564153
C84   C     C_R   0.790379 0.831235 0.639994 0.564181
C85   C     C_R   0.530505 0.156610 0.353029 0.537825
C86   C     C_R   0.469500 0.156610 0.646974 0.537794
C87   C     C_R   0.030505 0.656610 0.353029 0.537825
C88   C     C_R   0.969500 0.656610 0.646974 0.537794
C89   C     C_R   0.743320 0.965651 0.352124 0.559180
C90   C     C_R   0.256682 0.965651 0.647875 0.559193
C91   C     C_R   0.243320 0.465651 0.352124 0.559180
C92   C     C_R   0.756682 0.465651 0.647875 0.559193
C93   C     C_R   0.498120 0.163195 0.924914 0.009474
C94   C     C_R   0.501872 0.163206 0.075089 0.009465
C95   C     C_R   0.998120 0.663195 0.924914 0.009474
C96   C     C_R   0.001872 0.663206 0.075089 0.009465
C97   C     C_R   0.502324 0.274467 0.962054 0.021447
C98   C     C_R   0.497694 0.274476 0.037941 0.021443
C99   C     C_R   0.002324 0.774467 0.962054 0.021447
C100  C     C_R   0.997694 0.774475 0.037941 0.021443
C101  C     C_R   0.499478 0.054953 0.036715 -0.168724
C102  C     C_R   0.500483 0.054947 0.963296 -0.168726
C103  C     C_R   0.999478 0.554953 0.036715 -0.168724
C104  C     C_R   0.000483 0.554947 0.963296 -0.168726
Cr1   Cr    Cr6+3 0.772000 0.169640 0.250110 1.066083
Cr2   Cr    Cr6+3 0.228000 0.169640 0.749890 1.066086
Cr3   Cr    Cr6+3 0.272000 0.669640 0.250110 1.066083
Cr4   Cr    Cr6+3 0.728000 0.669640 0.749890 1.066086
Cr5   Cr    Cr6+3 0.614960 0.323350 0.249260 1.046446
Cr6   Cr    Cr6+3 0.385040 0.323350 0.750740 1.046431
Cr7   Cr    Cr6+3 0.114960 0.823350 0.249260 1.046446
Cr8   Cr    Cr6+3 0.885040 0.823350 0.750740 1.046431
Cr9   Cr    Cr6+3 0.616670 0.010620 0.250840 1.101632
Cr10  Cr    Cr6+3 0.383330 0.010620 0.749160 1.101681
Cr11  Cr    Cr6+3 0.116670 0.510620 0.250840 1.101632
Cr12  Cr    Cr6+3 0.883330 0.510620 0.749160 1.101681
H1    H     H_    0.500799 0.968065 0.063228 0.138472
H2    H     H_    0.499142 0.968055 0.936791 0.138467
H3    H     H_    0.000799 0.468065 0.063228 0.138472
H4    H     H_    0.999142 0.468055 0.936791 0.138467
H5    H     H_    0.863799 0.988871 0.421949 0.155235
H6    H     H_    0.136207 0.988876 0.578053 0.155185
H7    H     H_    0.363799 0.488871 0.421949 0.155235
H8    H     H_    0.636207 0.488876 0.578053 0.155185
H9    H     H_    0.691576 0.733156 0.554748 0.156202
H10   H     H_    0.308399 0.733121 0.445245 0.156274
H11   H     H_    0.191576 0.233156 0.554748 0.156202
H12   H     H_    0.808399 0.233121 0.445245 0.156274
H13   H     H_    0.522412 0.390763 0.869205 0.152353
H14   H     H_    0.477629 0.390805 0.130779 0.152383
H15   H     H_    0.022412 0.890763 0.869205 0.152353
H16   H     H_    0.977628 0.890805 0.130779 0.152383
H17   H     H_    0.008058 0.078084 0.933991 0.177261
H18   H     H_    0.992030 0.078101 0.065981 0.177305
H19   H     H_    0.508058 0.578084 0.933991 0.177261
H20   H     H_    0.492030 0.578101 0.065981 0.177305
H21   H     H_    0.628973 0.927261 0.056167 0.170958
H22   H     H_    0.370999 0.927138 0.943817 0.171017
H23   H     H_    0.128973 0.427262 0.056167 0.170958
H24   H     H_    0.870999 0.427138 0.943817 0.171017
H25   H     H_    0.638764 0.877828 0.927871 0.171121
H26   H     H_    0.361217 0.877713 0.072114 0.171146
H27   H     H_    0.138764 0.377828 0.927871 0.171121
H28   H     H_    0.861217 0.377713 0.072114 0.171146
H29   H     H_    0.835852 0.060546 0.913294 0.204930
H30   H     H_    0.164276 0.060756 0.086777 0.204944
H31   H     H_    0.335852 0.560546 0.913294 0.204930
H32   H     H_    0.664276 0.560756 0.086777 0.204944
H33   H     H_    0.505616 0.352929 0.566248 0.166868
H34   H     H_    0.494438 0.352932 0.433763 0.166872
H35   H     H_    0.005616 0.852929 0.566248 0.166868
H36   H     H_    0.994438 0.852932 0.433763 0.166872
O1    O     O_R   0.787540 0.042690 0.170470 -0.451705
O2    O     O_R   0.212460 0.042690 0.829530 -0.451727
O3    O     O_R   0.287540 0.542690 0.170470 -0.451705
O4    O     O_R   0.712460 0.542690 0.829530 -0.451727
O5    O     O_R   0.556540 0.252920 0.323970 -0.521476
O6    O     O_R   0.443460 0.252920 0.676030 -0.521457
O7    O     O_R   0.056540 0.752920 0.323970 -0.521476
O8    O     O_R   0.943460 0.752920 0.676030 -0.521457
O9    O     O_R   0.545870 0.051100 0.330840 -0.452915
O10   O     O_R   0.454130 0.051100 0.669160 -0.452918
O11   O     O_R   0.045870 0.551100 0.330840 -0.452915
O12   O     O_R   0.954130 0.551100 0.669160 -0.452918
O13   O     O_R   0.681340 0.959300 0.325510 -0.449555
O14   O     O_R   0.318660 0.959300 0.674490 -0.449472
O15   O     O_R   0.181340 0.459300 0.325510 -0.449555
O16   O     O_R   0.818660 0.459300 0.674490 -0.449472
O17   O     O_3   0.667880 0.167870 0.250070 -0.321729
O18   O     O_3   0.332120 0.167870 0.749930 -0.321727
O19   O     O_3   0.167880 0.667870 0.250070 -0.321729
O20   O     O_3   0.832120 0.667870 0.749930 -0.321727
O21   O     O_R   0.765660 0.292160 0.175050 -0.473533
O22   O     O_R   0.234340 0.292160 0.824950 -0.473440
O23   O     O_R   0.265660 0.792160 0.175050 -0.473533
O24   O     O_R   0.734340 0.792160 0.824950 -0.473440
O25   O     O_R   0.670190 0.408980 0.168550 -0.518127
O26   O     O_R   0.329810 0.408980 0.831450 -0.518185
O27   O     O_R   0.170190 0.908980 0.168550 -0.518127
O28   O     O_R   0.829810 0.908980 0.831450 -0.518185
O29   O     O_R   0.556580 0.251450 0.175160 -0.514724
O30   O     O_R   0.443420 0.251450 0.824840 -0.514728
O31   O     O_R   0.056580 0.751450 0.175160 -0.514724
O32   O     O_R   0.943420 0.751450 0.824840 -0.514728
O33   O     O_R   0.545920 0.049510 0.170320 -0.523117
O34   O     O_R   0.454080 0.049510 0.829680 -0.523126
O35   O     O_R   0.045920 0.549510 0.170320 -0.523117
O36   O     O_R   0.954080 0.549510 0.829680 -0.523126
O37   O     O_R   0.681390 0.957840 0.176710 -0.486385
O38   O     O_R   0.318610 0.957840 0.823290 -0.486404
O39   O     O_R   0.181390 0.457840 0.176710 -0.486385
O40   O     O_R   0.818610 0.457840 0.823290 -0.486404
O41   O     O_R   0.787500 0.044280 0.330990 -0.543859
O42   O     O_R   0.212500 0.044280 0.669010 -0.543891
O43   O     O_R   0.287500 0.544280 0.330990 -0.543859
O44   O     O_R   0.712500 0.544280 0.669010 -0.543891
O45   O     O_R   0.765610 0.293630 0.323860 -0.503107
O46   O     O_R   0.234390 0.293630 0.676140 -0.503033
O47   O     O_R   0.265610 0.793630 0.323860 -0.503107
O48   O     O_R   0.734390 0.793630 0.676140 -0.503033
O49   O     O_R   0.670140 0.410570 0.329080 -0.465312
O50   O     O_R   0.329860 0.410570 0.670920 -0.465341
O51   O     O_R   0.170140 0.910570 0.329080 -0.465312
O52   O     O_R   0.829860 0.910570 0.670920 -0.465341
C105  C     C_1   0.892042 0.979769 0.554547 0.256570
N1    N     N_1   0.937996 0.030707 0.581518 -0.273830
C106  C     C_1   0.107967 0.979814 0.445459 0.256532
N2    N     N_1   0.062014 0.030777 0.418501 -0.273785
C107  C     C_1   0.392042 0.479769 0.554547 0.256570
N3    N     N_1   0.437996 0.530707 0.581518 -0.273830
C108  C     C_1   0.607967 0.479813 0.445459 0.256532
N4    N     N_1   0.562014 0.530777 0.418501 -0.273785
C109  C     C_2   0.649588 0.772719 0.422060 0.613137
O53   O     O_2   0.649623 0.735049 0.360430 -0.466866
O54   O     O_R   0.587541 0.770625 0.463753 -0.675051
H37   H     H_    0.544548 0.745931 0.435760 0.390283
C110  C     C_2   0.350435 0.772719 0.577898 0.613237
O55   O     O_2   0.350461 0.735174 0.639556 -0.466785
O56   O     O_R   0.412430 0.770453 0.536122 -0.675089
H38   H     H_    0.455452 0.745775 0.564075 0.390311
C111  C     C_2   0.149588 0.272719 0.422060 0.613137
O57   O     O_2   0.149623 0.235049 0.360430 -0.466866
O58   O     O_R   0.087541 0.270625 0.463753 -0.675051
H39   H     H_    0.044548 0.245931 0.435760 0.390283
C112  C     C_2   0.850435 0.272719 0.577898 0.613237
O59   O     O_2   0.850461 0.235174 0.639556 -0.466785
O60   O     O_R   0.912430 0.270453 0.536122 -0.675089
H40   H     H_    0.955452 0.245775 0.564075 0.390311
C113  C     C_2   0.849507 0.143931 0.039303 0.543801
O61   O     O_2   0.866598 0.159756 0.101227 -0.503249
O62   O     O_R   0.890416 0.200199 0.985507 -0.755396
H41   H     H_    0.932401 0.246624 0.004668 0.305790
C114  C     C_2   0.150540 0.144007 0.960727 0.543815
O63   O     O_2   0.133482 0.159904 0.898799 -0.503256
O64   O     O_R   0.109604 0.200213 0.014523 -0.755379
H42   H     H_    0.067630 0.246660 0.995358 0.305799
C115  C     C_2   0.349507 0.643931 0.039303 0.543801
O65   O     O_2   0.366598 0.659756 0.101227 -0.503249
O66   O     O_R   0.390416 0.700199 0.985507 -0.755396
H43   H     H_    0.432401 0.746624 0.004668 0.305790
C116  C     C_2   0.650540 0.644007 0.960727 0.543815
O67   O     O_2   0.633482 0.659904 0.898799 -0.503256
O68   O     O_R   0.609604 0.700213 0.014523 -0.755379
H44   H     H_    0.567630 0.746660 0.995358 0.305799
C117  C     C_2   0.440346 0.968653 0.435842 0.624811
O69   O     O_2   0.378392 0.982040 0.454067 -0.521644
O70   O     O_R   0.458844 0.880878 0.385321 -0.660727
H45   H     H_    0.416716 0.830961 0.369873 0.344547
C118  C     C_2   0.559610 0.968581 0.564188 0.624840
O71   O     O_2   0.621593 0.981968 0.546056 -0.521613
O72   O     O_R   0.541027 0.880718 0.614629 -0.660668
H46   H     H_    0.583125 0.830719 0.630087 0.344461
C119  C     C_2   0.940346 0.468653 0.435842 0.624811
O73   O     O_2   0.878392 0.482040 0.454067 -0.521644
O74   O     O_R   0.958844 0.380878 0.385321 -0.660727
H47   H     H_    0.916716 0.330961 0.369873 0.344547
C120  C     C_2   0.059610 0.468581 0.564188 0.624840
O75   O     O_2   0.121593 0.481968 0.546056 -0.521613
O76   O     O_R   0.041027 0.380718 0.614629 -0.660668
H48   H     H_    0.083125 0.330719 0.630087 0.344461

loop_
_geom_bond_atom_site_label_1
_geom_bond_atom_site_label_2
_ccdc_geom_bond_type
C58   C62   A    
Cr1   O1    S    
C62   C83   S    
C117  O70   S    
C101  C102  A    
Cr10  O38   S    
C48   C95   S    
C55   C59   A    
C32   C116  S    
C85   O9    A    
C14   C18   A    
C59   C107  S    
C87   O11   A    
O66   H43   S    
C78   O38   A    
C6    H14   S    
Cr5   O5    S    
Cr3   O43   S    
C97   C98   A    
C45   O29   A    
O72   H46   S    
Cr8   O32   S    
C71   C75   A    
Cr3   O19   S    
C109  O53   D    
C84   O48   A    
C15   C19   A    
C41   C86   S    
Cr12  O36   S    
C1    O21   A    
C118  O71   D    
C37   C38   A    
C57   C61   A    
C7    C99   A    
C96   C100  A    
C13   C17   A    
C71   C111  S    
C43   C88   S    
C32   C36   A    
C91   O15   A    
C4    C21   S    
C5    C11   A    
C67   H11   S    
C64   C68   A    
C81   O45   A    
C119  O73   D    
C95   C99   A    
Cr10  O10   S    
C38   C118  S    
Cr6   O26   S    
O68   H44   S    
C57   C105  S    
C116  O67   D    
C37   C117  S    
Cr12  O20   S    
C17   H25   S    
C120  O75   D    
C41   C49   A    
C37   C42   A    
C26   H30   S    
C3    O27   A    
Cr10  O18   S    
Cr7   O7    S    
C103  C104  A    
C77   O1    A    
C54   C74   A    
C1    O25   A    
C40   C43   A    
C20   C24   A    
C29   C33   A    
Cr2   O2    S    
C90   O42   A    
C8    H16   S    
C19   H27   S    
O64   H42   S    
C80   O4    A    
C86   O10   A    
C23   C27   A    
C77   O37   A    
Cr4   O44   S    
C44   C87   S    
C24   C28   A    
C114  O63   D    
C68   H12   S    
C7    H15   S    
Cr6   O6    S    
C72   C76   A    
Cr2   O46   S    
Cr11  O39   S    
C44   C52   A    
Cr1   O45   S    
C31   C115  S    
C51   H35   S    
C79   O39   A    
C117  O69   D    
C90   O14   A    
Cr7   O27   S    
Cr2   O18   S    
C16   H24   S    
C85   O5    A    
C4    O28   A    
C45   C94   S    
C9    C10   A    
C15   C35   A    
C113  O61   D    
Cr5   O17   S    
C60   C64   A    
Cr10  O14   S    
C15   H23   S    
C109  O54   S    
C25   C29   A    
C107  N3    T    
C55   H7    S    
C118  O72   S    
C70   C110  S    
C28   H32   S    
C30   C34   A    
C63   C82   S    
C27   C31   A    
C106  N2    T    
C6    C98   A    
C11   C12   A    
C14   H22   S    
C18   H26   S    
C69   C109  S    
C94   C101  A    
C38   C41   A    
C83   O51   A    
C21   C25   A    
C36   C80   S    
C47   C96   S    
Cr7   O51   S    
O56   H38   S    
C48   O32   A    
C62   C66   A    
C78   O2    A    
C81   O49   A    
C3    C22   S    
C110  O55   D    
C88   O12   A    
Cr2   O42   S    
C79   O3    A    
C34   C78   S    
C17   C21   A    
O58   H39   S    
C56   C60   A    
C68   C72   A    
C120  O76   S    
C13   H21   S    
Cr4   O48   S    
C19   C23   A    
O54   H37   S    
C63   C67   A    
C70   C74   A    
C111  O57   D    
C11   H19   S    
C29   C113  S    
Cr11  O35   S    
C50   H34   S    
C93   C97   A    
O60   H40   S    
Cr4   O4    S    
C28   C32   A    
C16   C20   A    
C89   O41   A    
Cr7   O31   S    
C112  O59   D    
Cr2   O22   S    
Cr1   O21   S    
C48   O36   A    
C46   O34   A    
C69   C73   A    
Cr12  O16   S    
C114  O64   S    
C47   O31   A    
C89   O13   A    
Cr9   O33   S    
Cr1   O17   S    
C49   H33   S    
C42   C50   A    
C61   C65   A    
Cr6   O18   S    
C3    O23   A    
C76   C92   S    
C26   C30   A    
C56   C76   A    
C115  O66   S    
C4    O24   A    
C113  O62   S    
C49   C50   A    
C31   C35   A    
C35   C79   S    
Cr11  O19   S    
C110  O56   S    
C72   C112  S    
Cr8   O52   S    
C83   O47   A    
O76   H48   S    
C56   H8    S    
O62   H41   S    
C95   C104  A    
C119  O74   S    
C12   H20   S    
C54   C58   A    
Cr5   O29   S    
C7    C9    A    
C105  N1    T    
C53   C57   A    
Cr8   O8    S    
Cr11  O15   S    
C18   C22   A    
Cr3   O47   S    
C53   C73   A    
Cr12  O12   S    
C103  H3    S    
C10   H18   S    
Cr9   O13   S    
C5    C97   A    
C92   O44   A    
C61   C84   S    
C102  H2    S    
C93   C102  A    
C14   C34   A    
Cr9   O17   S    
C20   H28   S    
C86   O6    A    
C82   O46   A    
C39   C44   A    
C39   C119  S    
C75   C91   S    
C73   C89   S    
Cr9   O37   S    
C91   O43   A    
C66   C70   A    
C59   C63   A    
Cr10  O34   S    
C99   C100  A    
Cr8   O28   S    
C33   C77   S    
Cr6   O50   S    
C101  H1    S    
C52   H36   S    
C46   O30   A    
Cr5   O49   S    
C8    C100  A    
C55   C75   A    
C51   C52   A    
C111  O58   S    
C27   H31   S    
C53   H5    S    
C2    O22   A    
C6    C12   A    
C82   O50   A    
Cr1   O41   S    
C45   O33   A    
C65   H9    S    
Cr8   O20   S    
C46   C93   S    
Cr3   O23   S    
C58   C106  S    
C43   C51   A    
Cr4   O20   S    
C65   C69   A    
C74   C90   S    
Cr4   O24   S    
C5    H13   S    
C112  O60   S    
C42   C85   S    
C87   O7    A    
C67   C71   A    
C88   O8    A    
C30   C114  S    
Cr11  O11   S    
C60   C108  S    
Cr3   O3    S    
C64   C81   S    
C80   O40   A    
Cr9   O9    S    
C108  N4    T    
C39   C40   A    
C66   H10   S    
C54   H6    S    
Cr6   O30   S    
C1    C24   S    
C8    C10   A    
C13   C33   A    
C22   C26   A    
C96   C103  A    
C2    C23   S    
Cr5   O25   S    
C94   C98   A    
Cr12  O40   S    
C40   C120  S    
C25   H29   S    
C2    O26   A    
C116  O68   S    
C84   O52   A    
C115  O65   D    
C47   O35   A    
C16   C36   A    
O74   H47   S    
O70   H45   S    
C92   O16   A    
C104  H4    S    
Cr7   O19   S    
C9    H17   S    
