data_mof_unit_51104.cif
_audit_creation_date              2013-03-05T16:09:45-0500
_audit_creation_method            fapswitch 2.2
_symmetry_space_group_name_H-M    P1
_symmetry_Int_Tables_number       1
_space_group_crystal_system       triclinic
_cell_length_a                    12.821275
_cell_length_b                    10.652654
_cell_length_c                    9.931715
_cell_angle_alpha                 90.827939
_cell_angle_beta                  100.052915
_cell_angle_gamma                 91.407716
_cell_volume                      1335.00851169

loop_
_atom_site_label
_atom_site_type_symbol
_atom_site_description
_atom_site_fract_x
_atom_site_fract_y
_atom_site_fract_z
_atom_type_partial_charge
O1    O     O_R   0.499990 0.316750 0.614620 -0.566733
O2    O     O_R   0.500010 0.683250 0.385380 -0.566736
O3    O     O_R   0.499990 0.316780 0.385290 -0.643579
O4    O     O_R   0.500010 0.683220 0.614710 -0.643582
C1    C     C_R   0.503444 0.260580 0.499915 0.931516
C2    C     C_R   0.496556 0.739420 0.500085 0.931503
O5    O     O_R   0.346360 0.499970 0.595710 -0.574301
O6    O     O_R   0.653640 0.500030 0.404290 -0.574299
O7    O     O_R   0.346360 0.499990 0.366380 -0.594432
O8    O     O_R   0.653640 0.500010 0.633620 -0.594421
C3    C     C_R   0.297513 0.500911 0.469586 0.943268
C4    C     C_R   0.702487 0.499087 0.530415 0.943249
Zn1   Zn    Zn3+2 0.500000 0.499980 0.653120 1.075174
Zn2   Zn    Zn3+2 0.500000 0.500020 0.346880 1.075168
C5    C     C_R   0.816925 0.494713 0.555366 -0.321852
C6    C     C_R   0.183075 0.505278 0.444635 -0.321858
C7    C     C_R   0.013822 0.411490 0.339275 0.496603
C8    C     C_R   0.986181 0.588490 0.660732 0.496607
C9    C     C_R   0.122321 0.431468 0.339827 0.123326
C10   C     C_R   0.877682 0.568512 0.660182 0.123310
C11   C     C_R   0.135190 0.571625 0.539305 0.507414
C12   C     C_R   0.864807 0.428368 0.460693 0.507419
C13   C     C_R   0.030440 0.540887 0.550166 -0.144212
C14   C     C_R   0.969560 0.459102 0.449833 -0.144208
C15   C     C_R   0.439290 0.064057 0.393345 -0.195419
C16   C     C_R   0.560711 0.935943 0.606654 -0.195439
H1    H     H_    0.389703 0.115161 0.313981 0.235716
H2    H     H_    0.610298 0.884839 0.686018 0.235697
C17   C     C_R   0.430378 0.934983 0.394164 0.331670
C18   C     C_R   0.569623 0.065018 0.605835 0.331671
C19   C     C_R   0.493116 0.871959 0.501281 -0.196747
C20   C     C_R   0.506884 0.128041 0.498719 -0.196755
C21   C     C_R   0.554537 0.591155 0.085787 0.305936
C22   C     C_R   0.445463 0.408846 0.914213 0.305937
C23   C     C_R   0.555274 0.590866 0.943109 0.387594
C24   C     C_R   0.444726 0.409135 0.056891 0.387574
N1    N     N_R   0.499970 0.499970 0.857200 -0.253529
N2    N     N_R   0.500030 0.500030 0.142800 -0.253532
O9    O     O_3   0.809644 0.334941 0.376920 -0.613957
H3    H     H_    0.753386 0.298087 0.422337 0.347859
O10   O     O_3   0.190350 0.665058 0.623073 -0.613961
H4    H     H_    0.246608 0.701912 0.577655 0.347860
N3    N     N_R   0.828966 0.627493 0.762766 0.198961
O11   O     O_R   0.817192 0.748467 0.761526 -0.329693
O12   O     O_R   0.817983 0.565380 0.871505 -0.301601
N4    N     N_R   0.171043 0.372470 0.237261 0.198966
O13   O     O_R   0.182866 0.251506 0.238570 -0.329754
O14   O     O_R   0.181983 0.434536 0.128479 -0.301608
O15   O     O_3   0.949886 0.345678 0.233271 -0.601866
H5    H     H_    0.987086 0.334458 0.154858 0.393298
O16   O     O_3   0.050120 0.654288 0.766744 -0.601859
H6    H     H_    0.012930 0.665474 0.845171 0.393291
N5    N     N_R   0.355239 0.870442 0.289848 0.239721
O17   O     O_R   0.296162 0.778293 0.321608 -0.385638
O18   O     O_R   0.334914 0.914903 0.166943 -0.250111
N6    N     N_R   0.644762 0.129558 0.710152 0.239719
O19   O     O_R   0.703839 0.221706 0.678391 -0.385631
O20   O     O_R   0.665084 0.085099 0.833058 -0.250111
N7    N     N_R   0.613579 0.687175 0.170264 0.273836
O21   O     O_R   0.711995 0.668505 0.222998 -0.302371
O22   O     O_R   0.580102 0.801564 0.162207 -0.283751
N8    N     N_R   0.386418 0.312828 0.829735 0.273838
O23   O     O_R   0.288001 0.331498 0.777008 -0.302366
O24   O     O_R   0.419896 0.198439 0.837785 -0.283750
O25   O     O_3   0.614213 0.683623 0.894514 -0.629000
H7    H     H_    0.627732 0.654974 0.804929 0.396973
O26   O     O_3   0.385786 0.316378 0.105486 -0.628993
H8    H     H_    0.372268 0.345029 0.195070 0.396981

loop_
_geom_bond_atom_site_label_1
_geom_bond_atom_site_label_2
_geom_bond_distance
_ccdc_geom_bond_type
C18   C20   1.406405 A    
O7    Zn2   2.012714 S    
O10   H4    0.991289 S    
C18   N6    1.439646 S    
C6    C11   1.401474 A    
C15   H1    1.084578 S    
C22   N1    1.368209 A    
N3    O12   1.301197 A    
C3    C6    1.446756 S    
Zn1   N1    2.026933 S    
C21   N2    1.368210 A    
C4    C5    1.446759 S    
C22   N8    1.427813 S    
O6    C4    1.299313 A    
C1    C20   1.413609 S    
C15   C20   1.394495 A    
C24   N2    1.378228 A    
C2    C19   1.413609 S    
C24   O26   1.372861 S    
N7    O21   1.300259 A    
C21   N7    1.427816 S    
N5    O17   1.301017 A    
O5    C3    1.299309 A    
O7    C3    1.291162 A    
O2    C2    1.287253 A    
O3    Zn2   1.994323 S    
O8    C4    1.291161 A    
N3    O11   1.301171 A    
C6    C9    1.404168 A    
O1    C1    1.287252 A    
C12   O9    1.385291 S    
C17   N5    1.439648 S    
C12   C14   1.397357 A    
O4    C2    1.288327 A    
C23   N1    1.378229 A    
N6    O20   1.301517 A    
C8    O16   1.386007 S    
C16   C18   1.377190 A    
C22   C24   1.418680 A    
N5    O18   1.301515 A    
C11   C13   1.397352 A    
C15   C17   1.377189 A    
C5    C10   1.404174 A    
O2    Zn2   1.983549 S    
C11   O10   1.385291 S    
C9    N4    1.430328 S    
C7    C14   1.414416 A    
O1    Zn1   1.983549 S    
C23   O25   1.372864 S    
C13   C14   1.425215 A    
Zn2   N2    2.026933 S    
C8    C13   1.414417 A    
N4    O14   1.301176 A    
O5    Zn1   1.952775 S    
C10   N3    1.430336 S    
O16   H6    0.988965 S    
N6    O19   1.301016 A    
C8    C10   1.401151 A    
C17   C19   1.406406 A    
O25   H7    0.981529 S    
C16   C19   1.394496 A    
N7    O22   1.300779 A    
C7    O15   1.386004 S    
O9    H3    0.991289 S    
O15   H5    0.988956 S    
N4    O13   1.301150 A    
C7    C9    1.401151 A    
N8    O24   1.300775 A    
O6    Zn2   1.952774 S    
C21   C23   1.418681 A    
C16   H2    1.084578 S    
C5    C12   1.401476 A    
N8    O23   1.300254 A    
O26   H8    0.981527 S    
O4    Zn1   1.994323 S    
O3    C1    1.288327 A    
O8    Zn1   2.012714 S    
