data_mof_unit_13020.cif
_audit_creation_date              2013-03-05T16:19:20-0500
_audit_creation_method            fapswitch 2.2
_symmetry_space_group_name_H-M    P1
_symmetry_Int_Tables_number       1
_space_group_crystal_system       triclinic
_cell_length_a                    11.334024
_cell_length_b                    10.39347
_cell_length_c                    23.600467
_cell_angle_alpha                 88.15676
_cell_angle_beta                  91.066186
_cell_angle_gamma                 91.892287
_cell_volume                      2776.74897259

loop_
_atom_site_label
_atom_site_type_symbol
_atom_site_description
_atom_site_fract_x
_atom_site_fract_y
_atom_site_fract_z
_atom_type_partial_charge
O1    O     O_R   0.314910 0.616040 0.499990 -0.562378
O2    O     O_R   0.314910 0.383960 0.499990 -0.587462
C1    C     C_R   0.258386 0.498774 0.501805 0.838751
O3    O     O_R   0.500080 0.616070 0.416130 -0.576805
O4    O     O_R   0.500080 0.383930 0.416130 -0.585735
C2    C     C_R   0.499771 0.501870 0.390069 0.952668
Zn1   Zn    Zn3+2 0.500150 0.654960 0.499970 0.978828
Zn2   Zn    Zn3+2 0.500150 0.345040 0.499970 1.043593
O5    O     O_R   0.685320 0.616040 0.499970 -0.676242
O6    O     O_R   0.685320 0.383960 0.499970 -0.579496
O7    O     O_R   0.500150 0.616010 0.583820 -0.648548
O8    O     O_R   0.500150 0.383990 0.583820 -0.570598
C3    C     C_R   0.740596 0.501691 0.503114 0.940885
C4    C     C_R   0.499043 0.497720 0.609766 0.868265
C5    C     C_R   0.606656 0.493641 0.882641 0.629937
N1    N     N_R   0.501874 0.498062 0.852974 -0.325735
C6    C     C_R   0.396545 0.502330 0.880022 0.635105
C7    C     C_R   0.393523 0.492434 0.939065 -0.024810
C8    C     C_R   0.500620 0.496440 0.970305 -0.031985
C9    C     C_R   0.609182 0.505478 0.941897 -0.076166
C10   C     C_R   0.285889 0.479117 0.967121 -0.164476
C11   C     C_R   0.282960 0.466756 0.026124 0.127075
C12   C     C_R   0.389762 0.473939 0.058087 -0.010960
C13   C     C_R   0.498483 0.493806 0.029820 -0.068838
C14   C     C_R   0.604853 0.510043 0.061082 -0.079537
C15   C     C_R   0.714770 0.515028 0.033097 0.115612
C16   C     C_R   0.716221 0.523992 0.973112 0.110948
C17   C     C_R   0.392542 0.462333 0.117560 0.645561
N2    N     N_R   0.494356 0.491559 0.146975 -0.329647
C18   C     C_R   0.597185 0.523597 0.119833 0.624943
O9    O     O_2   0.707153 0.474312 0.854782 -0.478434
O10   O     O_2   0.295122 0.514722 0.849716 -0.497552
H1    H     H_    0.203130 0.475643 0.943365 0.200535
O11   O     O_2   0.295027 0.423341 0.146099 -0.468409
O12   O     O_2   0.690221 0.572147 0.149650 -0.472623
C19   C     C_R   0.568874 0.413042 0.239724 0.255824
C20   C     C_R   0.579440 0.427110 0.298622 0.175715
C21   C     C_R   0.500492 0.504693 0.326841 -0.212133
C22   C     C_R   0.422590 0.581903 0.294194 -0.093168
C23   C     C_R   0.422989 0.580216 0.234707 0.297865
C24   C     C_R   0.493054 0.492551 0.207770 0.014517
C25   C     C_R   0.440587 0.396729 0.764083 0.332915
C26   C     C_R   0.428808 0.403487 0.704749 0.011339
C27   C     C_R   0.502404 0.492231 0.672855 -0.136051
C28   C     C_R   0.581306 0.576209 0.702800 0.031735
C29   C     C_R   0.567849 0.590131 0.761225 0.310962
C30   C     C_R   0.502548 0.495714 0.792172 -0.014218
C31   C     C_3   0.073680 0.641410 0.522070 0.100506
C32   C     C_3   0.067239 0.393739 0.550931 0.035266
C33   C     C_3   0.933680 0.636857 0.532892 0.279171
C34   C     C_3   0.924357 0.380160 0.545152 0.355534
H2    H     H_    0.900239 0.573666 0.419159 0.222794
H3    H     H_    0.873317 0.412740 0.426397 0.237507
C35   C     C_3   0.060653 0.469660 0.443400 0.112303
C36   C     C_3   0.118939 0.499339 0.504789 0.039622
C37   C     C_3   0.877749 0.503641 0.508974 -0.164270
C38   C     C_3   0.924252 0.491064 0.446973 -0.511279
C39   C     C_3   0.375457 0.074957 0.499239 0.208041
C40   C     C_3   0.376970 0.916302 0.488458 0.301492
C41   C     C_3   0.558735 0.089290 0.445024 0.177811
C42   C     C_3   0.571870 0.929244 0.448548 0.115821
C43   C     C_3   0.570537 0.079538 0.551046 0.279416
C44   C     C_3   0.551426 0.919351 0.555644 0.175636
N3    N     N_3   0.499750 0.138610 0.498760 -0.180712
N4    N     N_3   0.499750 0.861390 0.498760 -0.207535
N5    N     N_3   0.341502 0.319202 0.679308 -0.312213
H4    H     H_    0.259465 0.346032 0.693473 0.213247
H5    H     H_    0.336876 0.330826 0.635689 0.184349
N6    N     N_3   0.678955 0.643524 0.676003 -0.265589
H6    H     H_    0.686231 0.617982 0.634219 0.232963
H7    H     H_    0.755738 0.609518 0.695633 0.291629
N7    N     N_R   0.619779 0.699825 0.789472 0.253564
O13   O     O_R   0.558157 0.760739 0.825407 -0.320809
O14   O     O_R   0.727818 0.739646 0.779938 -0.282589
N8    N     N_3   0.104076 0.735407 0.475279 -0.338856
H8    H     H_    0.094136 0.829935 0.487184 0.203233
H9    H     H_    0.050135 0.731384 0.439528 0.222713
N9    N     N_3   0.120731 0.269406 0.545276 -0.459828
H10   H     H_    0.094761 0.208066 0.579137 0.197343
H11   H     H_    0.089299 0.224061 0.510211 0.264064
N10   N     N_3   0.136162 0.693134 0.572597 -0.431030
H12   H     H_    0.135239 0.643697 0.611021 0.263008
H13   H     H_    0.098826 0.780176 0.582410 0.223387
N11   N     N_3   0.103776 0.433045 0.607759 -0.387055
H14   H     H_    0.088203 0.361637 0.639002 0.263472
H15   H     H_    0.194901 0.449979 0.608231 0.135017
N12   N     N_R   0.907552 0.655932 0.594179 0.200343
O15   O     O_R   0.875415 0.768105 0.610008 -0.394802
O16   O     O_R   0.943521 0.579889 0.634999 -0.356494
N13   N     N_R   0.869372 0.364297 0.601582 0.276151
O17   O     O_R   0.771017 0.418786 0.611940 -0.372931
O18   O     O_R   0.898359 0.267961 0.635090 -0.346505
N14   N     N_3   0.879728 0.746595 0.502299 -0.461690
H16   H     H_    0.876934 0.742928 0.458496 0.161587
H17   H     H_    0.917570 0.835170 0.513893 0.199180
N15   N     N_3   0.886219 0.261446 0.516182 -0.430569
H18   H     H_    0.915413 0.249734 0.475540 0.195356
H19   H     H_    0.911498 0.179956 0.539838 0.190917
N16   N     N_3   0.110571 0.555547 0.398331 -0.432870
H20   H     H_    0.071949 0.532604 0.359143 0.229580
H21   H     H_    0.201229 0.542811 0.395487 0.215785
N17   N     N_3   0.079621 0.337616 0.425837 -0.413598
H22   H     H_    0.157815 0.336532 0.403937 0.268303
H23   H     H_    0.018051 0.310978 0.394425 0.222841
N18   N     N_R   0.292319 0.134501 0.458033 0.244039
O19   O     O_R   0.182548 0.093290 0.457206 -0.428142
O20   O     O_R   0.320692 0.231541 0.424897 -0.356962
N19   N     N_R   0.329775 0.877317 0.431230 0.235428
O21   O     O_R   0.329660 0.757438 0.419527 -0.320534
O22   O     O_R   0.267175 0.946211 0.395928 -0.341917
N20   N     N_3   0.170727 0.451996 0.053019 -0.346620
H24   H     H_    0.127479 0.369416 0.037688 0.209086
H25   H     H_    0.120423 0.531252 0.041035 0.204256
N21   N     N_3   0.326306 0.102010 0.554198 -0.378018
H26   H     H_    0.236205 0.084513 0.556670 0.204050
H27   H     H_    0.337034 0.200300 0.560535 0.246370
N22   N     N_3   0.296749 0.848549 0.526109 -0.375572
H28   H     H_    0.333804 0.779908 0.553107 0.288636
H29   H     H_    0.229338 0.899086 0.542289 0.196351
N23   N     N_3   0.492895 0.129977 0.392980 -0.356971
H30   H     H_    0.428843 0.065552 0.379184 0.260000
H31   H     H_    0.546307 0.147649 0.357777 0.206480
N24   N     N_3   0.536821 0.877024 0.392299 -0.376510
H32   H     H_    0.582156 0.795245 0.383336 0.232904
H33   H     H_    0.571820 0.936179 0.359773 0.165085
N25   N     N_3   0.697950 0.112075 0.545077 -0.365431
H34   H     H_    0.743643 0.064097 0.515648 0.187859
H35   H     H_    0.744234 0.086036 0.582311 0.251523
N26   N     N_3   0.665302 0.859607 0.568602 -0.371960
H36   H     H_    0.741534 0.886502 0.548260 0.214794
H37   H     H_    0.655712 0.761193 0.566912 0.278890
N27   N     N_R   0.545177 0.143517 0.606421 0.256172
O23   O     O_R   0.627218 0.214075 0.630985 -0.256039
O24   O     O_R   0.455535 0.117486 0.638407 -0.278238
N28   N     N_R   0.483983 0.881100 0.608950 0.248318
O25   O     O_R   0.544314 0.847137 0.654178 -0.262484
O26   O     O_R   0.376197 0.910019 0.619632 -0.363091
N29   N     N_3   0.675305 0.155035 0.437382 -0.420274
H38   H     H_    0.664858 0.251217 0.426244 0.281024
H39   H     H_    0.718236 0.120464 0.402589 0.205453
N30   N     N_3   0.696446 0.899881 0.454734 -0.508984
H40   H     H_    0.698231 0.801490 0.454269 0.251942
H41   H     H_    0.744050 0.926391 0.418519 0.179976
N31   N     N_3   0.823443 0.500852 0.065397 -0.354251
H42   H     H_    0.809801 0.426128 0.095531 0.257377
H43   H     H_    0.887652 0.462274 0.040357 0.174446
N32   N     N_3   0.823610 0.560811 0.943837 -0.357180
H44   H     H_    0.804832 0.639603 0.916854 0.251308
H45   H     H_    0.887105 0.599858 0.971485 0.189177
N33   N     N_R   0.640022 0.323973 0.211392 0.243534
O27   O     O_R   0.589689 0.238116 0.179203 -0.355295
O28   O     O_R   0.754270 0.340906 0.210575 -0.265579
N34   N     N_R   0.683571 0.385257 0.327708 0.200475
O29   O     O_R   0.753824 0.473484 0.348509 -0.450344
O30   O     O_R   0.724409 0.272038 0.319489 -0.387156
N35   N     N_3   0.346126 0.666038 0.321178 -0.346448
H46   H     H_    0.259026 0.641164 0.309950 0.240086
H47   H     H_    0.364810 0.760332 0.306388 0.263674
N36   N     N_R   0.356090 0.671390 0.201408 0.218959
O31   O     O_R   0.408198 0.745417 0.163343 -0.339759
O32   O     O_R   0.242144 0.675145 0.206346 -0.326596
N37   N     N_R   0.390764 0.288648 0.796239 0.256769
O33   O     O_R   0.455033 0.229263 0.834429 -0.311071
O34   O     O_R   0.280323 0.253044 0.789885 -0.292311

loop_
_geom_bond_atom_site_label_1
_geom_bond_atom_site_label_2
_geom_bond_distance
_ccdc_geom_bond_type
C31   C36   1.645108 S    
N5    H5    1.033190 S    
N12   O15   1.301000 A    
C44   N4    1.583568 S    
N25   H34   1.025665 S    
C7    C10   1.399586 A    
C23   N36   1.437999 S    
N20   H24   1.045688 S    
N8    H8    1.040739 S    
N21   H26   1.033736 S    
N28   O25   1.302330 A    
C28   C29   1.402687 A    
C32   N9    1.456424 S    
Zn1   O7    2.007083 S    
N18   O20   1.292057 A    
C15   C16   1.416095 A    
N2    C18   1.366721 A    
C18   O12   1.349747 S    
C32   N11   1.463066 S    
C17   N2    1.366165 A    
N32   H45   1.043392 S    
N11   H15   1.041869 S    
C7    C8    1.408561 A    
O2    C1    1.375163 A    
N22   H29   1.027490 S    
C34   N13   1.482972 S    
C21   C22   1.413825 A    
O7    C4    1.355543 A    
N9    H11   1.018285 S    
N24   H33   1.043772 S    
C10   H1    1.083956 S    
C5    N1    1.368689 A    
N19   O21   1.284807 A    
N28   O26   1.298819 A    
C34   C37   1.616364 S    
N6    H7    1.044842 S    
O5    C3    1.360984 A    
C43   N3    1.578065 S    
C35   C36   1.615641 S    
C1    C36   1.583588 S    
N32   H44   1.046131 S    
N27   O23   1.304134 A    
C32   C34   1.624496 S    
N15   H19   1.044403 S    
C12   C13   1.418110 A    
C2    C21   1.491743 S    
C41   N23   1.482437 S    
N34   O30   1.300224 A    
C42   N24   1.492361 S    
C29   N7    1.442439 S    
C34   N15   1.478074 S    
C3    C37   1.557591 S    
C31   C33   1.610790 S    
N5    H4    1.043443 S    
C17   O11   1.349073 S    
N14   H17   1.045044 S    
C10   C11   1.395183 A    
C31   N8    1.488335 S    
C19   C24   1.404545 A    
N6    H6    1.034894 S    
O3    Zn1   2.032205 S    
C15   N31   1.445583 S    
N1    C30   1.436119 S    
N10   H13   1.045718 S    
N23   H31   1.044992 S    
N10   H12   1.027832 S    
N37   O34   1.300874 A    
C39   N3    1.536525 S    
C5    C9    1.407488 A    
C28   N6    1.435555 S    
C43   N27   1.521598 S    
N24   H32   1.037139 S    
N11   H14   1.042420 S    
N31   H43   1.044086 S    
H2    C38   1.102066 S    
C22   C23   1.404699 A    
C43   N25   1.480505 S    
H3    C38   1.102606 S    
N9    H10   1.046555 S    
N1    C6    1.366841 A    
C14   C15   1.419537 A    
C32   C36   1.624259 S    
C33   C37   1.617574 S    
C41   C42   1.674236 S    
O1    C1    1.357874 A    
C44   N28   1.519398 S    
C26   C27   1.428630 A    
C20   C21   1.413782 A    
C20   N34   1.427547 S    
Zn1   N4    2.144950 S    
N13   O18   1.302668 A    
N16   H20   1.046942 S    
Zn2   O8    2.032597 S    
N15   H18   1.032626 S    
C43   C44   1.672130 S    
N36   O32   1.300851 A    
C6    C7    1.394906 A    
N20   H25   1.045778 S    
N14   H16   1.035567 S    
C12   C17   1.404750 A    
C13   C14   1.409893 A    
N17   H23   1.046143 S    
N8    H9    1.033829 S    
N29   H39   1.041892 S    
C33   N12   1.502442 S    
Zn2   N3    2.146488 S    
N7    O14   1.300830 A    
C23   C24   1.403132 A    
N16   H21   1.043998 S    
O8    C4    1.349148 A    
N12   O16   1.294850 A    
N33   O28   1.301441 A    
C35   N16   1.475205 S    
C39   C40   1.677254 S    
O3    C2    1.354145 A    
C37   C38   1.575291 S    
C40   N22   1.435159 S    
N23   H30   1.026903 S    
C4    C27   1.488012 S    
N26   H36   1.022734 S    
C42   N30   1.458075 S    
C14   C18   1.402767 A    
Zn1   O5    2.150426 S    
C29   C30   1.403666 A    
C19   C20   1.404847 A    
N25   H35   1.047626 S    
N2    C24   1.435534 S    
O1    Zn1   2.124976 S    
C35   N17   1.469990 S    
Zn2   O6    2.124194 S    
O2    Zn2   2.151215 S    
C27   C28   1.423240 A    
N7    O13   1.301398 A    
O6    C3    1.359696 A    
O4    Zn2   2.006739 S    
N21   H27   1.040053 S    
C25   N37   1.440808 S    
C33   N14   1.474018 S    
C5    O9    1.349642 S    
C9    C16   1.418448 A    
N37   O33   1.301304 A    
N18   O19   1.302370 A    
C40   N19   1.506119 S    
N33   O27   1.301028 A    
C41   N3    1.553714 S    
C22   N35   1.423962 S    
N31   H42   1.045701 S    
C39   N18   1.477282 S    
C8    C9    1.411137 A    
N30   H41   1.043900 S    
C31   N10   1.482278 S    
N36   O31   1.301184 A    
C16   N32   1.445258 S    
N22   H28   1.035336 S    
C40   N4    1.533727 S    
C19   N33   1.436503 S    
N13   O17   1.297666 A    
O4    C2    1.353732 A    
C26   N5    1.435812 S    
N35   H47   1.046043 S    
N19   O22   1.297468 A    
C8    C13   1.404626 A    
C25   C30   1.403533 A    
C44   N26   1.473416 S    
N17   H22   1.034791 S    
N29   H38   1.035480 S    
C42   N4    1.585565 S    
N35   H46   1.043756 S    
N27   O24   1.293266 A    
C11   N20   1.433695 S    
C25   C26   1.403906 A    
C39   N21   1.460286 S    
C6    O10   1.350127 S    
C11   C12   1.415481 A    
N34   O29   1.296949 A    
N30   H40   1.023907 S    
C41   N29   1.478630 S    
N26   H37   1.027026 S    
C35   C38   1.573339 S    
