data_mof_unit_18671.cif
_audit_creation_date              2012-12-10T17:58:19-0500
_audit_creation_method            fapswitch 2.2
_symmetry_space_group_name_H-M    P1
_symmetry_Int_Tables_number       1
_space_group_crystal_system       triclinic
_cell_length_a                    9.641076
_cell_length_b                    10.75776
_cell_length_c                    15.225577
_cell_angle_alpha                 86.926078
_cell_angle_beta                  74.188613
_cell_angle_gamma                 88.087649
_cell_volume                      1516.91776183

loop_
_atom_site_label
_atom_site_type_symbol
_atom_type_description
_atom_site_fract_x
_atom_site_fract_y
_atom_site_fract_z
_atom_type_partial_charge
C1    C     C_R   0.001361 0.262506 0.500172 0.786989
C2    C     C_R   0.998701 0.737508 0.499446 0.803365
C3    C     C_R   0.583060 0.453284 0.107495 0.167610
C4    C     C_R   0.443725 0.361961 0.916775 0.131034
C5    C     C_R   0.727137 0.476842 0.062529 -0.208745
C6    C     C_R   0.297943 0.346100 0.962599 -0.214346
C7    C     C_R   0.881382 0.064319 0.553369 -0.165079
C8    C     C_R   0.118184 0.935745 0.445513 -0.157484
C9    C     C_R   0.879283 0.935703 0.552512 -0.095795
C10   C     C_R   0.119977 0.064400 0.446033 -0.098513
C11   C     C_R   0.997479 0.871579 0.498380 -0.000599
C12   C     C_R   0.002305 0.128465 0.500729 -0.032486
C13   C     C_R   0.560023 0.410551 0.547577 -0.164904
C14   C     C_R   0.439701 0.590115 0.453211 -0.189747
C15   C     C_R   0.413097 0.407258 0.547397 0.500278
C16   C     C_R   0.587683 0.591077 0.450984 0.433347
C17   C     C_R   0.918307 0.502740 0.673265 0.804004
C18   C     C_R   0.081626 0.493707 0.327513 0.815249
C19   C     C_R   0.873903 0.501744 0.775035 -0.066592
C20   C     C_R   0.126042 0.466508 0.229426 -0.054354
C21   C     C_R   0.918358 0.514041 0.924296 -0.181210
C22   C     C_R   0.097234 0.362409 0.097625 -0.196111
C23   C     C_R   0.970294 0.521661 0.828720 0.181351
C24   C     C_R   0.042252 0.393568 0.189066 0.156048
C25   C     C_R   0.728587 0.478547 0.819747 -0.290225
C26   C     C_R   0.266023 0.496969 0.179047 -0.277475
C27   C     C_R   0.679437 0.458765 0.915077 0.087318
C28   C     C_R   0.330733 0.442179 0.095650 0.087522
C29   C     C_R   0.774866 0.483882 0.967378 0.066794
C30   C     C_R   0.240952 0.386184 0.050856 0.070541
C31   C     C_R   0.535302 0.422796 0.960258 0.020844
C32   C     C_R   0.481932 0.443053 0.055392 0.028028
Cu1   Cu    Cu3+1 0.140660 0.500020 0.500000 1.006428
Cu2   Cu    Cu3+1 0.859340 0.499980 0.500000 1.009252
H1    H     H_    0.803045 0.488333 0.102369 0.173536
H2    H     H_    0.229170 0.298531 0.929942 0.168294
H3    H     H_    0.327745 0.557161 0.208236 0.185465
H4    H     H_    0.652744 0.479142 0.779312 0.182248
H5    H     H_    0.990390 0.531810 0.965689 0.147208
H6    H     H_    0.031103 0.311878 0.064848 0.144648
H7    H     H_    0.789613 0.113690 0.595700 0.159948
H8    H     H_    0.209924 0.886362 0.403177 0.155637
H9    H     H_    0.787038 0.886249 0.595023 0.159046
H10   H     H_    0.211596 0.113885 0.402836 0.169388
H11   H     H_    0.606527 0.338994 0.583949 0.199531
H12   H     H_    0.393431 0.662139 0.417030 0.198423
N1    N     N_R   0.352080 0.500030 0.499980 -0.237534
N2    N     N_R   0.647920 0.499970 0.500020 -0.240413
O1    O     O_R   0.118740 0.319660 0.500000 -0.492442
O2    O     O_R   0.881260 0.680340 0.500000 -0.496984
O3    O     O_R   0.881170 0.319630 0.500010 -0.600370
O4    O     O_R   0.118830 0.680370 0.499990 -0.609222
O5    O     O_R   0.055570 0.500030 0.629830 -0.523479
O6    O     O_R   0.944430 0.499970 0.370170 -0.527721
O7    O     O_R   0.818000 0.500000 0.629840 -0.599871
O8    O     O_R   0.182000 0.500000 0.370160 -0.592696
C33   C     C_3   0.900953 0.339725 0.243094 -0.815134
H13   H     H_    0.915498 0.285112 0.304048 0.241469
H14   H     H_    0.820547 0.415916 0.264801 0.256572
H15   H     H_    0.859212 0.275094 0.202311 0.223259
C34   C     C_3   0.125604 0.556945 0.787632 -0.795175
H16   H     H_    0.131632 0.640166 0.740441 0.229910
H17   H     H_    0.178660 0.580391 0.840726 0.214620
H18   H     H_    0.188081 0.478249 0.750795 0.280874
C35   C     C_3   0.549756 0.417797 0.208529 -0.837754
H19   H     H_    0.553866 0.500756 0.248052 0.251149
H20   H     H_    0.445939 0.370063 0.236044 0.245427
H21   H     H_    0.629258 0.347197 0.220105 0.231997
C36   C     C_3   0.499158 0.291167 0.830784 -0.786169
H22   H     H_    0.481031 0.347858 0.771755 0.246718
H23   H     H_    0.614492 0.263731 0.818807 0.227459
H24   H     H_    0.440847 0.202436 0.836458 0.260313
S1    S     S_3+6 0.327785 0.266997 0.600245 -0.008659
O9    O     O_2   0.333495 0.178698 0.526250 -0.301541
O10   O     O_2   0.410507 0.206333 0.662063 -0.357641
O11   O     O_3   0.157042 0.286030 0.663496 -0.535722
H25   H     H_    0.120919 0.200599 0.680965 0.358704
S2    S     S_3+6 0.677611 0.723591 0.387696 0.021220
O12   O     O_2   0.831810 0.700287 0.337176 -0.242038
O13   O     O_2   0.601033 0.769621 0.317977 -0.329058
O14   O     O_3   0.668497 0.837854 0.460122 -0.513772
H26   H     H_    0.564315 0.857774 0.483788 0.347992

loop_
_geom_bond_atom_site_label_1
_geom_bond_atom_site_label_2
_ccdc_geom_bond_type
C27   C29   A    
S1    O9    D    
C10   H10   S    
C15   N1    A    
C16   N2    A    
O14   H26   S    
C14   H12   S    
Cu1   O4    S    
Cu2   O3    S    
C22   C24   A    
C8    H8    S    
C36   H22   S    
S2    O13   D    
C33   H14   S    
Cu1   O1    S    
C36   H23   S    
C34   H17   S    
C2    O2    A    
C20   C24   A    
C24   C33   S    
C35   H20   S    
C17   O7    A    
C16   S2    S    
C34   H16   S    
C18   O8    A    
Cu1   O8    S    
Cu2   O7    S    
S1    O10   D    
C3    C35   S    
C1    C12   S    
C2    C11   S    
C10   C12   A    
C4    C36   S    
C5    C29   A    
Cu1   O5    S    
C7    C12   A    
Cu2   O2    S    
C9    H9    S    
C27   C31   A    
C28   C32   A    
O11   H25   S    
C4    C6    A    
S2    O12   D    
C33   H15   S    
C21   C29   A    
C34   H18   S    
C19   C23   A    
C25   H4    S    
C1    O3    A    
C31   C32   A    
C21   H5    S    
C35   H21   S    
C22   H6    S    
Cu1   Cu2   S    
C9    C11   A    
C2    O4    A    
C6    C30   A    
Cu2   O6    S    
C13   C15   A    
Cu1   N1    S    
S1    O11   S    
C14   C16   A    
Cu2   N2    S    
C17   O5    A    
C36   H24   S    
C7    C9    A    
C22   C30   A    
C15   S1    S    
C3    C5    A    
C13   N2    A    
C26   H3    S    
C14   N1    A    
C25   C27   A    
C26   C28   A    
C21   C23   A    
C13   H11   S    
S2    O14   S    
C33   H13   S    
C20   C26   A    
C8    C11   A    
C5    H1    S    
C28   C30   A    
C17   C19   S    
C6    H2    S    
C18   C20   S    
C7    H7    S    
C3    C32   A    
C19   C25   A    
C4    C31   A    
C18   O6    A    
C23   C34   S    
C8    C10   A    
C35   H19   S    
C1    O1    A    
