data_mof_unit_15084.cif
_audit_creation_date              2013-03-05T15:41:46-0500
_audit_creation_method            fapswitch 2.2
_symmetry_space_group_name_H-M    P1
_symmetry_Int_Tables_number       1
_space_group_crystal_system       triclinic
_cell_length_a                    11.17713
_cell_length_b                    12.668975
_cell_length_c                    23.598851
_cell_angle_alpha                 90.148195
_cell_angle_beta                  96.721647
_cell_angle_gamma                 68.814375
_cell_volume                      3091.55144959

loop_
_atom_site_label
_atom_site_type_symbol
_atom_site_description
_atom_site_fract_x
_atom_site_fract_y
_atom_site_fract_z
_atom_type_partial_charge
O1    O     O_R   0.196340 0.303200 0.448500 -0.503733
O2    O     O_R   0.199310 0.519670 0.454880 -0.504774
C1    C     C_R   0.147704 0.617068 0.428473 0.547017
O3    O     O_R   0.045660 0.691380 0.441680 -0.488291
O4    O     O_R   0.811930 0.659460 0.430950 -0.503346
C2    C     C_R   0.741024 0.607630 0.407053 0.571278
O5    O     O_R   0.757900 0.507620 0.421760 -0.475939
O6    O     O_R   0.988630 0.322990 0.439840 -0.480856
C3    C     C_R   0.101175 0.282137 0.423582 0.561912
O7    O     O_R   0.196380 0.301720 0.573850 -0.521941
O8    O     O_R   0.199350 0.518300 0.571080 -0.506513
C4    C     C_R   0.150957 0.616656 0.590487 0.537339
O9    O     O_R   0.045700 0.689900 0.567030 -0.504825
O10   O     O_R   0.811960 0.658090 0.547150 -0.478168
C5    C     C_R   0.749680 0.601847 0.565822 0.535707
O11   O     O_R   0.757930 0.506140 0.547110 -0.533404
O12   O     O_R   0.988670 0.321620 0.556040 -0.503557
C6    C     C_R   0.099822 0.278169 0.585085 0.542338
Cr1   Cr    Cr6+3 0.189770 0.415650 0.511620 1.032474
Cr2   Cr    Cr6+3 0.930400 0.667320 0.496770 1.071027
Cr3   Cr    Cr6+3 0.879870 0.417010 0.491650 1.042813
O13   O     O_3   0.000020 0.499990 0.500010 -0.252485
C7    C     C_R   0.574191 0.786187 0.149131 -0.006640
C8    C     C_R   0.653441 0.653448 0.354791 0.040145
C9    C     C_R   0.547925 0.608181 0.268477 -0.081275
C10   C     C_R   0.585592 0.588746 0.326526 0.132179
C11   C     C_R   0.655735 0.750537 0.327428 -0.115765
C12   C     C_R   0.614916 0.770497 0.269059 -0.002534
C13   C     C_R   0.570096 0.693445 0.238806 0.019970
C14   C     C_R   0.556428 0.697038 0.179387 0.178069
C15   C     C_R   0.610216 0.868520 0.180265 0.195964
C16   C     C_R   0.631247 0.858943 0.239848 -0.054288
H1    H     H_    0.506090 0.552208 0.246631 0.182524
H2    H     H_    0.665655 0.918356 0.263218 0.161033
H3    H     H_    0.702249 0.803086 0.349801 0.142505
C17   C     C_1   0.237090 0.160686 0.123047 0.080342
C18   C     C_2   0.182355 0.230700 0.226574 0.197620
C19   C     C_2   0.162952 0.159409 0.265031 0.196939
C20   C     C_1   0.136055 0.195464 0.322221 0.054335
C21   C     C_1   0.212297 0.194542 0.169763 0.090526
C22   C     C_1   0.117254 0.230187 0.369358 0.044392
C23   C     C_1   0.161408 0.748192 0.121630 0.088236
C24   C     C_2   0.120013 0.689199 0.223295 0.260642
C25   C     C_2   0.207549 0.688105 0.268321 -0.060248
C26   C     C_1   0.198952 0.658655 0.326443 0.047528
C27   C     C_1   0.141617 0.719823 0.167338 0.062259
C28   C     C_1   0.184088 0.637001 0.374320 0.036342
H4    H     H_    0.288534 0.712360 0.261444 0.112618
C29   C     C_1   0.619420 0.760771 0.863665 -0.018523
C30   C     C_2   0.668032 0.732168 0.756620 -0.095764
C31   C     C_2   0.638785 0.654561 0.724559 0.159684
C32   C     C_1   0.666667 0.646175 0.666077 0.002406
C33   C     C_1   0.645142 0.747184 0.815427 -0.071510
C34   C     C_1   0.697842 0.631550 0.618718 0.003781
H5    H     H_    0.708900 0.787699 0.738123 0.172026
C35   C     C_R   0.205425 0.180739 0.853670 -0.018631
C36   C     C_R   0.108530 0.225815 0.640992 -0.002810
C37   C     C_R   0.998837 0.193947 0.718054 -0.116340
C38   C     C_R   0.000709 0.211401 0.659968 -0.115055
C39   C     C_R   0.215856 0.217121 0.679834 -0.107940
C40   C     C_R   0.209725 0.212081 0.737949 0.057718
C41   C     C_R   0.101961 0.195807 0.757368 0.012361
C42   C     C_R   0.101965 0.177357 0.815519 -0.139655
C43   C     C_R   0.298079 0.218874 0.834730 -0.093566
C44   C     C_R   0.307907 0.225622 0.776864 0.139135
H6    H     H_    0.027313 0.152831 0.830398 0.118286
H7    H     H_    0.371925 0.230358 0.865339 0.141430
H8    H     H_    0.914433 0.185117 0.732503 0.158833
H9    H     H_    0.915984 0.218948 0.630400 0.146695
H10   H     H_    0.299978 0.225251 0.664721 0.161384
C45   C     C_R   0.127121 0.760411 0.847936 -0.023739
C46   C     C_R   0.195411 0.637282 0.648510 0.001670
C47   C     C_R   0.297338 0.561360 0.743229 -0.105400
C48   C     C_R   0.288837 0.551039 0.684135 -0.113636
C49   C     C_R   0.118259 0.735764 0.672012 -0.084692
C50   C     C_R   0.112472 0.739355 0.730235 -0.000134
C51   C     C_R   0.207351 0.654076 0.766536 0.002971
C52   C     C_R   0.213128 0.664578 0.825241 -0.167234
C53   C     C_R   0.020926 0.838752 0.811379 0.127456
C54   C     C_R   0.012983 0.826309 0.752403 0.226277
H11   H     H_    0.291100 0.602584 0.852882 0.137467
H12   H     H_    0.369799 0.495116 0.770790 0.112944
H13   H     H_    0.350747 0.474505 0.666536 0.118868
H14   H     H_    0.053585 0.805884 0.644173 0.190586
O14   O     O_R   0.113660 0.883270 0.047820 -0.489480
O15   O     O_R   0.186930 0.068530 0.043990 -0.496218
C55   C     C_R   0.266251 0.109460 0.069475 0.545805
O16   O     O_R   0.377770 0.089040 0.054220 -0.469754
O17   O     O_R   0.562800 0.872960 0.056970 -0.444031
C56   C     C_R   0.541149 0.795851 0.086380 0.565823
O18   O     O_R   0.555390 0.700940 0.062700 -0.435422
O19   O     O_R   0.295020 0.731920 0.049950 -0.474966
C57   C     C_R   0.188854 0.787326 0.069347 0.557614
O20   O     O_R   0.094290 0.884230 0.921550 -0.517483
O21   O     O_R   0.168980 0.069410 0.926940 -0.504692
C58   C     C_R   0.241381 0.116501 0.908029 0.544077
O22   O     O_R   0.358400 0.089990 0.927950 -0.523473
O23   O     O_R   0.544850 0.873850 0.939920 -0.496032
C59   C     C_R   0.573595 0.776790 0.918266 0.555767
O24   O     O_R   0.536020 0.701900 0.936430 -0.503026
O25   O     O_R   0.277070 0.732810 0.932890 -0.504951
C60   C     C_R   0.164485 0.789362 0.905831 0.548017
Cr4   Cr    Cr6+3 0.149500 0.973980 0.985330 1.043766
Cr5   Cr    Cr6+3 0.457000 0.976510 0.994660 1.090245
Cr6   Cr    Cr6+3 0.411170 0.724270 0.995270 1.096409
O26   O     O_3   0.339220 0.891590 0.991750 -0.298691
N1    N     N_R   0.542741 0.600883 0.150769 0.088316
O27   O     O_R   0.646044 0.516070 0.141722 -0.248712
O28   O     O_R   0.431631 0.588418 0.143865 -0.354545
N2    N     N_R   0.005479 0.663888 0.228513 0.134551
O29   O     O_R   0.938292 0.647162 0.182853 -0.267598
O30   O     O_R   0.960227 0.668134 0.277172 -0.310399
N3    N     N_2   0.586313 0.578090 0.747279 -0.501038
H15   H     H_    0.568708 0.586332 0.789274 0.264132
C61   C     C_3   0.640184 0.461319 0.731337 -0.305225
H16   H     H_    0.594909 0.409959 0.752562 0.124131
H17   H     H_    0.746168 0.425856 0.744959 0.150956
H18   H     H_    0.620337 0.455045 0.684477 0.162264
N4    N     N_2   0.416195 0.242876 0.757222 -0.531463
H19   H     H_    0.394457 0.313838 0.731054 0.236986
C62   C     C_3   0.538459 0.209475 0.793698 -0.294576
H20   H     H_    0.616422 0.204707 0.767521 0.174201
H21   H     H_    0.562229 0.124331 0.814239 0.172767
H22   H     H_    0.534762 0.272966 0.826642 0.122338
N5    N     N_R   0.634676 0.957892 0.152636 0.098756
O31   O     O_R   0.578646 0.061845 0.166989 -0.302808
O32   O     O_R   0.734846 0.933240 0.125006 -0.269689
N6    N     N_2   0.926854 0.935693 0.831889 -0.464311
H23   H     H_    0.956622 0.000222 0.846074 0.273283
C63   C     C_3   0.828543 0.916534 0.860250 -0.248809
H24   H     H_    0.872330 0.849288 0.894660 0.158742
H25   H     H_    0.763718 0.892162 0.828369 0.165661
H26   H     H_    0.769812 0.996015 0.879173 0.131077
N7    N     N_R   0.902468 0.900238 0.715308 0.069983
O33   O     O_R   0.857414 0.008920 0.721935 -0.362319
O34   O     O_R   0.841305 0.857990 0.676856 -0.373060
N8    N     N_2   0.571549 0.493505 0.353458 -0.480442
H27   H     H_    0.557789 0.432976 0.326873 0.270513
C64   C     C_3   0.497677 0.514304 0.401562 -0.264981
H28   H     H_    0.418583 0.480933 0.393198 0.143693
H29   H     H_    0.456552 0.606001 0.410174 0.126973
H30   H     H_    0.560448 0.467574 0.440279 0.176927
N9    N     N_R   0.173421 0.045205 0.251789 0.065118
O35   O     O_R   0.112780 0.995348 0.279283 -0.319820
O36   O     O_R   0.257377 0.984916 0.219415 -0.385177
N10   N     N_R   0.172954 0.344480 0.240155 0.069260
O37   O     O_R   0.235383 0.393660 0.213373 -0.297601
O38   O     O_R   0.088953 0.404939 0.272443 -0.292198

loop_
_geom_bond_atom_site_label_1
_geom_bond_atom_site_label_2
_geom_bond_distance
_ccdc_geom_bond_type
C37   C41   1.399663 A    
C55   O16   1.273462 A    
C49   C50   1.382927 A    
O25   C60   1.291205 A    
C14   N1    1.438662 S    
C23   C57   1.436619 S    
C47   C48   1.395672 A    
O18   Cr6   2.067738 S    
O21   C58   1.282509 A    
C8    C11   1.400497 A    
C48   H13   1.082454 S    
C53   N6    1.425078 S    
C10   N8    1.431320 S    
N6    H23   1.029663 S    
C45   C53   1.432280 A    
C20   C22   1.208477 T    
O4    Cr2   1.946537 S    
C51   C52   1.387607 A    
N8    C64   1.449307 S    
O8    Cr1   1.930717 S    
O24   Cr6   2.030134 S    
C31   N3    1.434226 S    
C12   C13   1.407025 A    
C8    C10   1.421273 A    
N10   O37   1.301568 A    
C18   C21   1.452682 S    
C23   C27   1.207036 T    
C19   C20   1.453624 S    
C64   H30   1.109066 S    
O23   Cr5   1.920846 S    
C49   H14   1.082141 S    
C36   C38   1.404299 A    
N9    O35   1.301482 A    
C54   N7    1.443698 S    
N9    O36   1.301683 A    
C19   N9    1.445190 S    
N2    O29   1.301657 A    
C62   H22   1.110571 S    
O14   C57   1.267590 A    
C15   C16   1.396408 A    
O21   Cr4   1.917526 S    
O6    C3    1.280175 A    
C61   H17   1.111482 S    
N1    O27   1.301187 A    
C35   C43   1.405985 A    
C24   N2    1.445893 S    
C18   N10   1.444869 S    
C13   C14   1.391677 A    
C7    C14   1.422758 A    
O14   Cr4   2.033632 S    
C26   C28   1.207426 T    
C4    C46   1.456997 S    
C42   H6    1.082858 S    
Cr3   O13   1.976076 S    
O25   Cr6   1.947418 S    
N1    O28   1.299242 A    
C46   C49   1.392341 A    
O15   Cr4   1.935005 S    
Cr5   O26   1.974160 S    
O16   Cr5   2.039787 S    
C32   C34   1.203450 T    
C30   C31   1.347796 D    
N10   O38   1.301318 A    
N4    C62   1.447777 S    
C17   C55   1.437019 S    
C9    C13   1.398758 A    
C64   H28   1.108194 S    
O1    Cr1   2.047621 S    
C30   C33   1.440188 S    
C5    O11   1.264761 A    
C31   C32   1.445362 S    
C43   H7    1.082080 S    
O10   Cr2   1.913299 S    
C12   C16   1.394772 A    
Cr1   O13   1.985542 S    
O1    C3    1.267403 A    
C50   C51   1.410576 A    
C46   C48   1.402004 A    
O15   C55   1.273759 A    
C36   C39   1.392469 A    
N7    O34   1.301546 A    
C11   H3    1.084587 S    
C37   C38   1.392815 A    
O5    Cr3   2.061279 S    
O12   Cr3   1.939842 S    
N6    C63   1.442249 S    
C39   C40   1.383931 A    
C16   H2    1.084462 S    
C63   H25   1.104200 S    
C24   C25   1.354027 D    
C5    C34   1.429965 S    
C18   C19   1.370512 D    
C29   C59   1.428942 S    
C6    C36   1.455302 S    
C59   O24   1.261956 A    
C39   H10   1.081925 S    
O7    Cr1   2.038122 S    
N4    H19   1.028831 S    
C61   H18   1.110527 S    
C2    C8    1.458309 S    
C58   O22   1.258519 A    
C41   C42   1.392643 A    
O12   C6    1.274599 A    
C44   N4    1.432020 S    
C35   C42   1.393403 A    
C62   H20   1.110129 S    
C2    O5    1.255228 A    
C38   H9    1.083059 S    
C37   H8    1.081917 S    
C45   C60   1.466332 S    
Cr2   O13   1.974828 S    
O20   Cr4   2.054253 S    
O17   Cr5   1.939911 S    
N5    O31   1.300995 A    
C63   H26   1.110317 S    
C15   N5    1.432173 S    
C1    O3    1.260925 A    
C47   H12   1.082380 S    
C17   C21   1.208026 T    
C25   C26   1.445409 S    
N3    H15   1.030557 S    
N8    H27   1.032209 S    
C35   C58   1.455236 S    
O9    Cr2   2.062907 S    
O2    Cr1   1.919653 S    
C50   C54   1.404124 A    
O6    Cr3   1.919702 S    
O8    C4    1.273925 A    
O11   Cr3   2.035476 S    
N7    O33   1.300015 A    
Cr6   O26   1.974895 S    
C3    C22   1.437667 S    
C30   H5    1.083811 S    
C43   C44   1.388034 A    
O2    C1    1.284143 A    
C9    C10   1.380690 A    
C7    C56   1.478018 S    
C64   H29   1.112143 S    
C52   H11   1.084763 S    
C56   O18   1.289368 A    
O4    C2    1.283310 A    
O7    C6    1.274443 A    
C29   C33   1.203319 T    
C1    C28   1.435231 S    
O19   C57   1.278208 A    
C63   H24   1.110817 S    
Cr4   O26   1.983658 S    
C40   C41   1.418622 A    
C24   C27   1.448325 S    
N2    O30   1.301267 A    
C62   H21   1.111102 S    
O22   Cr5   2.054312 S    
C53   C54   1.396367 A    
O3    Cr2   2.029943 S    
C40   C44   1.405845 A    
O19   Cr6   1.913227 S    
C4    O9    1.269928 A    
O20   C60   1.257748 A    
O23   C59   1.275158 A    
C11   C12   1.393116 A    
N5    O32   1.301264 A    
C47   C51   1.402177 A    
O10   C5    1.272154 A    
C61   H16   1.108765 S    
O17   C56   1.307011 A    
C45   C52   1.399505 A    
C25   H4    1.084330 S    
C9    H1    1.081025 S    
N3    C61   1.448784 S    
C7    C15   1.421378 A    
