data_mof_unit_57724.cif
_audit_creation_date              2012-12-10T16:51:33-0500
_audit_creation_method            fapswitch 2.2
_symmetry_space_group_name_H-M    P1
_symmetry_Int_Tables_number       1
_space_group_crystal_system       triclinic
_cell_length_a                    7.86582
_cell_length_b                    8.56091
_cell_length_c                    12.08964
_cell_angle_alpha                 92.905935
_cell_angle_beta                  101.228037
_cell_angle_gamma                 93.992277
_cell_volume                      794.860356391

loop_
_atom_site_label
_atom_site_type_symbol
_atom_type_description
_atom_site_fract_x
_atom_site_fract_y
_atom_site_fract_z
_atom_type_partial_charge
C1    C     C_R   0.044452 0.794543 0.497574 0.976539
C2    C     C_R   0.159343 0.504103 0.832265 -0.119232
C3    C     C_2   0.067816 0.958291 0.496641 -0.384869
C4    C     C_R   0.105878 0.503667 0.710261 0.859883
C5    C     C_2   0.932977 0.041880 0.505107 -0.379333
C6    C     C_R   0.955793 0.205505 0.502995 0.942362
C7    C     C_R   0.892549 0.488428 0.289651 0.854060
C8    C     C_R   0.810020 0.289435 0.000527 -0.185069
C9    C     C_R   0.830198 0.457997 0.169417 -0.065607
C10   C     C_R   0.074252 0.595202 0.900844 -0.169480
C11   C     C_R   0.146402 0.626280 0.014628 -0.129157
C12   C     C_R   0.397303 0.485379 0.989759 0.084725
C13   C     C_R   0.308221 0.575073 0.058816 -0.198805
C14   C     C_R   0.310964 0.434017 0.879614 0.083710
C15   C     C_R   0.569357 0.445266 0.026092 0.083652
C16   C     C_R   0.641782 0.334375 0.961024 0.162362
C17   C     C_R   0.543742 0.267789 0.859060 -0.226335
C18   C     C_R   0.380094 0.316975 0.818596 -0.183688
C19   C     C_R   0.672417 0.514694 0.125058 -0.263358
C20   C     C_R   0.902658 0.348268 0.106360 -0.185023
H1    H     H_    0.025859 0.303137 0.140825 0.157378
H2    H     H_    0.307422 0.261377 0.739485 0.168142
H3    H     H_    0.195073 0.009431 0.488719 0.187120
H4    H     H_    0.805811 0.990755 0.513212 0.196219
H5    H     H_    0.469126 0.372904 0.416998 0.162462
H6    H     H_    0.594518 0.179550 0.809717 0.160237
H7    H     H_    0.866140 0.203993 0.952122 0.141008
H8    H     H_    0.628933 0.608482 0.172966 0.149125
H9    H     H_    0.955271 0.646875 0.865714 0.172462
H10   H     H_    0.358346 0.603961 0.147613 0.140096
H11   H     H_    0.079901 0.695269 0.067871 0.146628
I1    I     I_    0.533406 0.723890 0.642622 -0.283571
N1    N     N_2   0.434800 0.456690 0.470850 -0.135844
N2    N     N_2   0.565200 0.543310 0.529150 0.012561
O1    O     O_R   0.893060 0.738880 0.507150 -0.598453
O2    O     O_R   0.172250 0.711130 0.488470 -0.594483
O3    O     O_R   0.944700 0.520730 0.667600 -0.602125
O4    O     O_R   0.223890 0.492980 0.648920 -0.584702
O5    O     O_R   0.827750 0.288870 0.511530 -0.628497
O6    O     O_R   0.106940 0.261120 0.492850 -0.622864
O7    O     O_R   0.776110 0.507020 0.351080 -0.625604
O8    O     O_R   0.055300 0.479270 0.332400 -0.623792
Zn1   Zn    Zn3+2 0.813580 0.518530 0.512470 0.980413
Zn2   Zn    Zn3+2 0.186420 0.481470 0.487530 0.968749

loop_
_geom_bond_atom_site_label_1
_geom_bond_atom_site_label_2
_ccdc_geom_bond_type
O3    Zn1   S    
C2    C4    S    
O4    Zn2   S    
O1    Zn1   S    
C14   C18   A    
C9    C20   A    
C3    H3    S    
C12   C15   A    
O6    Zn2   S    
N1    N2    D    
C11   H11   S    
C8    C16   A    
C20   H1    S    
C15   C19   A    
C19   H8    S    
O7    Zn1   S    
C10   H9    S    
C8    C20   A    
C5    H4    S    
O8    Zn2   S    
C17   H6    S    
C12   C14   A    
C17   C18   A    
C7    O7    A    
C5    C6    S    
C2    C14   A    
C6    O6    A    
O2    Zn2   S    
C10   C11   A    
C15   C16   A    
C2    C10   A    
C3    C5    D    
C13   H10   S    
C11   C13   A    
C4    O3    A    
C1    O1    A    
C7    O8    A    
H5    N1    S    
C7    C9    S    
C8    H7    S    
C6    O5    A    
O5    Zn1   S    
C12   C13   A    
C18   H2    S    
N1    Zn2   S    
C9    C19   A    
N2    Zn1   S    
C1    O2    A    
C4    O4    A    
C16   C17   A    
C1    C3    S    
I1    N2    S    
