data_mof_unit_21580.cif
_audit_creation_date              2013-03-05T15:44:38-0500
_audit_creation_method            fapswitch 2.2
_symmetry_space_group_name_H-M    P1
_symmetry_Int_Tables_number       1
_space_group_crystal_system       triclinic
_cell_length_a                    19.346373
_cell_length_b                    11.1614
_cell_length_c                    18.870108
_cell_angle_alpha                 90.007688
_cell_angle_beta                  89.794443
_cell_angle_gamma                 90.159087
_cell_volume                      4074.62966514

loop_
_atom_site_label
_atom_site_type_symbol
_atom_site_description
_atom_site_fract_x
_atom_site_fract_y
_atom_site_fract_z
_atom_type_partial_charge
O1    O     O_R   0.787540 0.042690 0.170470 -0.452292
O2    O     O_R   0.212460 0.042690 0.829530 -0.418167
O3    O     O_R   0.287540 0.542690 0.170470 -0.452299
O4    O     O_R   0.712460 0.542690 0.829530 -0.418168
O5    O     O_R   0.765660 0.292160 0.175050 -0.451072
O6    O     O_R   0.234340 0.292160 0.824950 -0.453020
O7    O     O_R   0.265660 0.792160 0.175050 -0.451082
O8    O     O_R   0.734340 0.792160 0.824950 -0.453021
C1    C     C_R   0.727719 0.375157 0.145611 0.594514
C2    C     C_R   0.270681 0.371971 0.854968 0.589828
C3    C     C_R   0.227719 0.875157 0.145611 0.594508
C4    C     C_R   0.770681 0.871971 0.854968 0.589827
O9    O     O_R   0.670190 0.408980 0.168550 -0.453863
O10   O     O_R   0.329810 0.408980 0.831450 -0.465873
O11   O     O_R   0.170190 0.908980 0.168550 -0.453864
O12   O     O_R   0.829810 0.908980 0.831450 -0.465873
O13   O     O_R   0.556580 0.251450 0.175160 -0.471452
O14   O     O_R   0.443420 0.251450 0.824840 -0.483794
O15   O     O_R   0.056580 0.751450 0.175160 -0.471453
O16   O     O_R   0.943420 0.751450 0.824840 -0.483795
C5    C     C_R   0.538184 0.151720 0.143515 0.583427
C6    C     C_R   0.467222 0.158211 0.853264 0.602404
C7    C     C_R   0.038184 0.651720 0.143515 0.583426
C8    C     C_R   0.967222 0.658211 0.853264 0.602403
O17   O     O_R   0.545920 0.049510 0.170320 -0.444292
O18   O     O_R   0.454080 0.049510 0.829680 -0.426645
O19   O     O_R   0.045920 0.549510 0.170320 -0.444290
O20   O     O_R   0.954080 0.549510 0.829680 -0.426645
O21   O     O_R   0.681390 0.957840 0.176710 -0.435350
O22   O     O_R   0.318610 0.957840 0.823290 -0.460070
O23   O     O_R   0.181390 0.457840 0.176710 -0.435353
O24   O     O_R   0.818610 0.457840 0.823290 -0.460071
C9    C     C_R   0.730546 0.014302 0.139756 0.562805
C10   C     C_R   0.261138 0.974639 0.854270 0.608368
C11   C     C_R   0.230547 0.514302 0.139756 0.562802
C12   C     C_R   0.761138 0.474639 0.854270 0.608366
O25   O     O_R   0.787500 0.044280 0.330990 -0.423686
O26   O     O_R   0.212500 0.044280 0.669010 -0.435489
O27   O     O_R   0.287500 0.544280 0.330990 -0.423609
O28   O     O_R   0.712500 0.544280 0.669010 -0.435491
O29   O     O_R   0.765610 0.293630 0.323860 -0.465679
O30   O     O_R   0.234390 0.293630 0.676140 -0.464967
O31   O     O_R   0.265610 0.793630 0.323860 -0.465667
O32   O     O_R   0.734390 0.793630 0.676140 -0.464961
C13   C     C_R   0.731479 0.380223 0.350700 0.586310
C14   C     C_R   0.273056 0.375819 0.646502 0.600431
C15   C     C_R   0.231479 0.880225 0.350700 0.586304
C16   C     C_R   0.773056 0.875820 0.646502 0.600437
O33   O     O_R   0.670140 0.410570 0.329080 -0.432651
O34   O     O_R   0.329860 0.410570 0.670920 -0.446695
O35   O     O_R   0.170140 0.910570 0.329080 -0.432648
O36   O     O_R   0.829860 0.910570 0.670920 -0.446696
O37   O     O_R   0.556540 0.252920 0.323970 -0.450734
O38   O     O_R   0.443460 0.252920 0.676030 -0.460682
O39   O     O_R   0.056540 0.752920 0.323970 -0.450734
O40   O     O_R   0.943460 0.752920 0.676030 -0.460682
C17   C     C_R   0.534213 0.158126 0.354361 0.583495
C18   C     C_R   0.465394 0.155703 0.645937 0.593688
C19   C     C_R   0.034213 0.658126 0.354361 0.583499
C20   C     C_R   0.965394 0.655703 0.645937 0.593691
O41   O     O_R   0.545870 0.051100 0.330840 -0.460569
O42   O     O_R   0.454130 0.051100 0.669160 -0.465585
O43   O     O_R   0.045870 0.551100 0.330840 -0.460559
O44   O     O_R   0.954130 0.551100 0.669160 -0.465582
O45   O     O_R   0.681340 0.959300 0.325510 -0.458124
O46   O     O_R   0.318660 0.959300 0.674490 -0.479958
O47   O     O_R   0.181340 0.459300 0.325510 -0.458143
O48   O     O_R   0.818660 0.459300 0.674490 -0.479959
C21   C     C_R   0.739443 0.973615 0.355279 0.608828
C22   C     C_R   0.260723 0.980676 0.642237 0.590008
C23   C     C_R   0.239443 0.473613 0.355278 0.608859
C24   C     C_R   0.760722 0.480668 0.642239 0.590010
Cr1   Cr    Cr6+3 0.772000 0.169640 0.250110 1.200464
Cr2   Cr    Cr6+3 0.228000 0.169640 0.749890 1.214992
Cr3   Cr    Cr6+3 0.272000 0.669640 0.250110 1.200476
Cr4   Cr    Cr6+3 0.728000 0.669640 0.749890 1.214994
Cr5   Cr    Cr6+3 0.614960 0.323350 0.249260 1.182023
Cr6   Cr    Cr6+3 0.385040 0.323350 0.750740 1.185822
Cr7   Cr    Cr6+3 0.114960 0.823350 0.249260 1.182027
Cr8   Cr    Cr6+3 0.885040 0.823350 0.750740 1.185825
Cr9   Cr    Cr6+3 0.616670 0.010620 0.250840 1.196969
Cr10  Cr    Cr6+3 0.383330 0.010620 0.749160 1.191193
Cr11  Cr    Cr6+3 0.116670 0.510620 0.250840 1.196976
Cr12  Cr    Cr6+3 0.883330 0.510620 0.749160 1.191196
O49   O     O_3   0.667880 0.167870 0.250070 -0.382690
O50   O     O_3   0.332120 0.167870 0.749930 -0.376326
O51   O     O_3   0.167880 0.667870 0.250070 -0.382689
O52   O     O_3   0.832120 0.667870 0.749930 -0.376323
C25   C     C_R   0.499385 0.179811 0.923009 0.043958
C26   C     C_R   0.512078 0.149881 0.070194 0.025125
C27   C     C_R   0.999385 0.679811 0.923009 0.043958
C28   C     C_R   0.012078 0.649881 0.070194 0.025124
C29   C     C_R   0.473522 0.271247 0.970412 -0.040690
C30   C     C_R   0.471735 0.243691 0.044428 -0.018919
C31   C     C_R   0.973522 0.771247 0.970412 -0.040690
C32   C     C_R   0.971735 0.743691 0.044428 -0.018919
C33   C     C_R   0.540679 0.065349 0.022439 0.139862
C34   C     C_R   0.539429 0.086422 0.949794 0.189001
C35   C     C_R   0.040679 0.565349 0.022439 0.139861
C36   C     C_R   0.039429 0.586422 0.949794 0.189001
C37   C     C_R   0.452376 0.391100 0.951058 0.201642
C38   C     C_R   0.432760 0.315759 0.091587 0.183254
C39   C     C_R   0.952376 0.891100 0.951058 0.201642
C40   C     C_R   0.932759 0.815759 0.091587 0.183253
C41   C     C_R   0.929712 0.968883 0.003771 -0.068918
C42   C     C_R   0.915997 0.930229 0.071714 -0.084821
C43   C     C_R   0.429712 0.468883 0.003771 -0.068918
C44   C     C_R   0.415997 0.430229 0.071714 -0.084821
H1    H     H_    0.926687 0.062574 0.992830 0.257607
H2    H     H_    0.896605 0.991392 0.110887 0.229302
H3    H     H_    0.426687 0.562574 0.992830 0.257607
H4    H     H_    0.396605 0.491392 0.110887 0.229302
C45   C     C_R   0.728399 0.859435 0.046755 0.177048
C46   C     C_R   0.313880 0.940807 0.974326 0.149028
C47   C     C_R   0.228399 0.359435 0.046755 0.177049
C48   C     C_R   0.813880 0.440807 0.974326 0.149027
C49   C     C_R   0.725549 0.830219 0.975545 0.123122
C50   C     C_R   0.304277 0.933153 0.047398 0.204813
C51   C     C_R   0.225549 0.330219 0.975545 0.123122
C52   C     C_R   0.804276 0.433153 0.047398 0.204812
C53   C     C_R   0.746619 0.912733 0.923762 -0.002471
C54   C     C_R   0.238428 0.911879 0.073005 0.011923
C55   C     C_R   0.246619 0.412733 0.923762 -0.002472
C56   C     C_R   0.738428 0.411879 0.073005 0.011921
C57   C     C_R   0.757258 0.030712 0.941338 0.163066
C58   C     C_R   0.181144 0.911537 0.026413 0.109199
C59   C     C_R   0.257258 0.530712 0.941338 0.163065
C60   C     C_R   0.681144 0.411537 0.026413 0.109198
C61   C     C_R   0.765444 0.061814 0.012964 0.096876
C62   C     C_R   0.191771 0.903872 0.954276 0.200873
C63   C     C_R   0.265444 0.561814 0.012964 0.096877
C64   C     C_R   0.691771 0.403872 0.954276 0.200874
C65   C     C_R   0.742860 0.978041 0.066159 -0.049493
C66   C     C_R   0.256757 0.930239 0.927224 0.014180
C67   C     C_R   0.242859 0.478041 0.066159 -0.049491
C68   C     C_R   0.756757 0.430239 0.927224 0.014181
C69   C     C_R   0.464837 0.083850 0.454070 -0.108133
C70   C     C_R   0.452483 0.078960 0.526025 -0.127082
C71   C     C_R   0.964835 0.583853 0.454069 -0.108127
C72   C     C_R   0.952480 0.578963 0.526025 -0.127077
H5    H     H_    0.441730 0.017482 0.419802 0.209215
H6    H     H_    0.417053 0.011562 0.545755 0.168039
H7    H     H_    0.941727 0.517487 0.419801 0.209230
H8    H     H_    0.917047 0.511569 0.545754 0.168036
C73   C     C_R   0.485828 0.158978 0.572266 0.038816
C74   C     C_R   0.507863 0.172515 0.426659 0.023248
C75   C     C_R   0.985827 0.658978 0.572266 0.038819
C76   C     C_R   0.007862 0.672515 0.426659 0.023247
C77   C     C_R   0.529780 0.247164 0.546063 0.194708
C78   C     C_R   0.535174 0.261660 0.472757 0.171270
C79   C     C_R   0.029782 0.747160 0.546064 0.194714
C80   C     C_R   0.035176 0.761657 0.472757 0.171275
C81   C     C_R   0.810912 0.910653 0.454041 0.169193
C82   C     C_R   0.217193 0.032098 0.520962 0.136211
C83   C     C_R   0.310910 0.410628 0.454039 0.169225
C84   C     C_R   0.717191 0.532083 0.520965 0.136217
C85   C     C_R   0.820683 0.916384 0.526525 0.132045
C86   C     C_R   0.224806 0.025401 0.447682 0.148487
C87   C     C_R   0.320682 0.416368 0.526523 0.132045
C88   C     C_R   0.724806 0.525389 0.447685 0.148492
C89   C     C_R   0.762645 0.912203 0.573191 -0.028994
C90   C     C_R   0.258108 0.927640 0.418087 -0.036027
C91   C     C_R   0.262645 0.412197 0.573189 -0.028987
C92   C     C_R   0.758106 0.427627 0.418089 -0.036013
C93   C     C_R   0.695728 0.921898 0.546946 0.183754
C94   C     C_R   0.302189 0.856492 0.460510 0.128860
C95   C     C_R   0.195728 0.421897 0.546945 0.183763
C96   C     C_R   0.802186 0.356468 0.460509 0.128822
C97   C     C_R   0.686286 0.920426 0.473377 0.120928
C98   C     C_R   0.298863 0.866329 0.534618 0.091075
C99   C     C_R   0.186286 0.420425 0.473377 0.120931
C100  C     C_R   0.798859 0.366305 0.534620 0.091085
C101  C     C_R   0.744919 0.924967 0.427058 -0.008590
C102  C     C_R   0.255399 0.953440 0.565805 -0.039025
C103  C     C_R   0.244918 0.424957 0.427056 -0.008545
C104  C     C_R   0.755396 0.453422 0.565807 -0.039021
Br1   Br    Br    0.564661 0.905175 0.052031 -0.244899
Br2   Br    Br    0.586899 0.979284 0.885371 -0.265620
Br3   Br    Br    0.064661 0.405175 0.052031 -0.244897
Br4   Br    Br    0.086899 0.479284 0.885371 -0.265619
Br5   Br    Br    0.887609 0.880191 0.390605 -0.299964
Br6   Br    Br    0.146202 0.139553 0.554080 -0.213013
Br7   Br    Br    0.387605 0.380166 0.390601 -0.299985
Br8   Br    Br    0.646205 0.639548 0.554079 -0.213013
Br9   Br    Br    0.913506 0.954367 0.556442 -0.222931
Br10  Br    Br    0.189663 0.148310 0.385631 -0.297890
Br11  Br    Br    0.413503 0.454372 0.556436 -0.222934
Br12  Br    Br    0.689673 0.648308 0.385635 -0.297886
N1    N     N_R   0.639333 0.945752 0.595269 0.102783
O53   O     O_R   0.582213 0.884146 0.593559 -0.201971
O54   O     O_R   0.646904 0.026317 0.644526 -0.279466
N2    N     N_R   0.352194 0.778328 0.428275 0.128898
O55   O     O_R   0.354590 0.665677 0.445126 -0.228160
O56   O     O_R   0.393303 0.818485 0.378940 -0.275097
N3    N     N_R   0.139334 0.445756 0.595268 0.102784
O57   O     O_R   0.082213 0.384153 0.593561 -0.201973
O58   O     O_R   0.146907 0.526322 0.644525 -0.279459
N4    N     N_R   0.852210 0.278349 0.428259 0.128814
O59   O     O_R   0.854731 0.165728 0.445186 -0.227937
O60   O     O_R   0.893275 0.318542 0.378895 -0.275148
Br13  Br    Br    0.593901 0.892835 0.440141 -0.256532
Br14  Br    Br    0.352261 0.756315 0.591699 -0.244777
Br15  Br    Br    0.093899 0.392840 0.440142 -0.256533
Br16  Br    Br    0.852255 0.256305 0.591714 -0.244786
Br17  Br    Br    0.464629 0.480712 0.863678 -0.199510
Br18  Br    Br    0.398965 0.265377 0.183253 -0.331199
Br19  Br    Br    0.964629 0.980712 0.863678 -0.199508
Br20  Br    Br    0.898965 0.765377 0.183254 -0.331192
Br21  Br    Br    0.718346 0.731885 0.116049 -0.283659
Br22  Br    Br    0.406677 0.924619 0.944082 -0.275950
Br23  Br    Br    0.218346 0.231885 0.116049 -0.283662
Br24  Br    Br    0.906677 0.424619 0.944082 -0.275950
Br25  Br    Br    0.671967 0.694694 0.951230 -0.277921
Br26  Br    Br    0.379899 0.953381 0.113219 -0.271639
Br27  Br    Br    0.171967 0.194694 0.951230 -0.277921
Br28  Br    Br    0.879899 0.453381 0.113219 -0.271623
Br29  Br    Br    0.759592 0.145195 0.863570 -0.267284
Br30  Br    Br    0.089258 0.955740 0.055477 -0.341890
Br31  Br    Br    0.259592 0.645195 0.863570 -0.267282
Br32  Br    Br    0.589258 0.455740 0.055477 -0.341891
N5    N     N_R   0.810807 0.161716 0.027226 0.025055
O61   O     O_R   0.838652 0.178975 0.088507 -0.294995
O62   O     O_R   0.845238 0.205219 0.974413 -0.283261
N6    N     N_R   0.134312 0.890625 0.907988 0.099521
O63   O     O_R   0.129136 0.796365 0.867971 -0.284100
O64   O     O_R   0.101590 0.986624 0.890197 -0.194494
N7    N     N_R   0.310807 0.661716 0.027226 0.025055
O65   O     O_R   0.338652 0.678975 0.088507 -0.294996
O66   O     O_R   0.345238 0.705219 0.974413 -0.283262
N8    N     N_R   0.634312 0.390625 0.907988 0.099521
O67   O     O_R   0.629136 0.296365 0.867971 -0.284102
O68   O     O_R   0.601590 0.486624 0.890197 -0.194495
Br33  Br    Br    0.581899 0.346118 0.610628 -0.265687
Br34  Br    Br    0.565069 0.415542 0.440064 -0.232936
Br35  Br    Br    0.081905 0.846107 0.610629 -0.265674
Br36  Br    Br    0.065073 0.915539 0.440066 -0.232927

loop_
_geom_bond_atom_site_label_1
_geom_bond_atom_site_label_2
_geom_bond_distance
_ccdc_geom_bond_type
C18   O42   1.265173 A    
C86   C90   1.385191 A    
Cr11  O51   2.013079 S    
C49   Br25  1.888827 S    
O4    C12   1.299600 A    
C51   Br27  1.888827 S    
C29   C30   1.430463 A    
C48   Br24  1.890975 S    
O39   C19   1.277001 A    
O20   Cr12  2.093321 S    
O29   C13   1.275803 A    
C41   C42   1.377458 A    
O37   Cr5   1.966409 S    
C31   C32   1.430463 A    
C95   N3    1.444693 S    
C28   C32   1.396175 A    
N6    O63   1.298783 A    
C47   C67   1.401196 A    
N8    O68   1.291097 A    
C40   C42   1.371665 A    
C33   C34   1.391203 A    
C84   Br8   1.928216 S    
C18   C73   1.444374 S    
C59   Br31  1.946289 S    
O27   Cr3   2.093603 S    
C22   C102  1.477822 S    
O7    C3    1.308570 A    
C100  C104  1.414095 A    
C57   Br29  1.946289 S    
C96   N4    1.437882 S    
C88   C92   1.385177 A    
C13   C92   1.471527 S    
C39   Br19  1.942076 S    
C87   C91   1.425125 A    
C82   C86   1.392125 A    
O25   C21   1.299804 A    
C84   C104  1.428785 A    
C42   H2    1.073542 S    
C83   Br7   1.933941 S    
C40   Br20  1.930249 S    
C10   C66   1.465285 S    
C70   C73   1.405633 A    
C99   C103  1.430325 A    
C47   Br23  1.942030 S    
C81   C101  1.385868 A    
O8    Cr4   1.972574 S    
C1    C56   1.444184 S    
O23   Cr11  1.965414 S    
C100  Br16  1.936652 S    
O30   C14   1.306607 A    
C85   C89   1.425131 A    
C87   Br11  1.930336 S    
O32   Cr4   1.966100 S    
C1    O9    1.251987 A    
O44   Cr12  2.083531 S    
C73   C77   1.388801 A    
C49   C53   1.401592 A    
C53   C57   1.373031 A    
C90   C94   1.416897 A    
C15   C90   1.471542 S    
C3    O11   1.251987 A    
C6    C25   1.477279 S    
O11   Cr7   2.087522 S    
C4    C53   1.451061 S    
C4    O12   1.292257 A    
O21   C9    1.334111 A    
C23   C103  1.463642 S    
C93   N1    1.444692 S    
C79   C80   1.396247 A    
C38   C44   1.371665 A    
N4    O59   1.298089 A    
C20   C75   1.444375 S    
C7    O19   1.257517 A    
C27   C36   1.396269 A    
C34   Br2   1.936206 S    
O3    Cr3   2.086890 S    
C60   Br32  1.924085 S    
C26   C33   1.416862 A    
O47   C23   1.268128 A    
O2    Cr2   2.086029 S    
O41   Cr9   2.085093 S    
C64   C68   1.386076 A    
C56   C60   1.417100 A    
C44   H4    1.073543 S    
C19   C76   1.463669 S    
O2    C10   1.299600 A    
O10   Cr6   2.090048 S    
O42   Cr10  2.083531 S    
Cr5   O49   2.017409 S    
O18   Cr10  2.093321 S    
C45   C65   1.401196 A    
C17   C74   1.463670 S    
C25   C29   1.446159 A    
C62   C66   1.386076 A    
C21   C101  1.463631 S    
O8    C4    1.268043 A    
C86   Br10  1.930428 S    
C72   C75   1.405632 A    
Cr7   O51   2.017409 S    
C31   C39   1.447243 A    
C20   O44   1.265171 A    
C26   C30   1.396176 A    
O35   Cr7   2.088388 S    
C5    C26   1.474681 S    
O31   Cr3   1.966322 S    
O24   Cr12  1.963442 S    
O9    Cr5   2.087522 S    
C71   C76   1.390048 A    
O30   Cr2   1.966100 S    
C98   Br14  1.936637 S    
O22   C10   1.268707 A    
O26   C22   1.276639 A    
C83   C87   1.382900 A    
O48   Cr12  1.971611 S    
C76   C80   1.423370 A    
C69   C74   1.390046 A    
C92   C96   1.416907 A    
C61   N5    1.442956 S    
C5    O17   1.257517 A    
C70   H6    1.081529 S    
C11   C67   1.465350 S    
O16   Cr8   1.972684 S    
C15   O35   1.301966 A    
C16   C89   1.456664 S    
O26   Cr2   2.092216 S    
C57   C61   1.404800 A    
O27   C23   1.299815 A    
Cr10  O50   2.017866 S    
O6    Cr2   1.972574 S    
C97   Br13  1.920323 S    
C77   Br33  1.929552 S    
Cr4   O52   2.014499 S    
C48   C52   1.393278 A    
N6    O64   1.291097 A    
O12   Cr8   2.090048 S    
N2    O56   1.301116 A    
C35   Br3   1.931294 S    
C54   C58   1.417100 A    
O15   C7    1.312037 A    
C50   C54   1.380824 A    
O5    C1    1.308570 A    
N5    O61   1.291649 A    
C63   N7    1.442956 S    
O46   Cr10  1.971611 S    
O39   Cr7   1.966409 S    
O3    C11   1.286338 A    
C33   Br1   1.931294 S    
N7    O65   1.291649 A    
C13   O33   1.301968 A    
C91   C95   1.392252 A    
O48   C24   1.300033 A    
C79   Br35  1.929555 S    
C93   C97   1.400951 A    
O13   Cr5   1.969979 S    
C46   C66   1.425327 A    
C71   H7    1.080189 S    
C39   C41   1.390734 A    
O47   Cr11  1.973739 S    
Cr2   O50   2.014499 S    
O15   Cr7   1.969979 S    
C38   Br18  1.930249 S    
Cr1   O49   2.014389 S    
C46   C50   1.393278 A    
C37   Br17  1.942077 S    
C45   C49   1.383972 A    
Cr3   O51   2.014389 S    
O14   Cr6   1.972684 S    
N7    O66   1.290828 A    
C81   Br5   1.933951 S    
O21   Cr9   1.965414 S    
C2    C55   1.451061 S    
C47   C51   1.383972 A    
C14   C91   1.456668 S    
C32   C40   1.416289 A    
C99   Br15  1.920315 S    
C89   C93   1.392253 A    
O38   C18   1.296373 A    
C96   C100  1.404029 A    
C61   C65   1.437924 A    
C19   O43   1.294401 A    
O38   Cr6   1.968767 S    
C3    C54   1.444184 S    
C88   Br12  1.930431 S    
C43   C44   1.377459 A    
C29   C37   1.447243 A    
C36   Br4   1.936208 S    
C8    C27   1.477278 S    
O24   C12   1.268707 A    
C55   C59   1.373031 A    
O34   Cr6   2.091339 S    
C8    O20   1.316681 A    
C98   C102  1.414059 A    
O25   Cr1   2.093603 S    
C83   C103  1.385863 A    
C7    C28   1.474682 S    
O45   C21   1.268136 A    
C74   C78   1.423372 A    
C69   H5    1.080191 S    
C60   C64   1.378621 A    
O37   C17   1.277000 A    
O22   Cr10  1.963442 S    
O28   C24   1.276651 A    
O14   C6    1.259888 A    
C43   H3    1.067734 S    
C9    C65   1.465350 S    
C72   H8    1.081531 S    
C85   Br9   1.930348 S    
O17   Cr9   2.094980 S    
C64   N8    1.423567 S    
O6    C2    1.268043 A    
O7    Cr3   1.973308 S    
C71   C72   1.378907 A    
C17   O41   1.294399 A    
C48   C68   1.425327 A    
C84   C88   1.392106 A    
C51   C55   1.401592 A    
C52   Br28  1.935254 S    
O5    Cr1   1.973308 S    
C69   C70   1.378905 A    
C14   O34   1.253653 A    
C63   C67   1.437924 A    
O40   Cr8   1.968767 S    
C35   C36   1.391201 A    
C95   C99   1.400951 A    
C25   C34   1.396268 A    
C12   C68   1.465285 S    
O1    Cr1   2.086890 S    
N2    O55   1.297958 A    
C46   Br22  1.890975 S    
C62   N6    1.423567 S    
C45   Br21  1.942030 S    
N8    O67   1.298782 A    
N5    O62   1.290828 A    
O32   C16   1.306610 A    
C78   Br34  1.912393 S    
C77   C78   1.396247 A    
C97   C101  1.430324 A    
Cr6   O50   2.012509 S    
O46   C22   1.300035 A    
Cr12  O52   2.017866 S    
C41   H1    1.067734 S    
C50   Br26  1.935254 S    
C75   C79   1.388802 A    
C82   Br6   1.928210 S    
O23   C11   1.334111 A    
O19   Cr11  2.094980 S    
C94   C98   1.403971 A    
O33   Cr5   2.088388 S    
C94   N2    1.437814 S    
C24   C104  1.477843 S    
C81   C85   1.382895 A    
N1    O53   1.300408 A    
C59   C63   1.404800 A    
O4    Cr4   2.086029 S    
C52   C56   1.380824 A    
O1    C9    1.286338 A    
O29   Cr1   1.966322 S    
N3    O57   1.300407 A    
O28   Cr4   2.092216 S    
C16   O36   1.253648 A    
C82   C102  1.428789 A    
O40   C20   1.296373 A    
C30   C38   1.416289 A    
C27   C31   1.446160 A    
Cr8   O52   2.012509 S    
C80   Br36  1.912387 S    
C6    O18   1.316681 A    
O43   Cr11  2.085093 S    
C37   C43   1.390733 A    
C58   C62   1.378621 A    
O45   Cr9   1.973739 S    
N4    O60   1.301140 A    
N1    O54   1.301550 A    
O36   Cr8   2.091339 S    
O31   C15   1.275814 A    
O16   C8    1.259888 A    
Cr9   O49   2.013079 S    
C58   Br30  1.924085 S    
C28   C35   1.416863 A    
C2    O10   1.292257 A    
N3    O58   1.301549 A    
O13   C5    1.312037 A    
