data_mof_unit_63302.cif
_audit_creation_date              2012-12-10T16:52:17-0500
_audit_creation_method            fapswitch 2.2
_symmetry_space_group_name_H-M    P1
_symmetry_Int_Tables_number       1
_space_group_crystal_system       triclinic
_cell_length_a                    11.083092
_cell_length_b                    10.956717
_cell_length_c                    9.679564
_cell_angle_alpha                 90.173598
_cell_angle_beta                  102.460233
_cell_angle_gamma                 90.122768
_cell_volume                      1147.73501819

loop_
_atom_site_label
_atom_site_type_symbol
_atom_type_description
_atom_site_fract_x
_atom_site_fract_y
_atom_site_fract_z
_atom_type_partial_charge
C1    C     C_R   0.498878 0.265269 0.499289 0.825058
C2    C     C_2   0.128261 0.509907 0.414366 -0.360607
C3    C     C_2   0.068203 0.543856 0.515432 0.361618
C4    C     C_2   0.873367 0.508220 0.589663 0.134371
C5    C     C_2   0.933280 0.537389 0.486586 0.533289
C6    C     C_2   0.499141 0.933390 0.386983 0.572759
C7    C     C_2   0.516804 0.866069 0.505082 -0.371615
C8    C     C_2   0.521088 0.065885 0.394143 0.209786
C9    C     C_2   0.485765 0.133557 0.495192 0.340184
C10   C     C_2   0.434140 0.424462 0.905363 -0.148476
C11   C     C_2   0.427830 0.428697 0.060932 0.534627
C12   C     C_R   0.262969 0.504027 0.443402 0.874388
C13   C     C_R   0.502557 0.734656 0.500701 0.889661
C14   C     C_R   0.737441 0.501860 0.557158 0.754250
Cu1   Cu    Cu3+1 0.500020 0.500020 0.638640 1.015767
Cu2   Cu    Cu3+1 0.499980 0.499980 0.361360 1.109104
F1    F     F_    0.871045 0.559394 0.351419 -0.667764
F2    F     F_    0.465197 0.880955 0.256547 -0.621837
F3    F     F_    0.426609 0.082794 0.590607 -0.671941
H1    H     H_    0.545830 0.568403 0.905750 0.209029
H2    H     H_    0.565542 0.549935 0.121671 0.183913
H3    H     H_    0.077131 0.481849 0.310295 0.184843
H4    H     H_    0.548499 0.907444 0.608638 0.175674
H5    H     H_    0.379411 0.355835 0.838595 0.178042
H6    H     H_    0.297494 0.306890 0.027337 0.315103
H7    H     H_    0.158236 0.519687 0.704780 0.364769
H8    H     H_    0.883734 0.456473 0.784817 0.357183
H9    H     H_    0.599394 0.057306 0.232809 0.374282
N1    N     N_2   0.498650 0.498660 0.846590 -0.285612
N2    N     N_2   0.498620 0.498630 0.152710 -0.260071
O1    O     O_R   0.500020 0.321960 0.617050 -0.563374
O2    O     O_3   0.130238 0.591081 0.643489 -0.648440
O3    O     O_3   0.940543 0.483313 0.724681 -0.735171
O4    O     O_3   0.575820 0.121251 0.294633 -0.700452
O5    O     O_R   0.499980 0.321920 0.382890 -0.510940
O6    O     O_R   0.320700 0.500020 0.574050 -0.563571
O7    O     O_R   0.320660 0.499980 0.339890 -0.529691
O8    O     O_R   0.500020 0.678080 0.617110 -0.571485
O9    O     O_R   0.499980 0.678040 0.382950 -0.512478
O10   O     O_R   0.679340 0.500020 0.660110 -0.593064
O11   O     O_R   0.679300 0.499980 0.425950 -0.523575
O12   O     O_3   0.345093 0.354055 0.108634 -0.657533

loop_
_geom_bond_atom_site_label_1
_geom_bond_atom_site_label_2
_ccdc_geom_bond_type
H6    O12   S    
C2    H3    S    
Cu1   O8    S    
Cu1   O1    S    
C6    C7    D    
C12   O6    A    
H2    N2    S    
C7    C13   S    
Cu2   O7    S    
C2    C12   S    
C2    C3    D    
H9    O4    S    
C8    O4    S    
H8    O3    S    
H7    O2    S    
C10   N1    D    
C13   O8    A    
C14   O11   A    
C7    H4    S    
Cu1   N1    S    
H1    N1    S    
Cu2   O5    S    
C4    C14   S    
C3    O2    S    
C6    F2    S    
Cu1   O10   S    
C13   O9    A    
C5    F1    S    
C10   C11   S    
Cu2   O9    S    
Cu2   N2    S    
Cu1   Cu2   S    
Cu1   O6    S    
C1    O1    A    
C1    C9    S    
C1    O5    A    
C11   O12   S    
C12   O7    A    
C4    O3    S    
C8    C9    D    
C6    C8    S    
C10   H5    S    
C14   O10   A    
Cu2   O11   S    
C9    F3    S    
C11   N2    D    
C4    C5    D    
C3    C5    S    
