data_mof_unit_68154.cif
_audit_creation_date              2013-03-05T16:01:51-0500
_audit_creation_method            fapswitch 2.2
_symmetry_space_group_name_H-M    P1
_symmetry_Int_Tables_number       1
_space_group_crystal_system       triclinic
_cell_length_a                    20.993678
_cell_length_b                    7.615081
_cell_length_c                    14.386898
_cell_angle_alpha                 91.861454
_cell_angle_beta                  101.12112
_cell_angle_gamma                 87.397878
_cell_volume                      2253.83459932

loop_
_atom_site_label
_atom_site_type_symbol
_atom_site_description
_atom_site_fract_x
_atom_site_fract_y
_atom_site_fract_z
_atom_type_partial_charge
O1    O     O_R   0.449520 0.506760 0.599710 -0.623328
O2    O     O_R   0.550480 0.006760 0.400290 -0.568739
O3    O     O_R   0.587930 0.180200 0.595790 -0.539648
O4    O     O_R   0.412070 0.680200 0.404210 -0.545871
C1    C     C_R   0.612322 0.344446 0.623725 1.031013
C2    C     C_R   0.386764 0.845017 0.379090 0.876502
O5    O     O_R   0.452350 0.177380 0.611700 -0.525574
O6    O     O_R   0.547650 0.677380 0.388300 -0.562998
O7    O     O_R   0.413930 0.001760 0.416320 -0.532738
O8    O     O_R   0.586070 0.501760 0.583680 -0.574304
C3    C     C_R   0.432416 0.351444 0.631854 1.009959
C4    C     C_R   0.565262 0.839082 0.365350 0.946166
O9    O     O_3   0.487550 0.337460 0.435880 -0.238750
O10   O     O_3   0.512450 0.837460 0.564120 -0.297980
V1    V     V_3+5 0.502310 0.064670 0.511900 1.365331
V2    V     V_3+5 0.497690 0.564670 0.488100 1.348167
C5    C     C_R   0.623975 0.687243 0.137290 0.246006
C6    C     C_R   0.371791 0.502917 0.857590 0.223999
H1    H     H_    0.698002 0.722660 0.001365 0.154755
H2    H     H_    0.307097 0.432376 0.999113 0.205710
C7    C     C_R   0.605963 0.818139 0.288758 -0.218279
C8    C     C_R   0.388518 0.384201 0.704602 -0.249495
C9    C     C_R   0.900401 0.019456 0.275653 0.278259
C10   C     C_R   0.083434 0.272291 0.711503 0.163560
C11   C     C_R   0.868619 0.006275 0.351128 0.250911
C12   C     C_R   0.117158 0.274226 0.636792 0.313442
C13   C     C_R   0.809309 0.931964 0.338807 -0.033036
C14   C     C_R   0.183096 0.299340 0.653768 -0.098610
C15   C     C_R   0.778015 0.880388 0.249950 0.064766
C16   C     C_R   0.217571 0.321417 0.745771 0.113919
C17   C     C_R   0.813538 0.874863 0.173508 -0.043024
C18   C     C_R   0.182319 0.336226 0.822680 0.013315
C19   C     C_R   0.711714 0.837560 0.235668 0.183518
C20   C     C_R   0.285687 0.345742 0.761868 0.160874
C21   C     C_R   0.686340 0.753071 0.149581 0.069686
C22   C     C_R   0.314191 0.415565 0.850340 -0.045420
C23   C     C_R   0.718557 0.766387 0.072207 -0.062714
C24   C     C_R   0.282716 0.403906 0.927712 -0.113165
C25   C     C_R   0.777475 0.846646 0.081849 0.242025
C26   C     C_R   0.219227 0.350830 0.915696 0.255346
C27   C     C_R   0.669026 0.883407 0.301242 -0.184636
C28   C     C_R   0.326681 0.310003 0.693600 -0.110740
C29   C     C_R   0.587634 0.701894 0.210084 0.220118
C30   C     C_R   0.400631 0.515733 0.777771 0.322255
C31   C     C_R   0.881304 0.911647 0.193019 -0.299503
C32   C     C_R   0.112848 0.331232 0.802111 -0.317155
H3    H     H_    0.684299 0.963374 0.364013 0.181606
H4    H     H_    0.309048 0.239244 0.628707 0.156035
H5    H     H_    0.785875 0.927326 0.398865 0.185554
H6    H     H_    0.206302 0.307023 0.593305 0.153737
C33   C     C_R   0.245215 0.874673 0.044207 0.354791
C34   C     C_R   0.760411 0.345905 0.971019 0.342516
C35   C     C_R   0.300785 0.941604 0.017047 -0.001539
C36   C     C_R   0.708927 0.284346 0.010115 -0.016786
C37   C     C_R   0.351717 0.003380 0.086482 0.306271
C38   C     C_R   0.651548 0.240326 0.951136 0.276012
C39   C     C_R   0.346328 0.005967 0.180856 0.258935
C40   C     C_R   0.641054 0.286522 0.856031 0.363657
C41   C     C_R   0.303629 0.897687 0.211558 -0.136351
C42   C     C_R   0.692136 0.323711 0.807429 -0.070594
C43   C     C_R   0.242911 0.866294 0.145493 -0.098839
C44   C     C_R   0.757044 0.346863 0.867550 -0.111224
C45   C     C_R   0.316882 0.846652 0.309325 -0.007050
C46   C     C_R   0.678711 0.359611 0.704393 -0.042479
C47   C     C_R   0.261161 0.797439 0.342424 -0.013838
C48   C     C_R   0.729733 0.442581 0.675810 -0.076418
C49   C     C_R   0.195422 0.826095 0.289210 -0.083505
C50   C     C_R   0.796887 0.437822 0.723952 -0.091958
C51   C     C_R   0.184047 0.847999 0.184316 -0.089092
C52   C     C_R   0.813533 0.380090 0.823398 -0.076627
C53   C     C_R   0.270710 0.749100 0.436897 -0.068200
C54   C     C_R   0.713362 0.534053 0.592581 0.042217
C55   C     C_R   0.225417 0.793068 0.491077 0.272985
C56   C     C_R   0.751629 0.496736 0.528568 0.345560
C57   C     C_R   0.160811 0.807486 0.447119 0.286498
C58   C     C_R   0.818726 0.494272 0.562602 0.209520
C59   C     C_R   0.145892 0.834830 0.347566 0.316941
C60   C     C_R   0.840623 0.498710 0.664200 0.313234
O11   O     O_R   0.913760 0.203480 0.916370 -0.557975
O12   O     O_R   0.086240 0.703480 0.083630 -0.525559
O13   O     O_R   0.047590 0.535230 0.888250 -0.513216
O14   O     O_R   0.952410 0.035230 0.111750 -0.575967
C61   C     C_R   0.069756 0.363553 0.873004 1.070385
C62   C     C_R   0.927532 0.878922 0.124078 1.101344
O15   O     O_R   0.912020 0.532880 0.904260 -0.473458
O16   O     O_R   0.087980 0.032880 0.095740 -0.580332
O17   O     O_R   0.949590 0.708460 0.099750 -0.510616
O18   O     O_R   0.050410 0.208460 0.900250 -0.558933
C63   C     C_R   0.885954 0.368122 0.882422 1.060980
C64   C     C_R   0.114475 0.862646 0.116582 1.115973
O19   O     O_3   0.012370 0.375360 0.064120 -0.303010
O20   O     O_3   0.987630 0.875360 0.935880 -0.257263
V3    V     V_3+5 0.997700 0.648160 0.988110 1.446939
V4    V     V_3+5 0.002300 0.148160 0.011890 1.368374
I1    I     I_    0.510245 0.529482 0.202344 -0.033041
I2    I     I_    0.443048 0.762193 0.764203 0.026509
S1    S     S_3+6 0.183130 0.799228 0.949053 -0.043778
O21   O     O_2   0.157541 0.639502 0.980015 -0.342353
O22   O     O_2   0.129529 0.936447 0.927248 -0.294821
O23   O     O_3   0.204736 0.735368 0.846364 -0.461346
H7    H     H_    0.163377 0.728908 0.800052 0.387639
S2    S     S_3+6 0.825801 0.428122 0.055392 -0.053606
O24   O     O_2   0.879852 0.294090 0.068722 -0.278430
O25   O     O_2   0.845822 0.586061 0.015196 -0.351003
O26   O     O_3   0.814306 0.493762 0.163262 -0.488699
H8    H     H_    0.855263 0.548171 0.193462 0.393690
I3    I     I_    0.305076 0.975337 0.871141 -0.139448
I4    I     I_    0.711641 0.272373 0.160400 -0.207390
S3    S     S_3+6 0.424745 0.080091 0.062557 0.077012
O27   O     O_2   0.421450 0.275516 0.070603 -0.223244
O28   O     O_2   0.479489 0.011371 0.137120 -0.266229
O29   O     O_3   0.440645 0.022346 0.955987 -0.404534
H9    H     H_    0.434219 0.131578 0.919094 0.392583
S4    S     S_3+6 0.588322 0.141821 0.995567 0.089742
O30   O     O_2   0.542127 0.277677 0.025497 -0.177290
O31   O     O_2   0.553672 0.026050 0.917481 -0.149426
O32   O     O_3   0.612704 0.023362 0.090548 -0.551424
H10   H     H_    0.593203 0.080162 0.141901 0.396210
S5    S     S_3+6 0.358653 0.208854 0.241808 0.043555
O33   O     O_2   0.429845 0.223584 0.278482 -0.174364
O34   O     O_2   0.334670 0.360889 0.178751 -0.267773
O35   O     O_3   0.317171 0.214421 0.329990 -0.519127
H11   H     H_    0.270826 0.224117 0.298434 0.363602
S6    S     S_3+6 0.562802 0.349599 0.805169 -0.050264
O36   O     O_2   0.542781 0.200692 0.738914 -0.317142
O37   O     O_2   0.512910 0.372899 0.865425 -0.254988
O38   O     O_3   0.572961 0.546455 0.762602 -0.561818
H12   H     H_    0.537412 0.563193 0.709362 0.378182
I5    I     I_    0.306309 0.494733 0.469251 -0.238287
I6    I     I_    0.690285 0.805852 0.608670 -0.217872
S7    S     S_3+6 0.253900 0.829618 0.613397 0.035497
O39   O     O_2   0.206526 0.941419 0.657003 -0.239726
O40   O     O_2   0.264098 0.657821 0.662102 -0.239439
O41   O     O_3   0.325514 0.926547 0.629641 -0.498616
H13   H     H_    0.330568 0.966691 0.566815 0.312339
S8    S     S_3+6 0.712486 0.404616 0.420316 -0.034273
O42   O     O_2   0.711167 0.530681 0.342683 -0.264074
O43   O     O_2   0.748472 0.238962 0.400043 -0.364766
O44   O     O_3   0.635738 0.357080 0.424204 -0.522150
H14   H     H_    0.617808 0.308748 0.360191 0.381852
S9    S     S_3+6 0.072346 0.940486 0.306156 -0.028339
O45   O     O_2   0.037800 0.816352 0.234580 -0.378911
O46   O     O_2   0.030260 0.977740 0.377361 -0.197875
O47   O     O_3   0.092090 0.132269 0.266224 -0.543423
H15   H     H_    0.054112 0.175778 0.220774 0.399343
S10   S     S_3+6 0.909312 0.622704 0.712201 0.040345
O48   O     O_2   0.890514 0.755475 0.782567 -0.224485
O49   O     O_2   0.957767 0.488571 0.757020 -0.400063
O50   O     O_3   0.947548 0.734727 0.642489 -0.371425
H16   H     H_    0.994430 0.720079 0.669963 0.373203
I7    I     I_    0.574979 0.649594 0.998097 -0.032691
I8    I     I_    0.409216 0.632228 0.984852 -0.088282
I9    I     I_    0.942649 0.270913 0.275639 -0.046728
I10   I     I_    0.000211 0.120765 0.699358 -0.061134
I11   I     I_    0.900531 0.118426 0.483436 -0.045117
I12   I     I_    0.071793 0.292337 0.495209 -0.002061
I13   I     I_    0.801515 0.929075 0.951854 -0.257301
I14   I     I_    0.189956 0.289115 0.045432 -0.245688
S11   S     S_3+6 0.100955 0.760814 0.515027 0.088471
O51   O     O_2   0.076816 0.924960 0.558084 -0.237426
O52   O     O_2   0.044270 0.674787 0.453599 -0.153825
O53   O     O_3   0.132546 0.631869 0.605195 -0.520065
H17   H     H_    0.101753 0.644439 0.649349 0.343241
S12   S     S_3+6 0.866159 0.566392 0.483795 0.069175
O54   O     O_2   0.864052 0.759201 0.499353 -0.236648
O55   O     O_2   0.935534 0.499936 0.507868 -0.179280
O56   O     O_3   0.837155 0.528333 0.368481 -0.465609
H18   H     H_    0.836704 0.399624 0.360275 0.391797

loop_
_geom_bond_atom_site_label_1
_geom_bond_atom_site_label_2
_geom_bond_distance
_ccdc_geom_bond_type
C33   S1    1.797650 S    
C48   C50   1.445300 A    
C45   C47   1.414900 A    
C9    C31   1.425018 A    
C11   I11   2.062990 S    
C54   C56   1.349795 A    
C12   I12   2.081610 S    
C49   C59   1.455126 A    
C62   O17   1.414349 A    
S7    O41   1.677434 S    
O2    C4    1.400678 A    
C2    O7    1.392583 A    
C55   S7    1.763311 S    
S4    O30   1.495751 D    
O50   H16   0.990064 S    
C12   C14   1.379506 A    
O5    C3    1.409840 A    
C34   S2    1.770820 S    
C56   C58   1.398724 A    
O14   V4    2.154787 S    
C26   I14   2.146615 S    
S12   O54   1.477969 D    
C21   C23   1.418061 A    
C58   C60   1.444978 A    
O53   H17   0.989683 S    
S3    O28   1.500555 D    
C39   C41   1.386385 A    
C13   C15   1.373660 A    
C40   C42   1.431396 A    
C15   C19   1.418625 A    
H2    C24   1.075627 S    
C44   C52   1.483970 A    
S2    O26   1.673219 S    
C42   C44   1.480973 A    
O20   V3    1.895445 S    
O16   V4    2.133005 S    
O13   C61   1.392583 A    
C7    C29   1.417966 A    
O15   V3    2.167691 S    
O12   V3    2.137555 S    
C8    C30   1.423867 A    
C34   C36   1.414917 A    
C20   C28   1.437637 A    
C47   C49   1.454067 A    
C33   C43   1.470829 A    
C29   I1    2.119006 S    
S11   O52   1.501280 D    
C38   C40   1.397275 A    
H1    C23   1.075726 S    
C39   S5    1.756042 S    
C50   C52   1.482026 A    
C35   C37   1.402009 A    
C61   O18   1.359611 A    
O6    V2    2.154310 S    
C24   C26   1.387557 A    
C25   I13   2.148401 S    
C55   C57   1.382640 A    
C5    I7    2.084543 S    
C14   H6    1.080217 S    
S8    O44   1.679060 S    
C6    I8    2.082639 S    
O29   H9    0.991314 S    
S1    O22   1.494958 D    
C10   I10   2.113463 S    
S1    O21   1.467419 D    
S10   O49   1.479632 D    
S5    O34   1.501996 D    
C50   C60   1.471758 A    
C14   C16   1.389652 A    
O44   H14   0.991024 S    
C48   C54   1.382324 A    
C41   C43   1.459774 A    
C16   C20   1.423516 A    
O11   V4    2.121831 S    
O4    C2    1.372214 A    
O16   C64   1.405437 A    
S3    O29   1.672076 S    
O56   H18   0.983654 S    
C53   C55   1.365243 A    
O15   C63   1.393804 A    
S8    O42   1.491687 D    
S7    O40   1.491510 D    
C47   C53   1.394187 A    
C4    C7    1.519621 S    
C1    C46   1.638516 S    
C56   S8    1.755158 S    
C49   C51   1.495308 A    
S9    O46   1.489326 D    
C46   C48   1.401382 A    
C2    C45   1.609654 S    
O4    V2    2.133090 S    
C5    C29   1.408616 A    
C37   C39   1.383479 A    
C30   I2    2.143862 S    
C6    C30   1.405587 A    
C53   I5    2.078507 S    
S10   O50   1.675192 S    
O13   V3    2.078222 S    
C35   I3    2.142556 S    
S11   O51   1.488718 D    
O6    C4    1.369984 A    
C27   H3    1.076795 S    
S11   O53   1.666910 S    
O1    V2    2.123292 S    
C28   H4    1.072906 S    
S2    O25   1.463713 D    
O2    V1    2.082159 S    
C57   C59   1.425911 A    
S6    O38   1.675352 S    
C7    C27   1.412188 A    
S8    O43   1.490533 D    
O14   C62   1.351648 A    
C9    I9    2.146554 S    
C41   C45   1.442772 A    
S9    O47   1.684064 S    
C52   C63   1.592290 S    
C51   C64   1.593272 S    
S1    O23   1.678292 S    
O3    V1    2.167784 S    
S6    O37   1.484427 D    
S10   O48   1.501411 D    
S5    O35   1.670038 S    
C57   S11   1.787887 S    
C18   C32   1.433149 A    
S12   O56   1.673961 S    
C10   C12   1.397254 A    
O47   H15   0.980803 S    
O3    C1    1.390759 A    
S7    O39   1.495551 D    
S4    O31   1.499024 D    
S5    O33   1.493969 D    
C36   C38   1.381056 A    
C54   I6    2.119747 S    
O41   H13   0.989749 S    
C11   C13   1.369056 A    
O26   H8    0.988079 S    
C3    C8    1.530118 S    
C40   S6    1.718244 S    
C36   I4    2.156660 S    
C42   C46   1.486518 A    
C43   C51   1.464733 A    
S12   O55   1.499044 D    
O7    V1    2.148643 S    
C19   C27   1.446171 A    
C1    O8    1.390382 A    
C15   C17   1.441514 A    
O8    V2    2.130924 S    
O32   H10   0.990148 S    
C22   C24   1.406792 A    
C16   C18   1.443911 A    
C8    C28   1.418127 A    
O17   V3    2.084820 S    
O5    V1    2.077846 S    
O23   H7    0.989374 S    
C19   C21   1.398752 A    
C17   C25   1.403392 A    
C20   C22   1.397134 A    
C18   C26   1.414818 A    
O12   C64   1.401685 A    
S2    O24   1.479776 D    
C59   S9    1.717464 S    
O11   C63   1.419352 A    
S4    O32   1.646617 S    
C58   S12   1.761918 S    
C60   S10   1.773436 S    
C32   C61   1.496213 S    
C31   C62   1.523505 S    
C13   H5    1.075833 S    
C9    C11   1.388154 A    
C23   C25   1.385519 A    
C17   C31   1.434641 A    
O9    V2    1.868345 S    
S3    O27   1.488427 D    
O18   V4    2.127561 S    
C38   S4    1.783825 S    
O10   V1    1.895448 S    
S6    O36   1.479722 D    
C34   C44   1.476840 A    
O1    C3    1.371067 A    
C5    C21   1.400454 A    
C33   C35   1.419942 A    
O35   H11   0.991696 S    
S9    O45   1.480151 D    
C6    C22   1.391218 A    
C37   S3    1.762994 S    
O38   H12   0.968031 S    
C10   C32   1.399527 A    
O19   V4    1.868210 S    
