data_mof_unit_68039.cif
_audit_creation_date              2012-12-11T14:37:44-0500
_audit_creation_method            fapswitch 2.2
_symmetry_space_group_name_H-M    P1
_symmetry_Int_Tables_number       1
_space_group_crystal_system       triclinic
_cell_length_a                    14.828918
_cell_length_b                    15.609089
_cell_length_c                    6.989441
_cell_angle_alpha                 91.272031
_cell_angle_beta                  81.461955
_cell_angle_gamma                 90.345317
_cell_volume                      1599.48742426

loop_
_atom_site_label
_atom_site_type_symbol
_atom_type_description
_atom_site_fract_x
_atom_site_fract_y
_atom_site_fract_z
_atom_type_partial_charge
O1    O     O_R   0.337080 0.165770 0.524980 -0.547253
O2    O     O_R   0.662920 0.834230 0.475020 -0.544772
O3    O     O_R   0.662920 0.665770 0.475020 -0.527194
O4    O     O_R   0.337080 0.334230 0.524980 -0.523296
O5    O     O_R   0.348340 0.341430 0.191390 -0.535510
O6    O     O_R   0.651660 0.658570 0.808610 -0.531361
O7    O     O_R   0.651660 0.841430 0.808610 -0.531873
O8    O     O_R   0.348340 0.158570 0.191390 -0.541103
O9    O     O_R   0.165780 0.339950 0.082750 -0.529362
O10   O     O_R   0.834220 0.660050 0.917250 -0.531501
O11   O     O_R   0.834220 0.839950 0.917250 -0.526373
O12   O     O_R   0.165780 0.160050 0.082750 -0.522614
C1    C     C_R   0.369633 0.364262 0.357718 0.711571
C2    C     C_R   0.630115 0.635833 0.642240 0.693032
C3    C     C_R   0.629992 0.864370 0.644708 0.683068
C4    C     C_R   0.369590 0.135492 0.355533 0.665392
O13   O     O_3   0.191540 0.250000 0.407620 -0.363222
O14   O     O_3   0.808460 0.750000 0.592380 -0.367749
V1    V     V_3+5 0.262540 0.250000 0.108780 1.582954
V2    V     V_3+5 0.737460 0.750000 0.891220 1.597578
O15   O     O_R   0.154530 0.164290 0.756910 -0.550059
O16   O     O_R   0.845470 0.835710 0.243090 -0.549527
O17   O     O_R   0.845470 0.664290 0.243090 -0.539155
O18   O     O_R   0.154530 0.335710 0.756910 -0.537579
C5    C     C_R   0.134110 0.131869 0.929618 0.780575
C6    C     C_R   0.867862 0.866726 0.069357 0.786115
C7    C     C_R   0.866102 0.632045 0.066829 0.770237
C8    C     C_R   0.134308 0.368175 0.932893 0.777744
V3    V     V_3+5 0.240320 0.250000 0.616280 1.524222
V4    V     V_3+5 0.759680 0.750000 0.383720 1.526866
O19   O     O_3   0.311330 0.250000 0.867310 -0.365894
O20   O     O_3   0.688670 0.750000 0.132690 -0.356639
C9    C     C_3   0.067854 0.521572 0.103186 0.048096
C10   C     C_3   0.933508 0.478952 0.895540 0.045265
C11   C     C_3   0.920936 0.028697 0.967680 0.075573
C12   C     C_3   0.083591 0.968527 0.030924 0.068821
C13   C     C_3   0.035818 0.575199 0.943442 0.508633
C14   C     C_3   0.965440 0.425603 0.055722 0.512255
C15   C     C_3   0.979901 0.065628 0.114019 0.509911
C16   C     C_3   0.024756 0.931552 0.884136 0.506792
C17   C     C_3   0.935647 0.560576 0.028049 -0.197453
C18   C     C_3   0.065483 0.440071 0.970900 -0.197309
C19   C     C_3   0.065334 0.059655 0.960747 -0.179697
C20   C     C_3   0.938936 0.937381 0.037344 -0.179508
C21   C     C_3   0.966676 0.506056 0.188882 -0.269741
C22   C     C_3   0.034718 0.494766 0.810298 -0.270115
C23   C     C_3   0.007003 0.022181 0.812059 -0.324617
C24   C     C_3   0.997295 0.975040 0.186309 -0.317180
C25   C     C_2   0.594067 0.453046 0.300739 0.374362
C26   C     C_2   0.409323 0.544281 0.662911 0.356026
C27   C     C_2   0.581079 0.005394 0.288416 0.347025
C28   C     C_2   0.462076 0.038341 0.860224 0.378089
H1    H     H_    0.938801 0.512365 0.343883 0.200133
H2    H     H_    0.062951 0.489194 0.655236 0.200502
H3    H     H_    0.010953 0.042257 0.659732 0.162578
H4    H     H_    0.992096 0.955804 0.339326 0.158939
C29   C     C_2   0.537183 0.464118 0.465048 0.019946
C30   C     C_2   0.467063 0.533997 0.499219 0.023606
C31   C     C_2   0.531262 0.989827 0.146569 0.062116
C32   C     C_2   0.512778 0.054547 0.000852 0.075714
O21   O     O_3   0.409350 0.493637 0.820506 -0.525161
C33   C     C_3   0.334680 0.519583 0.954777 -0.067509
H5    H     H_    0.332504 0.590412 0.979674 0.143668
H6    H     H_    0.340910 0.491267 0.095325 0.183857
H7    H     H_    0.270358 0.495901 0.908562 0.083599
O22   O     O_3   0.593631 0.502949 0.142290 -0.526333
C34   C     C_3   0.667589 0.475820 0.007886 -0.069021
H8    H     H_    0.660949 0.502809 0.866239 0.178071
H9    H     H_    0.669577 0.404782 0.985817 0.155327
H10   H     H_    0.732088 0.500038 0.052332 0.088604
O23   O     O_3   0.424438 0.959546 0.827903 -0.536442
C35   C     C_3   0.375261 0.967599 0.672547 -0.141905
H11   H     H_    0.315951 0.011221 0.711646 0.125790
H12   H     H_    0.348572 0.903566 0.637352 0.186604
H13   H     H_    0.419569 0.989824 0.540785 0.087498
O24   O     O_3   0.622091 0.082585 0.319426 -0.528973
C36   C     C_3   0.663372 0.074193 0.486077 -0.154242
H14   H     H_    0.690241 0.137654 0.525022 0.198798
H15   H     H_    0.720917 0.027905 0.459995 0.112813
H16   H     H_    0.613884 0.054086 0.611922 0.115256
I1    I     I_    0.450865 0.630763 0.300222 -0.325326
I2    I     I_    0.552219 0.365393 0.659554 -0.333331
I3    I     I_    0.561758 0.182898 0.000897 -0.309150
I4    I     I_    0.473344 0.865480 0.165000 -0.293640
O25   O     O_3   0.066882 0.656836 0.879277 -0.523246
C37   C     C_3   0.161952 0.655573 0.820815 -0.089273
H17   H     H_    0.186704 0.595366 0.742836 0.102715
H18   H     H_    0.197445 0.667655 0.947462 0.164063
H19   H     H_    0.180783 0.708450 0.719641 0.181064
O26   O     O_3   0.933598 0.344282 0.120541 -0.524002
C38   C     C_3   0.838416 0.346173 0.178159 -0.083421
H20   H     H_    0.803257 0.330491 0.052600 0.168454
H21   H     H_    0.813084 0.408009 0.247703 0.098461
H22   H     H_    0.819494 0.296010 0.286447 0.179953
O27   O     O_3   0.965071 0.140762 0.230137 -0.526282
C39   C     C_3   0.886704 0.131030 0.367531 -0.168135
H23   H     H_    0.887136 0.070660 0.448828 0.119950
H24   H     H_    0.825228 0.134813 0.295886 0.176648
H25   H     H_    0.883980 0.184761 0.474780 0.197556
O28   O     O_3   0.043396 0.857133 0.766833 -0.527459
C40   C     C_3   0.118507 0.872010 0.622713 -0.145332
H26   H     H_    0.182378 0.878074 0.686533 0.142454
H27   H     H_    0.109050 0.929321 0.536803 0.124580
H28   H     H_    0.125903 0.816324 0.520379 0.198929
I5    I     I_    0.156777 0.561641 0.302052 -0.506553
I6    I     I_    0.850855 0.433221 0.689358 -0.507298
I7    I     I_    0.794772 0.074191 0.901112 -0.452793
I8    I     I_    0.208757 0.919494 0.098875 -0.425964

loop_
_geom_bond_atom_site_label_1
_geom_bond_atom_site_label_2
_ccdc_geom_bond_type
O10   C7    A    
C16   C23   S    
C40   H26   S    
C12   I8    S    
C9    C21   S    
O27   C39   S    
V1    O19   S    
C5    C19   S    
O26   C38   S    
C6    C20   S    
C36   H14   S    
C9    C18   S    
C13   O25   S    
C14   C18   S    
C32   I3    S    
C37   H18   S    
O6    C2    A    
C39   H25   S    
C25   C29   D    
C18   C22   S    
O4    C1    A    
O18   V3    S    
C14   C21   S    
C33   H6    S    
C28   C32   D    
O9    V1    S    
O10   V2    S    
C39   H24   S    
C10   C22   S    
O17   C7    A    
O5    C1    A    
O4    V3    S    
O7    C3    A    
O22   C34   S    
C11   C23   S    
C31   C32   S    
C40   H27   S    
C10   C17   S    
C35   H13   S    
C36   H15   S    
O11   V2    S    
O8    V1    S    
C25   O22   S    
C34   H8    S    
C26   C30   D    
O17   V4    S    
C12   C16   S    
C9    I5    S    
O24   C36   S    
C35   H12   S    
C30   I1    S    
C38   H20   S    
C37   H17   S    
C15   C19   S    
O11   C6    A    
O25   C37   S    
O15   V3    S    
C9    C13   S    
C34   H9    S    
C10   I6    S    
O3    V4    S    
C11   C15   S    
C33   H5    S    
O2    C3    A    
C38   H21   S    
C7    C17   S    
C39   H23   S    
C22   H2    S    
O1    V3    S    
O1    C4    A    
C31   I4    S    
C11   C20   S    
C15   O27   S    
O3    C2    A    
O14   V4    S    
C40   H28   S    
C27   C31   D    
C23   H3    S    
V2    O20   S    
C36   H16   S    
C24   H4    S    
O15   C5    A    
O16   V4    S    
C33   H7    S    
C10   C14   S    
O18   C8    A    
C35   H11   S    
C37   H19   S    
C16   O28   S    
O5    V1    S    
O6    V2    S    
C14   O26   S    
O12   C5    A    
O2    V4    S    
C34   H10   S    
O23   C35   S    
V3    O19   S    
C28   O23   S    
O13   V3    S    
C38   H22   S    
V4    O20   S    
C29   C30   S    
O12   V1    S    
C8    C18   S    
O28   C40   S    
O13   V1    S    
C12   C24   S    
O14   V2    S    
C13   C17   S    
O21   C33   S    
C11   I7    S    
C21   H1    S    
C16   C20   S    
O8    C4    A    
O7    V2    S    
O16   C6    A    
C27   O24   S    
C26   O21   S    
C17   C21   S    
C29   I2    S    
C12   C19   S    
C13   C22   S    
C19   C23   S    
C20   C24   S    
O9    C8    A    
C15   C24   S    
