data_mof_unit_56968.cif
_audit_creation_date              2012-12-10T18:33:46-0500
_audit_creation_method            fapswitch 2.2
_symmetry_space_group_name_H-M    P1
_symmetry_Int_Tables_number       1
_space_group_crystal_system       triclinic
_cell_length_a                    10.510337
_cell_length_b                    15.000513
_cell_length_c                    15.440671
_cell_angle_alpha                 81.987216
_cell_angle_beta                  89.430995
_cell_angle_gamma                 104.243213
_cell_volume                      2334.03207

loop_
_atom_site_label
_atom_site_type_symbol
_atom_type_description
_atom_site_fract_x
_atom_site_fract_y
_atom_site_fract_z
_atom_type_partial_charge
C1    C     C_R   0.488360 0.441667 0.662121 0.866645
C2    C     C_R   0.596857 0.499949 0.040968 0.060110
C3    C     C_R   0.616225 0.410925 0.071177 -0.257150
C4    C     C_R   0.598513 0.619743 0.917223 -0.275420
C5    C     C_R   0.609742 0.344433 0.014993 0.102538
C6    C     C_R   0.602294 0.685893 0.972827 0.092671
C7    C     C_R   0.689030 0.840127 0.640655 -0.321154
C8    C     C_R   0.306093 0.158603 0.362294 -0.310445
C9    C     C_R   0.658834 0.751826 0.617002 0.014286
C10   C     C_R   0.337403 0.247196 0.385317 0.017344
C11   C     C_R   0.516153 0.794439 0.509547 -0.034643
C12   C     C_R   0.517520 0.558678 0.337554 0.859993
C13   C     C_R   0.486282 0.206143 0.488845 -0.037247
C14   C     C_R   0.542164 0.885450 0.530459 -0.003420
C15   C     C_R   0.457578 0.114448 0.469577 -0.003202
C16   C     C_R   0.742400 0.500452 0.500096 0.846562
C17   C     C_R   0.257571 0.499513 0.499980 0.852362
C18   C     C_R   0.631073 0.907378 0.597485 0.176222
C19   C     C_R   0.365973 0.091834 0.404226 0.171580
C20   C     C_R   0.483284 0.954477 0.487791 0.076955
C21   C     C_R   0.516056 0.045318 0.512487 0.075489
C22   C     C_R   0.605140 0.063786 0.579684 -0.214456
C23   C     C_R   0.517379 0.471624 0.812373 -0.311713
C24   C     C_R   0.392298 0.935525 0.421744 -0.214230
C25   C     C_R   0.661203 0.995922 0.621194 -0.201826
C26   C     C_R   0.334728 0.003003 0.381172 -0.198649
C27   C     C_3   0.929603 0.417529 0.482099 -0.133924
C28   C     C_3   0.070276 0.582364 0.518107 -0.132080
C29   C     C_3   0.016553 0.431248 0.561480 -0.176614
C30   C     C_3   0.983335 0.568644 0.438724 -0.175309
C31   C     C_3   0.122143 0.499463 0.500003 0.029145
C32   C     C_3   0.877759 0.500436 0.500192 0.030913
C33   C     C_3   0.037866 0.485956 0.420671 -0.185815
C34   C     C_R   0.560846 0.535592 0.187834 -0.309105
C35   C     C_3   0.962001 0.513932 0.579534 -0.185548
C36   C     C_R   0.508960 0.408006 0.753751 -0.173560
C37   C     C_R   0.537633 0.595783 0.243850 -0.185424
C38   C     C_R   0.562544 0.298558 0.870227 -0.199526
C39   C     C_R   0.570031 0.719405 0.120329 -0.182728
C40   C     C_R   0.535297 0.320675 0.782624 0.428987
C41   C     C_R   0.540028 0.688848 0.209364 0.430221
C42   C     C_R   0.562374 0.455072 0.896241 0.063430
C43   C     C_R   0.585615 0.564252 0.097970 0.061475
C44   C     C_R   0.578056 0.365283 0.927529 0.057262
C45   C     C_R   0.587935 0.657493 0.063591 0.070603
C46   C     C_R   0.585424 0.525134 0.950664 0.065168
H1    H     H_    0.034618 0.375282 0.611240 0.140657
H2    H     H_    0.362120 0.868844 0.399755 0.145978
H3    H     H_    0.868565 0.350091 0.467457 0.144637
H4    H     H_    0.131284 0.649807 0.532759 0.145992
H5    H     H_    0.073312 0.474399 0.356188 0.132749
H6    H     H_    0.926447 0.525448 0.644009 0.134041
H7    H     H_    0.552835 0.464320 0.215249 0.183262
H8    H     H_    0.487616 0.534926 0.791553 0.181256
H9    H     H_    0.577454 0.230165 0.891821 0.182986
H10   H     H_    0.570884 0.790673 0.095105 0.190099
H11   H     H_    0.641869 0.392699 0.137617 0.140635
H12   H     H_    0.965212 0.624591 0.388963 0.141322
H13   H     H_    0.608604 0.644415 0.847691 0.144731
H14   H     H_    0.728771 0.012980 0.672517 0.149498
H15   H     H_    0.264993 0.985388 0.331164 0.150053
H16   H     H_    0.640799 0.247276 0.115072 0.189119
H17   H     H_    0.721675 0.252532 0.019644 0.180605
H18   H     H_    0.701496 0.804516 0.897908 0.187385
H19   H     H_    0.536201 0.783440 0.895252 0.193622
H20   H     H_    0.437513 0.716235 0.301919 0.327129
H21   H     H_    0.593669 0.290088 0.675216 0.326070
H22   H     H_    0.556077 0.231069 0.535690 0.126952
H23   H     H_    0.450725 0.770520 0.459928 0.128990
H24   H     H_    0.291792 0.299667 0.353734 0.135440
H25   H     H_    0.702386 0.698826 0.649893 0.132396
H26   H     H_    0.756670 0.855645 0.692218 0.142903
H27   H     H_    0.235733 0.142381 0.312395 0.149040
H28   H     H_    0.633492 0.129995 0.602748 0.154975
N1    N     N_R   0.574200 0.731700 0.552740 -0.100448
N2    N     N_R   0.425800 0.268300 0.447260 -0.102748
N3    N     N_3   0.631544 0.254931 0.047246 -0.460157
N4    N     N_3   0.614072 0.781044 0.936401 -0.472689
O1    O     O_R   0.462600 0.383110 0.605620 -0.593476
O2    O     O_3   0.538584 0.256439 0.727721 -0.767103
O3    O     O_R   0.537400 0.616890 0.394380 -0.594821
O4    O     O_R   0.510210 0.531900 0.639510 -0.622202
O5    O     O_R   0.489790 0.468100 0.360490 -0.620182
O6    O     O_R   0.662240 0.425610 0.483080 -0.636781
O7    O     O_R   0.337760 0.574390 0.516920 -0.631641
O8    O     O_R   0.709860 0.574400 0.516970 -0.615053
O9    O     O_R   0.290140 0.425600 0.483030 -0.616000
O10   O     O_3   0.509238 0.750918 0.258931 -0.763804
Zn1   Zn    Zn3+2 0.468210 0.400660 0.477370 0.942679
Zn2   Zn    Zn3+2 0.531790 0.599340 0.522630 0.945133

loop_
_geom_bond_atom_site_label_1
_geom_bond_atom_site_label_2
_ccdc_geom_bond_type
C38   C40   A    
C6    C45   A    
C27   C29   S    
C34   C37   A    
C14   C18   A    
H16   N3    S    
C39   C41   A    
C4    C46   A    
C27   C33   S    
C15   C19   A    
C23   C42   A    
C29   H1    S    
C17   O7    A    
C26   H15   S    
C24   C26   A    
H20   O10   S    
C11   C14   A    
C6    N4    S    
C16   O6    A    
C42   C46   A    
C12   C37   S    
C19   C26   A    
N1    Zn2   S    
C28   H4    S    
C38   H9    S    
C20   C24   A    
C28   C35   S    
C22   C25   A    
C31   C33   S    
C25   H14   S    
N2    Zn1   S    
C39   C45   A    
C21   C22   A    
C16   O8    A    
C10   N2    A    
C18   C25   A    
C42   C44   A    
O5    Zn1   S    
C8    C19   A    
C34   C43   A    
C24   H2    S    
C32   C35   S    
C14   C20   A    
C36   C40   A    
C4    C6    A    
O8    Zn2   S    
C7    H26   S    
C1    O4    A    
C2    C46   A    
C12   O5    A    
C38   C44   A    
C39   H10   S    
C13   N2    A    
C2    C43   A    
C7    C18   A    
C40   O2    S    
C43   C45   A    
O3    Zn2   S    
C10   H24   S    
C5    C44   A    
O9    Zn1   S    
C1    O1    A    
C16   C32   S    
O6    Zn1   S    
C22   H28   S    
C5    N3    S    
C3    H11   S    
C23   H8    S    
H17   N3    S    
C7    C9    A    
C41   O10   S    
H19   N4    S    
C30   C33   S    
C27   C32   S    
C17   O9    A    
H18   N4    S    
C28   C31   S    
H21   O2    S    
C9    H25   S    
C3    C5    A    
O7    Zn2   S    
C11   H23   S    
C33   H5    S    
C29   C35   S    
O4    Zn2   S    
C13   C15   A    
C2    C3    A    
C29   C31   S    
C11   N1    A    
C30   C32   S    
C17   C31   S    
C30   H12   S    
C4    H13   S    
C28   C30   S    
C8    H27   S    
C12   O3    A    
C37   C41   A    
O1    Zn1   S    
C15   C21   A    
C20   C21   A    
C34   H7    S    
C8    C10   A    
C23   C36   A    
C35   H6    S    
C9    N1    A    
C27   H3    S    
C1    C36   S    
C13   H22   S    
