data_mof_unit_22305.cif
_audit_creation_date              2012-12-10T19:35:01-0500
_audit_creation_method            fapswitch 2.2
_symmetry_space_group_name_H-M    P1
_symmetry_Int_Tables_number       1
_space_group_crystal_system       triclinic
_cell_length_a                    10.859637
_cell_length_b                    15.751669
_cell_length_c                    17.039486
_cell_angle_alpha                 95.545118
_cell_angle_beta                  89.693183
_cell_angle_gamma                 93.782482
_cell_volume                      2894.76955715

loop_
_atom_site_label
_atom_site_type_symbol
_atom_type_description
_atom_site_fract_x
_atom_site_fract_y
_atom_site_fract_z
_atom_type_partial_charge
C1    C     C_R   0.495080 0.490007 0.348389 0.923184
C2    C     C_R   0.502490 0.483297 0.897416 0.152588
C3    C     C_R   0.498075 0.416752 0.129863 0.339118
C4    C     C_R   0.587022 0.542422 0.866021 0.288345
C5    C     C_R   0.522523 0.420506 0.211477 0.259236
C6    C     C_R   0.584279 0.554004 0.785321 0.241986
C7    C     C_R   0.439395 0.751084 0.462649 0.051718
C8    C     C_R   0.565835 0.248814 0.533735 0.049572
C9    C     C_R   0.443052 0.840558 0.464725 -0.283638
C10   C     C_R   0.562261 0.159325 0.531573 -0.276301
C11   C     C_R   0.526543 0.891393 0.515602 0.382942
C12   C     C_R   0.498048 0.509545 0.651391 0.910365
C13   C     C_R   0.473640 0.108625 0.484382 0.386904
C14   C     C_R   0.603735 0.849380 0.562813 -0.319425
C15   C     C_R   0.391549 0.150735 0.440664 -0.322416
C16   C     C_R   0.261834 0.499170 0.508119 0.797049
C17   C     C_R   0.737959 0.500890 0.491239 0.803708
C18   C     C_R   0.596622 0.759715 0.559107 0.043034
C19   C     C_R   0.398397 0.240378 0.444491 0.026138
C20   C     C_R   0.095671 0.336759 0.490830 -0.163066
C21   C     C_R   0.904913 0.663207 0.500097 -0.151761
C22   C     C_R   0.029306 0.265477 0.453793 -0.169716
C23   C     C_R   0.473104 0.485212 0.262843 -0.337571
C24   C     C_R   0.971869 0.735886 0.534074 -0.179036
C25   C     C_R   0.918842 0.275196 0.416354 -0.150893
C26   C     C_R   0.081690 0.727788 0.573054 -0.145971
C27   C     C_R   0.870133 0.355062 0.421597 -0.128572
C28   C     C_R   0.129826 0.647954 0.571932 -0.158052
C29   C     C_R   0.931334 0.426586 0.464762 0.069744
C30   C     C_R   0.068392 0.574513 0.531300 0.064003
C31   C     C_R   0.052943 0.420129 0.490607 0.075001
C32   C     C_R   0.946934 0.580392 0.504722 0.079128
C33   C     C_R   0.873805 0.504015 0.481480 -0.228321
C34   C     C_R   0.491385 0.510439 0.737231 -0.337237
C35   C     C_R   0.125775 0.496426 0.515880 -0.219887
C36   C     C_3   0.205331 0.469717 0.725713 0.067827
C37   C     C_3   0.086524 0.414645 0.707928 -0.788594
C38   C     C_3   0.214013 0.559418 0.299128 0.060457
C39   C     C_3   0.132318 0.626577 0.337113 -0.770337
C40   C     C_3   0.320496 0.372372 0.879863 -0.755470
C41   C     C_3   0.307565 0.611145 0.118680 -0.762818
C42   C     C_3   0.439245 0.291414 0.058897 0.057012
C43   C     C_3   0.484538 0.216579 0.005854 -0.784796
C44   C     C_3   0.637228 0.664343 0.944178 0.118702
C45   C     C_R   0.394355 0.542452 0.233303 0.349759
C46   C     C_3   0.734840 0.710066 0.999550 -0.778590
C47   C     C_3   0.553962 0.283802 0.240829 0.135613
C48   C     C_3   0.624489 0.236526 0.297759 -0.820351
C49   C     C_3   0.778360 0.569403 0.735304 0.108266
C50   C     C_3   0.879522 0.636167 0.717765 -0.769856
C51   C     C_R   0.399993 0.456825 0.769854 0.350150
C52   C     C_R   0.379930 0.543764 0.151505 0.005818
C53   C     C_R   0.407945 0.439919 0.849124 0.015200
C54   C     C_R   0.434425 0.482497 0.099516 0.124968
Cu1   Cu    Cu3+1 0.493970 0.415220 0.496180 0.945452
Cu2   Cu    Cu3+1 0.506030 0.584780 0.503820 0.955020
H1    H     H_    0.131321 0.783672 0.602470 0.142254
H2    H     H_    0.823787 0.673859 0.467105 0.168030
H3    H     H_    0.064407 0.202698 0.453625 0.136750
H4    H     H_    0.937334 0.798427 0.531167 0.140169
H5    H     H_    0.785416 0.361262 0.390521 0.173298
H6    H     H_    0.214830 0.644339 0.603825 0.146009
H7    H     H_    0.633702 0.287157 0.570311 0.138080
H8    H     H_    0.376074 0.712647 0.423068 0.175978
H9    H     H_    0.218571 0.515973 0.680722 0.125325
H10   H     H_    0.193750 0.506189 0.784581 0.137747
H11   H     H_    0.008927 0.455680 0.700871 0.193701
H12   H     H_    0.869411 0.220392 0.385109 0.137954
H13   H     H_    0.096458 0.372132 0.652963 0.258267
H14   H     H_    0.064842 0.374600 0.756993 0.235891
H15   H     H_    0.221725 0.508741 0.339664 0.138586
H16   H     H_    0.167217 0.530545 0.243798 0.143237
H17   H     H_    0.125563 0.678744 0.298240 0.237940
H18   H     H_    0.038372 0.596986 0.346257 0.209710
H19   H     H_    0.170959 0.653848 0.394889 0.255808
H20   H     H_    0.374430 0.319831 0.896651 0.225975
H21   H     H_    0.266775 0.399742 0.930565 0.222532
H22   H     H_    0.252655 0.343086 0.835248 0.256918
H23   H     H_    0.628157 0.130593 0.566541 0.154613
H24   H     H_    0.367533 0.647965 0.079243 0.222171
H25   H     H_    0.227463 0.579947 0.084395 0.218933
H26   H     H_    0.272329 0.657514 0.165183 0.255603
H27   H     H_    0.366979 0.321349 0.027545 0.156574
H28   H     H_    0.394437 0.266176 0.111537 0.090485
H29   H     H_    0.550569 0.182090 0.038509 0.238848
H30   H     H_    0.405166 0.171624 0.986230 0.196668
H31   H     H_    0.531620 0.239894 0.953269 0.258097
H32   H     H_    0.550121 0.655840 0.978259 0.135789
H33   H     H_    0.621901 0.705413 0.895903 0.162272
H34   H     H_    0.381482 0.869147 0.426657 0.158116
H35   H     H_    0.822698 0.720515 0.967124 0.246991
H36   H     H_    0.703418 0.772945 0.023892 0.192782
H37   H     H_    0.750931 0.671106 0.049037 0.256345
H38   H     H_    0.564652 0.248433 0.182145 0.182357
H39   H     H_    0.454870 0.281564 0.258736 0.108000
H40   H     H_    0.618476 0.268429 0.358233 0.266166
H41   H     H_    0.584448 0.169775 0.297471 0.203293
H42   H     H_    0.722756 0.235274 0.279678 0.239805
H43   H     H_    0.763249 0.523336 0.681919 0.123737
H44   H     H_    0.810847 0.534864 0.784624 0.165327
H45   H     H_    0.669324 0.886026 0.602465 0.145127
H46   H     H_    0.898904 0.681351 0.771077 0.245760
H47   H     H_    0.965200 0.604794 0.700077 0.196841
H48   H     H_    0.849804 0.672386 0.669292 0.257861
H49   H     H_    0.322352 0.114182 0.403617 0.139615
H50   H     H_    0.656654 0.728162 0.595810 0.154398
H51   H     H_    0.334991 0.271962 0.410150 0.130157
H52   H     H_    0.176396 0.323821 0.522978 0.179128
N1    N     N_2   0.422815 0.489408 0.017298 -0.228265
N2    N     N_2   0.515183 0.469397 0.977832 -0.103578
N3    N     N_R   0.515100 0.712130 0.509560 -0.179607
N4    N     N_R   0.484900 0.287870 0.490440 -0.173875
N5    N     N_2   0.536802 0.983251 0.521162 -0.245945
N6    N     N_2   0.463431 0.016772 0.478816 -0.247878
O1    O     O_R   0.494360 0.420530 0.382500 -0.581938
O2    O     O_3   0.332133 0.598181 0.284664 -0.562329
O3    O     O_3   0.540344 0.350461 0.080027 -0.529770
O4    O     O_3   0.678672 0.584746 0.913632 -0.546396
O5    O     O_3   0.606436 0.368370 0.240547 -0.544589
O6    O     O_3   0.669392 0.610951 0.754531 -0.556206
O7    O     O_R   0.505640 0.579470 0.617500 -0.570187
O8    O     O_R   0.504550 0.563720 0.388950 -0.552068
O9    O     O_R   0.495450 0.436280 0.611050 -0.559214
O10   O     O_R   0.314560 0.428400 0.496770 -0.594173
O11   O     O_R   0.685440 0.571600 0.503230 -0.596869
O12   O     O_R   0.324750 0.571590 0.503220 -0.591475
O13   O     O_R   0.675250 0.428410 0.496780 -0.597690
O14   O     O_3   0.305837 0.416731 0.722679 -0.555297

loop_
_geom_bond_atom_site_label_1
_geom_bond_atom_site_label_2
_ccdc_geom_bond_type
Cu1   Cu2   S    
C50   H48   S    
C23   C45   A    
C37   H13   S    
Cu1   N4    S    
C27   C29   A    
C14   C18   A    
C41   H24   S    
C19   N4    A    
C15   C19   A    
C48   H41   S    
C46   H37   S    
C34   C51   A    
C30   C35   A    
C5    O5    S    
C51   O14   S    
C36   C37   S    
C24   C26   A    
C8    N4    A    
C16   C35   S    
C38   C39   S    
C3    C54   A    
C36   H10   S    
C49   O6    S    
C46   H36   S    
C29   C33   A    
C39   H18   S    
C49   C50   S    
C1    O8    A    
C3    O3    S    
C48   H40   S    
Cu1   O10   S    
C12   O7    A    
C52   C54   A    
C22   C25   A    
C39   H19   S    
C27   H5    S    
C41   C52   S    
C13   N6    S    
C47   O5    S    
C50   H47   S    
C37   H14   S    
C4    O4    S    
C36   O14   S    
C25   H12   S    
C17   C33   S    
C6    O6    S    
C44   C46   S    
Cu1   O9    S    
C21   C32   A    
C38   H16   S    
C43   H29   S    
C42   H28   S    
C18   N3    A    
C4    C6    A    
C22   H3    S    
C36   H9    S    
C17   O13   A    
C14   H45   S    
C46   H35   S    
C45   C52   A    
C2    C53   A    
C40   H20   S    
C54   N1    S    
C51   C53   A    
Cu2   O8    S    
C2    C4    A    
C18   H50   S    
C49   H43   S    
C38   O2    S    
C47   C48   S    
C5    C23   A    
C44   O4    S    
C24   H4    S    
C41   H25   S    
Cu2   O11   S    
C9    C11   A    
C20   C22   A    
C1    C23   S    
Cu2   O12   S    
C13   C15   A    
C31   C35   A    
C42   C43   S    
C12   C34   S    
N5    N6    D    
C7    C9    A    
C38   H15   S    
C2    N2    S    
Cu2   N3    S    
C43   H30   S    
C42   H27   S    
Cu1   O13   S    
C3    C5    A    
C10   C13   A    
C9    H34   S    
C10   H23   S    
C42   O3    S    
C50   H46   S    
C25   C27   A    
C48   H42   S    
C26   C28   A    
C43   H31   S    
Cu2   O7    S    
C15   H49   S    
C28   C30   A    
C16   O10   A    
C21   H2    S    
C29   C31   A    
N1    N2    D    
C32   C33   A    
C49   H44   S    
C30   C32   A    
C45   O2    S    
C17   O11   A    
C12   O9    A    
Cu1   O1    S    
C41   H26   S    
C37   H11   S    
C11   C14   A    
C47   H38   S    
C7    N3    A    
C40   H22   S    
C39   H17   S    
C11   N5    S    
C26   H1    S    
C7    H8    S    
C8    H7    S    
C6    C34   A    
C8    C10   A    
C40   C53   S    
C21   C24   A    
C47   H39   S    
C40   H21   S    
C1    O1    A    
C44   H32   S    
C16   O12   A    
C44   H33   S    
C28   H6    S    
C20   H52   S    
C20   C31   A    
C19   H51   S    
