data_mof_unit_6524.cif
_audit_creation_date              2012-12-10T17:02:30-0500
_audit_creation_method            fapswitch 2.2
_symmetry_space_group_name_H-M    P1
_symmetry_Int_Tables_number       1
_space_group_crystal_system       triclinic
_cell_length_a                    10.769846
_cell_length_b                    11.02174
_cell_length_c                    9.910698
_cell_angle_alpha                 111.979187
_cell_angle_beta                  97.984551
_cell_angle_gamma                 92.070451
_cell_volume                      1075.36065726

loop_
_atom_site_label
_atom_site_type_symbol
_atom_type_description
_atom_site_fract_x
_atom_site_fract_y
_atom_site_fract_z
_atom_type_partial_charge
C1    C     C_R   0.486347 0.252977 0.438946 0.703580
C2    C     C_R   0.511636 0.746704 0.561059 0.714578
C3    C     C_2   0.468012 0.110823 0.402484 0.208813
C4    C     C_2   0.522787 0.888461 0.598198 0.208643
C5    C     C_2   0.482262 0.069858 0.515075 -0.172188
C6    C     C_2   0.469777 0.931732 0.495852 -0.195113
C7    C     C_2   0.511962 0.510713 0.081258 0.020238
C8    C     C_2   0.487989 0.489393 0.918825 0.024532
C9    C     C_R   0.263203 0.499521 0.501039 0.778318
C10   C     C_R   0.736800 0.500097 0.498840 0.785970
C11   C     C_R   0.156776 0.739477 0.645529 -0.120347
C12   C     C_R   0.843338 0.259954 0.354338 -0.112713
C13   C     C_R   0.105057 0.856901 0.713110 -0.127250
C14   C     C_R   0.895101 0.142532 0.286677 -0.076391
C15   C     C_R   0.975633 0.857504 0.709051 -0.085471
C16   C     C_R   0.024523 0.142000 0.290306 -0.127541
C17   C     C_R   0.897442 0.740667 0.637567 -0.101225
C18   C     C_R   0.102659 0.258898 0.361442 -0.135893
C19   C     C_R   0.948096 0.619734 0.569712 0.050070
C20   C     C_R   0.051977 0.379770 0.429762 0.074199
C21   C     C_R   0.079222 0.619186 0.573417 0.064928
C22   C     C_R   0.920846 0.380279 0.426302 0.058061
C23   C     C_R   0.870426 0.500227 0.496667 -0.159626
C24   C     C_R   0.129616 0.499268 0.503063 -0.154180
Cu1   Cu    Cu3+1 0.521920 0.521810 0.644910 1.004018
Cu2   Cu    Cu3+1 0.478080 0.478190 0.355090 0.999115
H1    H     H_    0.064655 0.050594 0.238398 0.182772
H2    H     H_    0.935632 0.948946 0.760948 0.205092
H3    H     H_    0.257789 0.744458 0.650256 0.139310
H4    H     H_    0.742334 0.254955 0.349842 0.151828
H5    H     H_    0.165647 0.947837 0.768142 0.165966
H6    H     H_    0.834536 0.051555 0.231866 0.182627
H7    H     H_    0.797221 0.746474 0.635294 0.167046
H8    H     H_    0.202852 0.253103 0.362958 0.131888
H9    H     H_    0.416819 0.861584 0.393377 0.221671
H10   H     H_    0.506678 0.141630 0.626879 0.222333
H11   H     H_    0.626543 0.623202 0.931534 0.213455
H12   H     H_    0.373590 0.376643 0.068433 0.207480
N1    N     N_2   0.445130 0.445420 0.137360 -0.292320
N2    N     N_2   0.554870 0.554580 0.862640 -0.294378
O1    O     O_R   0.511700 0.332340 0.577400 -0.589582
O2    O     O_R   0.488300 0.667660 0.422600 -0.588953
O3    O     O_R   0.474680 0.295500 0.332650 -0.530192
O4    O     O_R   0.525320 0.704500 0.667350 -0.539730
O5    O     O_R   0.338170 0.518410 0.622370 -0.568595
O6    O     O_R   0.661830 0.481590 0.377630 -0.568480
O7    O     O_R   0.301150 0.481570 0.377630 -0.574020
O8    O     O_R   0.698850 0.518430 0.622370 -0.558078
S1    S     S_3+6 0.613240 0.995285 0.769513 0.008535
O9    O     O_2   0.716749 0.072417 0.740035 -0.285955
O10   O     O_2   0.530109 0.089972 0.857926 -0.270213
O11   O     O_3   0.678771 0.911733 0.868236 -0.522555
H13   H     H_    0.615535 0.903803 0.928836 0.404255
S2    S     S_3+6 0.425810 0.999204 0.215140 -0.008590
O12   O     O_2   0.522681 0.902220 0.178760 -0.288808
O13   O     O_2   0.300033 0.925403 0.195242 -0.332906
O14   O     O_3   0.417125 0.076242 0.096750 -0.458765
H14   H     H_    0.330741 0.104104 0.091367 0.347277
C25   C     C_1   0.386697 0.393057 0.823725 0.373022
N3    N     N_1   0.305238 0.315600 0.748721 -0.304061
C26   C     C_1   0.613032 0.607242 0.176556 0.399321
N4    N     N_1   0.694255 0.684871 0.251852 -0.274825

loop_
_geom_bond_atom_site_label_1
_geom_bond_atom_site_label_2
_ccdc_geom_bond_type
C10   O6    A    
C19   C23   A    
C9    C24   S    
C9    O5    A    
C19   C21   A    
Cu1   O5    S    
C10   C23   S    
C11   C13   A    
C2    C4    S    
C11   C21   A    
C20   C22   A    
C4    S1    S    
S1    O11   S    
C16   H1    S    
O14   H14   S    
C25   N3    T    
C8    C25   S    
O11   H13   S    
C18   H8    S    
Cu1   O8    S    
C11   H3    S    
C15   H2    S    
C26   N4    T    
C17   H7    S    
Cu2   O7    S    
C2    O2    A    
Cu1   O4    S    
C1    O1    A    
C17   C19   A    
C12   C14   A    
Cu2   O3    S    
C9    O7    A    
H11   N2    S    
C18   C20   A    
C13   C15   A    
Cu1   N2    S    
C10   O8    A    
C5    C6    S    
C3    S2    S    
C14   C16   A    
Cu2   N1    S    
C4    C6    D    
Cu2   O6    S    
Cu1   O1    S    
C5    H10   S    
C12   C22   A    
C7    C8    S    
H12   N1    S    
C6    H9    S    
Cu2   O2    S    
C16   C18   A    
S1    O9    D    
C21   C24   A    
C14   H6    S    
C1    C3    S    
C15   C17   A    
S1    O10   D    
C13   H5    S    
C22   C23   A    
C7    C26   S    
C7    N1    D    
C8    N2    D    
C12   H4    S    
Cu1   Cu2   S    
S2    O12   D    
C1    O3    A    
C20   C24   A    
C2    O4    A    
S2    O13   D    
C3    C5    D    
S2    O14   S    
