data_mof_unit_18033.cif
_audit_creation_date              2012-12-10T18:33:32-0500
_audit_creation_method            fapswitch 2.2
_symmetry_space_group_name_H-M    P1
_symmetry_Int_Tables_number       1
_space_group_crystal_system       triclinic
_cell_length_a                    8.72394
_cell_length_b                    15.116098
_cell_length_c                    14.045663
_cell_angle_alpha                 92.920191
_cell_angle_beta                  97.473485
_cell_angle_gamma                 93.383362
_cell_volume                      1830.07511689

loop_
_atom_site_label
_atom_site_type_symbol
_atom_type_description
_atom_site_fract_x
_atom_site_fract_y
_atom_site_fract_z
_atom_type_partial_charge
C1    C     C_R   0.507988 0.330293 0.498181 0.774606
C2    C     C_R   0.496873 0.670524 0.503075 0.778520
C3    C     C_R   0.569918 0.574676 0.116978 0.020793
C4    C     C_R   0.436756 0.423043 0.881159 0.030218
C5    C     C_R   0.587454 0.565088 0.218835 0.324248
C6    C     C_R   0.406448 0.439120 0.781518 0.339597
C7    C     C_R   0.397751 0.444396 0.195750 0.255879
C8    C     C_R   0.610599 0.551565 0.803309 0.242800
C9    C     C_R   0.401787 0.443675 0.095757 -0.352513
C10   C     C_R   0.612837 0.549581 0.903536 -0.341495
C11   C     C_R   0.501238 0.501805 0.054196 0.035566
C12   C     C_R   0.513644 0.492069 0.945511 0.039633
C13   C     C_R   0.204269 0.500839 0.475437 0.890719
C14   C     C_R   0.795686 0.501677 0.524464 0.871751
C15   C     C_2   0.038454 0.502373 0.461691 -0.394217
C16   C     C_2   0.961352 0.504811 0.537454 -0.382956
C17   C     C_R   0.454146 0.095197 0.560760 -0.231898
C18   C     C_R   0.490379 0.903650 0.425549 -0.225868
C19   C     C_R   0.443827 0.185591 0.557083 -0.231999
C20   C     C_R   0.475470 0.812054 0.425196 -0.233455
C21   C     C_R   0.525091 0.233869 0.495356 -0.070785
C22   C     C_R   0.498723 0.768823 0.511379 -0.086504
C23   C     C_R   0.624100 0.189813 0.437430 0.057103
C24   C     C_R   0.532448 0.821542 0.600764 0.087226
C25   C     C_R   0.646837 0.098233 0.449310 0.104938
C26   C     C_R   0.581655 0.912369 0.597281 0.103549
C27   C     C_R   0.553763 0.051015 0.507484 0.048338
C28   C     C_R   0.548178 0.953938 0.510078 0.049759
Cu1   Cu    Cu3+1 0.500000 0.499990 0.596430 0.909386
Cu2   Cu    Cu3+1 0.500000 0.500010 0.403570 0.908365
H1    H     H_    0.979165 0.500724 0.388622 0.187140
H2    H     H_    0.019982 0.509571 0.610096 0.177741
H3    H     H_    0.383116 0.058990 0.605557 0.149143
H4    H     H_    0.462262 0.935578 0.358694 0.144809
H5    H     H_    0.366115 0.217457 0.600066 0.143340
H6    H     H_    0.441579 0.775025 0.356883 0.163471
H7    H     H_    0.317718 0.399921 0.050261 0.154685
H8    H     H_    0.699228 0.591077 0.948487 0.182075
N1    N     N_R   0.500000 0.500020 0.258690 -0.195027
N2    N     N_R   0.500000 0.499980 0.741310 -0.195565
O1    O     O_R   0.500010 0.371450 0.581430 -0.582854
O2    O     O_R   0.499990 0.628550 0.418570 -0.580444
O3    O     O_R   0.500010 0.371460 0.418560 -0.606339
O4    O     O_R   0.499990 0.628540 0.581440 -0.618062
O5    O     O_R   0.274840 0.499990 0.562640 -0.571407
O6    O     O_R   0.725160 0.500010 0.437360 -0.591786
O7    O     O_R   0.274840 0.500000 0.399770 -0.593668
O8    O     O_R   0.725160 0.500000 0.600230 -0.591669
C29   C     C_3   0.683255 0.233703 0.352803 -0.406005
C30   C     C_3   0.563095 0.211817 0.263543 -0.317148
C31   C     C_3   0.612870 0.250031 0.173502 -0.878592
H9    H     H_    0.630510 0.323270 0.183042 0.267678
H10   H     H_    0.720896 0.221252 0.156469 0.252244
H11   H     H_    0.520218 0.232590 0.112498 0.236122
H12   H     H_    0.543449 0.138645 0.250218 0.205156
H13   H     H_    0.451122 0.237796 0.276632 0.219300
H14   H     H_    0.708460 0.306090 0.366514 0.225530
H15   H     H_    0.796286 0.210470 0.338366 0.196578
C32   C     C_3   0.498627 0.790256 0.698605 -0.431472
C33   C     C_3   0.354393 0.831699 0.729183 -0.342112
C34   C     C_3   0.340210 0.816516 0.834467 -0.884069
H16   H     H_    0.438167 0.852742 0.881850 0.256524
H17   H     H_    0.230329 0.841603 0.853232 0.242257
H18   H     H_    0.340644 0.744659 0.847497 0.258341
H19   H     H_    0.358262 0.904257 0.719702 0.214667
H20   H     H_    0.249339 0.800978 0.683281 0.225348
H21   H     H_    0.476046 0.718844 0.702981 0.235078
H22   H     H_    0.600117 0.807514 0.753769 0.192624
C35   C     C_3   0.771967 0.051949 0.402828 -0.435298
C36   C     C_3   0.934359 0.082037 0.454301 -0.347674
C37   C     C_3   0.059749 0.042293 0.402399 -0.858316
H23   H     H_    0.048402 0.968649 0.401304 0.254927
H24   H     H_    0.050877 0.063536 0.327432 0.249909
H25   H     H_    0.175557 0.065644 0.440274 0.256488
H26   H     H_    0.953425 0.155459 0.458544 0.213716
H27   H     H_    0.946120 0.060303 0.529150 0.218925
H28   H     H_    0.759787 0.978898 0.405791 0.208208
H29   H     H_    0.762000 0.063469 0.324955 0.196904
C38   C     C_3   0.676423 0.963159 0.684481 -0.436641
C39   C     C_3   0.840232 0.929939 0.701826 -0.345025
C40   C     C_3   0.936246 0.979492 0.789010 -0.871963
H30   H     H_    0.944495 0.051959 0.778951 0.253812
H31   H     H_    0.882857 0.967100 0.855125 0.256257
H32   H     H_    0.055065 0.955957 0.797990 0.241714
H33   H     H_    0.835535 0.857785 0.713559 0.215562
H34   H     H_    0.899339 0.940327 0.637416 0.217471
H35   H     H_    0.690084 0.035276 0.674386 0.210406
H36   H     H_    0.618113 0.957710 0.749718 0.204567
C41   C     C_3   0.570050 0.669251 0.081503 -0.393371
C42   C     C_3   0.731331 0.718628 0.084379 -0.350910
C43   C     C_3   0.726895 0.792165 0.013621 -0.878223
H37   H     H_    0.684899 0.764971 0.939550 0.251307
H38   H     H_    0.648572 0.843174 0.034007 0.252628
H39   H     H_    0.844983 0.824310 0.014849 0.243485
H40   H     H_    0.769880 0.751576 0.156456 0.219347
H41   H     H_    0.820736 0.672469 0.069419 0.210264
H42   H     H_    0.503663 0.668964 0.008481 0.209607
H43   H     H_    0.500645 0.709602 0.126209 0.180718
C44   C     C_3   0.428274 0.327184 0.910650 -0.447669
C45   C     C_3   0.507587 0.264680 0.845025 -0.311008
C46   C     C_3   0.509834 0.170909 0.880490 -0.881127
H44   H     H_    0.579354 0.171266 0.952584 0.255763
H45   H     H_    0.389997 0.143495 0.884438 0.254937
H46   H     H_    0.563014 0.127214 0.829730 0.243180
H47   H     H_    0.445710 0.260327 0.770702 0.229872
H48   H     H_    0.628810 0.290908 0.842812 0.222198
H49   H     H_    0.491972 0.323360 0.983623 0.219316
H50   H     H_    0.305936 0.302723 0.911534 0.188529
C47   C     C_3   0.700340 0.631760 0.279305 -0.794565
H51   H     H_    0.729833 0.618959 0.354397 0.271811
H52   H     H_    0.813095 0.632998 0.250642 0.181801
H53   H     H_    0.653955 0.698469 0.278604 0.202335
C48   C     C_3   0.261248 0.394784 0.725049 -0.824024
H54   H     H_    0.178858 0.446205 0.709955 0.221538
H55   H     H_    0.281211 0.359143 0.658068 0.250238
H56   H     H_    0.201773 0.346254 0.766672 0.189514
C49   C     C_3   0.271863 0.383750 0.226812 -0.357702
C50   C     C_3   0.112326 0.420898 0.202407 -0.357655
C51   C     C_3   0.986058 0.362163 0.237832 -0.878154
H57   H     H_    0.014028 0.352491 0.315853 0.250896
H58   H     H_    0.973940 0.296345 0.197842 0.253891
H59   H     H_    0.874830 0.394434 0.225871 0.252509
H60   H     H_    0.112541 0.489155 0.235666 0.235173
H61   H     H_    0.084077 0.424673 0.123298 0.208550
H62   H     H_    0.270434 0.317644 0.188061 0.158454
H63   H     H_    0.291334 0.371329 0.303239 0.246435
C52   C     C_3   0.732059 0.615035 0.771015 -0.370507
C53   C     C_3   0.896464 0.584007 0.795996 -0.353402
C54   C     C_3   0.017230 0.649169 0.763812 -0.876981
H64   H     H_    0.991883 0.658288 0.685522 0.252239
H65   H     H_    0.017569 0.714576 0.803643 0.260336
H66   H     H_    0.133904 0.623257 0.778761 0.250049
H67   H     H_    0.924215 0.578835 0.874895 0.209598
H68   H     H_    0.904793 0.517242 0.761059 0.231647
H69   H     H_    0.711529 0.627155 0.694640 0.245859
H70   H     H_    0.726922 0.680920 0.808252 0.152386

loop_
_geom_bond_atom_site_label_1
_geom_bond_atom_site_label_2
_ccdc_geom_bond_type
C1    C21   S    
C46   H44   S    
C7    C49   S    
C35   H28   S    
C53   C54   S    
C38   H35   S    
C40   H30   S    
C42   H40   S    
C14   O6    A    
C44   H50   S    
C45   H47   S    
Cu1   Cu2   S    
C19   C21   A    
C24   C26   A    
C54   H64   S    
C47   H52   S    
C23   C29   S    
C15   C16   D    
C29   H14   S    
C34   H17   S    
C50   C51   S    
C39   H34   S    
C32   H21   S    
C1    O3    A    
C2    O4    A    
C2    C22   S    
C16   H2    S    
C36   C37   S    
C4    C12   A    
C49   H63   S    
C18   C20   A    
C48   H56   S    
C33   H20   S    
C32   C33   S    
C46   H45   S    
C35   H29   S    
C35   C36   S    
C17   H3    S    
C38   H36   S    
C40   H31   S    
C51   H58   S    
C21   C23   A    
Cu1   O8    S    
C31   H9    S    
C17   C27   A    
Cu2   O7    S    
C6    N2    A    
C18   C28   A    
C52   H70   S    
C4    C6    A    
C47   H53   S    
C43   H37   S    
C13   O7    A    
C14   O8    A    
C30   H13   S    
C29   H15   S    
C41   H42   S    
C33   C34   S    
C31   H10   S    
C34   H18   S    
C6    C48   S    
C53   H67   S    
C39   H33   S    
C53   H68   S    
C32   H22   S    
C43   H38   S    
C18   H4    S    
C8    C52   S    
C44   C45   S    
C11   C12   S    
C9    H7    S    
C30   C31   S    
C50   H61   S    
C15   H1    S    
C9    C11   A    
C10   C12   A    
C1    O1    A    
C20   C22   A    
C33   H19   S    
C46   H46   S    
C13   C15   S    
Cu1   O4    S    
C36   H27   S    
C14   C16   S    
Cu2   O3    S    
C25   C35   S    
C52   C53   S    
C36   H26   S    
C40   H32   S    
C37   H24   S    
C48   H54   S    
C51   H59   S    
C7    C9    A    
Cu1   O1    S    
C45   H48   S    
Cu2   O6    S    
C30   H12   S    
C52   H69   S    
C39   C40   S    
C3    C5    A    
C37   H25   S    
C51   H57   S    
C42   H41   S    
C25   C27   A    
C44   H49   S    
C26   C28   A    
C26   C38   S    
C3    C41   S    
C41   H43   S    
C10   H8    S    
C31   H11   S    
C54   H66   S    
C5    N1    A    
C37   H23   S    
C19   H5    S    
C49   C50   S    
C43   H39   S    
C13   O5    A    
C42   C43   S    
C5    C47   S    
C2    O2    A    
C24   C32   S    
Cu1   N2    S    
C45   C46   S    
C17   C19   A    
Cu2   N1    S    
C22   C24   A    
C50   H60   S    
C23   C25   A    
C34   H16   S    
C3    C11   A    
C38   C39   S    
C20   H6    S    
C8    C10   A    
C29   C30   S    
C4    C44   S    
Cu1   O5    S    
C27   C28   S    
C7    N1    A    
Cu2   O2    S    
C8    N2    A    
C48   H55   S    
C41   C42   S    
C47   H51   S    
C49   H62   S    
C54   H65   S    
