data_mof_unit_38238.cif
_audit_creation_date              2012-10-26T21:00:19-0400
_audit_creation_method            fapswitch 2.2
_symmetry_space_group_name_H-M    P1
_symmetry_Int_Tables_number       1
_space_group_crystal_system       triclinic
_cell_length_a                    19.278394
_cell_length_b                    8.682776
_cell_length_c                    7.486243
_cell_angle_alpha                 102.887497
_cell_angle_beta                  95.435825
_cell_angle_gamma                 92.316451
_cell_volume                      1213.61408811

loop_
_atom_site_label
_atom_site_type_symbol
_atom_type_description
_atom_site_fract_x
_atom_site_fract_y
_atom_site_fract_z
_atom_type_partial_charge
C1    C     C_R   0.497910 0.199837 0.453342 0.551602
C2    C     C_R   0.813063 0.495942 0.345600 -0.136963
C3    C     C_R   0.144906 0.485558 0.487171 0.050569
C4    C     C_R   0.855094 0.514455 0.512830 0.050568
C5    C     C_R   0.175875 0.466624 0.320612 0.018712
C6    C     C_R   0.824125 0.533370 0.679386 0.018712
C7    C     C_R   0.248913 0.475839 0.328592 -0.108969
C8    C     C_R   0.751087 0.524149 0.671405 -0.108966
C9    C     C_R   0.290925 0.494884 0.497082 -0.002286
C10   C     C_R   0.709075 0.505118 0.502918 -0.002285
C11   C     C_R   0.930505 0.507625 0.507209 0.327408
C12   C     C_R   0.502090 0.800163 0.546657 0.551602
C13   C     C_R   0.069495 0.492390 0.492793 0.327409
C14   C     C_3   0.133297 0.437717 0.133933 -0.274747
C15   C     C_3   0.148828 0.281749 0.007031 -0.438418
C16   C     C_3   0.866703 0.562271 0.866064 -0.274755
C17   C     C_3   0.851166 0.718226 0.992980 -0.438435
C18   C     C_2   0.496914 0.031899 0.427178 -0.154780
C19   C     C_2   0.503086 0.968101 0.572822 -0.154780
C20   C     C_R   0.367373 0.498992 0.500065 0.544529
C21   C     C_R   0.632627 0.501008 0.499935 0.544530
C22   C     C_R   0.259290 0.507696 0.659953 -0.144014
C23   C     C_R   0.740710 0.492328 0.340051 -0.144015
C24   C     C_R   0.186937 0.504088 0.654404 -0.136959
Cu1   Cu    Cu3+1 0.507710 0.517380 0.684380 0.951947
Cu2   Cu    Cu3+1 0.492290 0.482620 0.315620 0.951948
H1    H     H_    0.290306 0.522507 0.791775 0.130280
H2    H     H_    0.555086 0.621606 0.051508 0.236449
H3    H     H_    0.203229 0.285658 0.970494 0.143256
H4    H     H_    0.140573 0.181932 0.074804 0.170101
H5    H     H_    0.113063 0.260094 0.877435 0.172294
H6    H     H_    0.076379 0.432233 0.143647 0.181680
H7    H     H_    0.145069 0.538429 0.071080 0.140743
H8    H     H_    0.859405 0.818047 0.925207 0.170105
H9    H     H_    0.796769 0.714292 0.029539 0.143251
H10   H     H_    0.886938 0.739891 0.122562 0.172295
H11   H     H_    0.854937 0.461550 0.928907 0.140750
H12   H     H_    0.709695 0.477531 0.208231 0.130277
H13   H     H_    0.923619 0.567771 0.856345 0.181684
H14   H     H_    0.163383 0.519704 0.781427 0.118057
H15   H     H_    0.836618 0.480344 0.218578 0.118063
H16   H     H_    0.272952 0.466909 0.201965 0.130254
H17   H     H_    0.727047 0.533065 0.798029 0.130256
H18   H     H_    0.491100 0.960401 0.286814 0.134912
H19   H     H_    0.508900 0.039598 0.713186 0.134912
H20   H     H_    0.444914 0.378394 0.948492 0.236449
N1    N     N_R   0.034281 0.600590 0.420884 -0.236552
N2    N     N_R   0.965719 0.399425 0.579117 -0.236553
N3    N     N_R   0.965750 0.607455 0.426939 -0.237690
N4    N     N_R   0.034250 0.392560 0.573062 -0.237688
N5    N     N_2   0.480680 0.456420 0.038530 -0.258733
N6    N     N_2   0.519320 0.543580 0.961470 -0.258733
O1    O     O_R   0.505010 0.286130 0.619770 -0.502493
O2    O     O_R   0.494990 0.713870 0.380230 -0.502493
O3    O     O_R   0.491990 0.256780 0.308370 -0.495628
O4    O     O_R   0.508010 0.743220 0.691630 -0.495628
O5    O     O_R   0.406650 0.514660 0.655750 -0.504890
O6    O     O_R   0.593350 0.485340 0.344250 -0.504890
O7    O     O_R   0.393640 0.485310 0.344340 -0.506629
O8    O     O_R   0.606360 0.514690 0.655660 -0.506630

loop_
_geom_bond_atom_site_label_1
_geom_bond_atom_site_label_2
_ccdc_geom_bond_type
C2    C4    A    
C8    H17   S    
C15   H5    S    
C11   N3    A    
C17   H10   S    
C18   H18   S    
C10   C23   A    
C23   H12   S    
C17   H9    S    
Cu2   O7    S    
C9    C20   S    
C3    C13   S    
Cu1   O4    S    
C16   H11   S    
Cu2   O3    S    
C14   H7    S    
N2    N4    A    
C1    O3    A    
Cu1   N6    S    
C21   O6    A    
N1    N3    A    
Cu2   N5    S    
C4    C11   S    
C11   N2    A    
H2    N6    S    
C5    C14   S    
C12   O4    A    
Cu1   O5    S    
C15   H4    S    
C6    C8    A    
Cu2   O2    S    
C12   C19   S    
C4    C6    A    
C13   N1    A    
C24   H14   S    
C3    C24   A    
Cu1   O1    S    
C15   H3    S    
C5    C7    A    
C22   H1    S    
C10   C21   S    
C22   C24   A    
C9    C22   A    
C17   H8    S    
C2    H15   S    
C6    C16   S    
C13   N4    A    
C21   O8    A    
C8    C10   A    
C18   C19   D    
C7    H16   S    
C2    C23   A    
C7    C9    A    
C1    C18   S    
C14   C15   S    
C1    O1    A    
C16   H13   S    
C3    C5    A    
Cu1   Cu2   S    
C20   O5    A    
H20   N5    S    
Cu2   O6    S    
Cu1   O8    S    
C12   O2    A    
C19   H19   S    
N5    N6    D    
C14   H6    S    
C16   C17   S    
C20   O7    A    
