data_mof_unit_19608.cif
_audit_creation_date              2012-12-11T15:39:32-0500
_audit_creation_method            fapswitch 2.2
_symmetry_space_group_name_H-M    P1
_symmetry_Int_Tables_number       1
_space_group_crystal_system       triclinic
_cell_length_a                    17.313669
_cell_length_b                    24.305091
_cell_length_c                    14.910792
_cell_angle_alpha                 89.926062
_cell_angle_beta                  125.324841
_cell_angle_gamma                 90.16407
_cell_volume                      5119.3550631

loop_
_atom_site_label
_atom_site_type_symbol
_atom_type_description
_atom_site_fract_x
_atom_site_fract_y
_atom_site_fract_z
_atom_type_partial_charge
C1    C     C_R   0.309749 0.376124 0.908573 -0.121071
C2    C     C_R   0.541726 0.501236 0.715046 0.028907
C3    C     C_R   0.120486 0.816704 0.000321 0.013575
C4    C     C_R   0.064349 0.000423 0.367267 0.036975
C5    C     C_R   0.050965 0.000271 0.725519 0.032358
C6    C     C_R   0.199260 0.501423 0.631509 -0.074152
C7    C     C_R   0.826730 0.502542 0.288258 -0.082797
C8    C     C_R   0.673180 0.001428 0.708038 -0.098824
C9    C     C_R   0.299739 0.000486 0.368476 -0.104721
C10   C     C_R   0.070617 0.554957 0.475806 0.155083
C11   C     C_R   0.976161 0.555179 0.390331 0.153920
C12   C     C_R   0.524804 0.052595 0.603144 0.145067
C13   C     C_R   0.680315 0.364986 0.091210 -0.155741
C14   C     C_R   0.428547 0.052492 0.520618 0.145191
C15   C     C_R   0.119259 0.505012 0.516521 0.061253
C16   C     C_R   0.928449 0.505514 0.344366 0.069266
C17   C     C_R   0.571474 0.002933 0.649123 0.071474
C18   C     C_R   0.379165 0.002750 0.483383 0.065000
C19   C     C_R   0.078301 0.457751 0.450506 -0.178809
C20   C     C_R   0.982140 0.458018 0.363879 -0.175788
C21   C     C_R   0.519125 0.954402 0.625594 -0.164129
C22   C     C_R   0.422798 0.954310 0.542837 -0.170538
C23   C     C_3   0.954919 0.601637 0.438676 -0.502812
C24   C     C_R   0.815038 0.869520 0.910555 -0.161706
C25   C     C_3   0.058326 0.601420 0.532723 -0.512207
C26   C     C_3   0.410897 0.097732 0.574419 -0.494778
C27   C     C_3   0.515535 0.098146 0.663510 -0.489828
C28   C     C_R   0.159351 0.686696 0.900881 -0.169556
C29   C     C_R   0.710611 0.766781 0.102660 -0.167263
C30   C     C_R   0.791405 0.265998 0.900413 -0.166715
C31   C     C_R   0.211467 0.267550 0.101107 -0.168108
C32   C     C_R   0.734199 0.305404 0.900189 -0.164106
C33   C     C_R   0.258295 0.313783 0.101052 -0.157715
C34   C     C_R   0.112658 0.732809 0.900856 -0.160702
C35   C     C_R   0.150324 0.848718 0.091660 -0.097477
C36   C     C_R   0.762169 0.810384 0.103254 -0.161030
C37   C     C_R   0.749167 0.320381 0.999753 0.150488
C38   C     C_R   0.238740 0.333387 0.001450 0.140645
C39   C     C_R   0.145231 0.759263 0.000394 0.142740
C40   C     C_R   0.743308 0.829206 0.003667 0.146419
C41   C     C_R   0.402093 0.624261 0.092147 -0.120892
C42   C     C_R   0.555898 0.652516 0.909276 -0.136011
C43   C     C_R   0.944741 0.152024 0.091736 -0.119582
C44   C     C_R   0.057730 0.152043 0.909328 -0.139324
C45   C     C_R   0.833734 0.305789 0.099426 -0.174576
C46   C     C_R   0.312242 0.637268 0.000182 0.036327
C47   C     C_R   0.157935 0.314431 0.902156 -0.159664
C48   C     C_R   0.211971 0.732929 0.099930 -0.165386
C49   C     C_R   0.659628 0.812986 0.904306 -0.172467
C50   C     C_R   0.258674 0.686839 0.099851 -0.161502
C51   C     C_R   0.608410 0.769030 0.903613 -0.164172
C52   C     C_R   0.890803 0.266294 0.099575 -0.163492
C53   C     C_R   0.111056 0.268199 0.902110 -0.161783
C54   C     C_R   0.239462 0.667466 0.000330 0.139833
C55   C     C_R   0.640595 0.742060 0.002462 0.138208
C56   C     C_R   0.862083 0.241451 0.000139 0.137905
C57   C     C_R   0.615921 0.684562 0.000941 0.049144
C58   C     C_R   0.144288 0.241343 0.001482 0.135286
C59   C     C_R   0.599059 0.551543 0.620048 -0.163884
C60   C     C_R   0.606929 0.551279 0.533060 -0.169434
C61   C     C_R   0.105712 0.050357 0.627049 -0.161258
C62   C     C_R   0.107025 0.050409 0.535101 -0.173920
C63   C     C_R   0.602015 0.501155 0.483540 0.141709
C64   C     C_R   0.586684 0.501683 0.657407 0.144484
C65   C     C_R   0.098030 0.000574 0.482556 0.142095
C66   C     C_R   0.094424 0.000502 0.665703 0.141713
C67   C     C_R   0.611447 0.451637 0.537196 -0.160853
C68   C     C_R   0.886474 0.184421 0.000379 0.045115
C69   C     C_R   0.604304 0.451946 0.624865 -0.167712
C70   C     C_R   0.107746 0.950790 0.535788 -0.161532
C71   C     C_R   0.106495 0.950784 0.627752 -0.166707
C72   C     C_R   0.551134 0.454565 0.304878 -0.128743
C73   C     C_R   0.508855 0.455086 0.738194 -0.104976
C74   C     C_R   0.049234 0.954561 0.304092 -0.129803
C75   C     C_R   0.019871 0.954090 0.751428 -0.107636
C76   C     C_R   0.248003 0.546252 0.696287 -0.281739
C77   C     C_R   0.767461 0.547326 0.251107 -0.257074
C78   C     C_R   0.731618 0.046931 0.744500 -0.235399
C79   C     C_R   0.120154 0.183623 0.001022 0.042024
C80   C     C_R   0.253777 0.046010 0.303549 -0.246654
C81   C     C_R   0.550853 0.545906 0.304110 -0.137116
C82   C     C_R   0.516053 0.546825 0.747614 -0.124932
C83   C     C_R   0.047257 0.046043 0.302703 -0.117827
C84   C     C_R   0.019855 0.046203 0.751515 -0.118157
C85   C     C_R   0.245487 0.455189 0.694767 0.683660
C86   C     C_R   0.771501 0.456005 0.265541 0.685948
C87   C     C_R   0.729093 0.955392 0.731977 0.683173
C88   C     C_R   0.253787 0.954589 0.304088 0.710251
C89   C     C_R   0.310084 0.624217 0.907987 -0.118997
C90   C     C_R   0.568634 0.500457 0.368740 0.047704
C91   C     C_R   0.646668 0.652263 0.091721 -0.132317
C92   C     C_R   0.854416 0.152376 0.908871 -0.131038
C93   C     C_R   0.150383 0.151346 0.092167 -0.110679
C94   C     C_R   0.401994 0.376042 0.092541 -0.111285
C95   C     C_R   0.588464 0.364417 0.908365 -0.106017
C96   C     C_R   0.904498 0.873902 0.093737 -0.106489
C97   C     C_R   0.057790 0.848182 0.908858 -0.129760
C98   C     C_R   0.311867 0.363275 0.000891 0.014092
C99   C     C_R   0.675400 0.348395 0.999692 0.017623
C100  C     C_R   0.816764 0.857931 0.002763 0.019164
F1    F     F_    0.236232 0.403247 0.656866 -0.747029
F2    F     F_    0.804151 0.407365 0.319002 -0.745574
F3    F     F_    0.698668 0.906933 0.676992 -0.741747
F4    F     F_    0.262634 0.902088 0.339191 -0.758533
H1    H     H_    0.251447 0.371257 0.823569 0.156804
H2    H     H_    0.095984 0.639382 0.536225 0.188423
H3    H     H_    0.367381 0.084264 0.603462 0.204083
H4    H     H_    0.551323 0.136435 0.664584 0.187434
H5    H     H_    0.138309 0.670242 0.822453 0.109687
H6    H     H_    0.733367 0.749277 0.180940 0.108555
H7    H     H_    0.772261 0.250674 0.822023 0.107042
H8    H     H_    0.234876 0.249937 0.179539 0.107808
H9    H     H_    0.674256 0.320061 0.821798 0.103354
H10   H     H_    0.316043 0.329948 0.179420 0.109062
H11   H     H_    0.057450 0.750064 0.822346 0.110258
H12   H     H_    0.730989 0.352029 0.174137 0.188139
H13   H     H_    0.822266 0.824837 0.181793 0.109062
H14   H     H_    0.852180 0.320777 0.177751 0.130597
H15   H     H_    0.136565 0.331133 0.823767 0.123333
H16   H     H_    0.234961 0.750251 0.178418 0.120308
H17   H     H_    0.638568 0.830109 0.826276 0.123532
H18   H     H_    0.315926 0.670490 0.178231 0.112205
H19   H     H_    0.550347 0.753231 0.825027 0.112282
H20   H     H_    0.949962 0.251150 0.177999 0.112255
H21   H     H_    0.055301 0.251111 0.823618 0.112893
H22   H     H_    0.592810 0.590848 0.649064 0.111939
H23   H     H_    0.762479 0.856277 0.828333 0.184934
H24   H     H_    0.606104 0.590467 0.498280 0.111192
H25   H     H_    0.103446 0.089580 0.659486 0.112517
H26   H     H_    0.105815 0.089675 0.500272 0.111188
H27   H     H_    0.614343 0.412306 0.505552 0.111821
H28   H     H_    0.603237 0.412879 0.658908 0.105463
H29   H     H_    0.107004 0.911500 0.501516 0.112746
H30   H     H_    0.104859 0.911533 0.660751 0.110185
H31   H     H_    0.429461 0.629350 0.177497 0.095519
H32   H     H_    0.509381 0.666414 0.825232 0.087668
H33   H     H_    0.990552 0.165088 0.176456 0.084917
H34   H     H_    0.189486 0.835365 0.176131 0.160075
H35   H     H_    0.010908 0.166148 0.825488 0.088575
H36   H     H_    0.569535 0.412496 0.332632 0.098203
H37   H     H_    0.505986 0.413858 0.710846 0.090931
H38   H     H_    0.068438 0.912614 0.332288 0.111075
H39   H     H_    0.030061 0.911442 0.741141 0.093392
H40   H     H_    0.242782 0.588102 0.668826 0.147425
H41   H     H_    0.785674 0.590005 0.254200 0.149654
H42   H     H_    0.711725 0.089678 0.736011 0.142922
H43   H     H_    0.263585 0.088287 0.330789 0.137984
H44   H     H_    0.569342 0.588133 0.330780 0.089198
H45   H     H_    0.933369 0.639611 0.387977 0.187378
H46   H     H_    0.527511 0.589650 0.739767 0.096586
H47   H     H_    0.063416 0.088471 0.328782 0.086828
H48   H     H_    0.030062 0.088937 0.741426 0.096021
H49   H     H_    0.252253 0.629198 0.822666 0.096686
H50   H     H_    0.683115 0.665774 0.175919 0.086144
H51   H     H_    0.817654 0.165996 0.824710 0.085138
H52   H     H_    0.189644 0.164391 0.176935 0.082604
H53   H     H_    0.429465 0.371133 0.177963 0.093776
H54   H     H_    0.555443 0.350760 0.825272 0.089182
H55   H     H_    0.931991 0.869834 0.179289 0.091968
H56   H     H_    0.070486 0.589215 0.611892 0.205123
H57   H     H_    0.011112 0.834166 0.824893 0.096745
H58   H     H_    0.115732 0.419185 0.472073 0.208935
H59   H     H_    0.948654 0.419833 0.321501 0.175512
H60   H     H_    0.553057 0.915962 0.665606 0.173816
H61   H     H_    0.385759 0.915510 0.520680 0.206236
H62   H     H_    0.385858 0.135909 0.524167 0.186750
H63   H     H_    0.533543 0.085205 0.745107 0.204328
H64   H     H_    0.908227 0.589465 0.464115 0.207838
N1    N     N_R   0.394180 0.396910 0.943210 -0.039028
N2    N     N_R   0.474350 0.471570 0.793850 -0.040814
N3    N     N_R   0.025650 0.971570 0.206150 -0.045893
N4    N     N_R   0.974350 0.971570 0.793850 -0.041688
N5    N     N_R   0.319480 0.528420 0.793810 -0.069922
N6    N     N_R   0.680520 0.528420 0.206190 -0.068138
N7    N     N_R   0.819480 0.028420 0.793810 -0.070576
N8    N     N_R   0.180520 0.028420 0.206190 -0.070764
N9    N     N_R   0.525640 0.528390 0.206120 -0.039728
N10   N     N_R   0.474360 0.528390 0.793880 -0.042972
N11   N     N_R   0.025640 0.028390 0.206120 -0.042129
N12   N     N_R   0.605820 0.396910 0.056790 -0.049744
N13   N     N_R   0.974360 0.028390 0.793880 -0.042208
N14   N     N_R   0.319490 0.471590 0.793840 -0.103362
N15   N     N_R   0.680510 0.471590 0.206160 -0.100225
N16   N     N_R   0.819490 0.971590 0.793840 -0.099519
N17   N     N_R   0.180510 0.971590 0.206160 -0.101780
N18   N     N_R   0.394130 0.603080 0.943110 -0.037119
N19   N     N_R   0.605870 0.603080 0.056890 -0.035544
N20   N     N_R   0.894130 0.103080 0.943110 -0.035813
N21   N     N_R   0.105870 0.103080 0.056890 -0.035561
N22   N     N_R   0.450990 0.396900 0.056840 -0.044333
N23   N     N_R   0.894180 0.896910 0.943210 -0.045999
N24   N     N_R   0.549010 0.396900 0.943160 -0.039921
N25   N     N_R   0.950990 0.896900 0.056840 -0.041800
N26   N     N_R   0.049010 0.896900 0.943160 -0.044811
N27   N     N_R   0.105820 0.896910 0.056790 -0.045271
N28   N     N_R   0.450950 0.603070 0.056740 -0.039971
N29   N     N_R   0.549050 0.603070 0.943260 -0.038740
N30   N     N_R   0.950950 0.103070 0.056740 -0.039141
N31   N     N_R   0.049050 0.103070 0.943260 -0.038229
N32   N     N_R   0.525650 0.471570 0.206150 -0.043429
Ni1   Ni    Ni4+2 0.434860 0.434850 0.869700 0.266777
Ni2   Ni    Ni4+2 0.565140 0.434850 0.130300 0.241683
Ni3   Ni    Ni4+2 0.934860 0.934850 0.869700 0.247549
Ni4   Ni    Ni4+2 0.065140 0.934850 0.130300 0.247529
Ni5   Ni    Ni4+2 0.565130 0.565140 0.130240 0.203188
Ni6   Ni    Ni4+2 0.434870 0.565140 0.869760 0.201472
Ni7   Ni    Ni4+2 0.065130 0.065140 0.130240 0.197004
Ni8   Ni    Ni4+2 0.934870 0.065140 0.869760 0.205166

loop_
_geom_bond_atom_site_label_1
_geom_bond_atom_site_label_2
_ccdc_geom_bond_type
C45   H14   S    
C13   C99   A    
C77   N6    A    
C53   C58   A    
C77   H41   S    
N14   Ni1   S    
C51   H19   S    
C89   N18   A    
C14   C18   A    
C19   C20   A    
C50   H18   S    
C41   H31   S    
C38   C98   S    
C71   H30   S    
N23   N25   A    
N8    N17   A    
C48   H16   S    
C46   C89   A    
C73   H37   S    
C59   H22   S    
C15   C19   A    
C29   C36   A    
C33   H10   S    
C50   C54   A    
C6    C85   A    
N19   N29   A    
C60   C63   A    
N1    N22   A    
C31   C58   A    
N18   N28   A    
C84   N13   A    
C11   C23   S    
C79   C93   A    
C41   N28   A    
N12   Ni2   S    
C10   C15   A    
C69   H28   S    
C9    C88   A    
C4    C65   S    
C95   C99   A    
C7    C86   A    
C94   C98   A    
C40   C49   A    
C95   H54   S    
C96   C100  A    
N28   Ni5   S    
C72   C90   A    
C42   H32   S    
C85   N14   A    
N3    Ni4   S    
C62   H26   S    
N2    Ni1   S    
C6    C15   S    
C22   H61   S    
N4    N13   A    
C80   H43   S    
N20   Ni8   S    
C43   C68   A    
C49   C51   A    
N9    N32   A    
C74   N3    A    
C12   C17   A    
C24   H23   S    
C41   C46   A    
C31   C33   A    
N5    Ni6   S    
N20   N30   A    
C32   H9    S    
C43   N30   A    
C47   C53   A    
N6    Ni5   S    
C4    C74   A    
C93   H52   S    
C35   N27   A    
C7    C77   A    
N21   N31   A    
C48   C50   A    
N26   N27   A    
C74   H38   S    
C28   C34   A    
C59   C60   A    
C21   H60   S    
C18   C22   A    
C21   C22   A    
C8    C78   A    
N3    N11   A    
N29   Ni6   S    
N23   Ni3   S    
N7    Ni8   S    
C61   C66   A    
C42   C57   A    
C88   F4    S    
C2    C64   S    
C25   H2    S    
C83   H47   S    
C42   N29   A    
N11   Ni7   S    
N18   Ni6   S    
C12   C27   S    
C34   C39   A    
C29   H6    S    
C60   H24   S    
N13   Ni8   S    
C80   N8    A    
C91   H50   S    
N12   N24   A    
C87   N16   A    
C5    C84   A    
C28   C54   A    
N22   Ni2   S    
N27   Ni4   S    
C29   C55   A    
C45   C52   A    
C34   H11   S    
C32   C37   A    
C20   H59   S    
C30   C56   A    
C17   C21   A    
C67   C69   A    
C19   H58   S    
C97   N26   A    
C5    C75   A    
N4    Ni3   S    
N8    Ni7   S    
C94   N22   A    
C63   C67   A    
C72   N32   A    
C26   H62   S    
C11   C16   A    
C3    C97   A    
C89   H49   S    
C66   C71   A    
C3    C35   A    
N24   Ni1   S    
C81   H44   S    
C49   H17   S    
C46   C54   S    
C25   H56   S    
C26   C27   S    
C16   C20   A    
C64   C69   A    
C14   C26   S    
C36   H13   S    
N25   Ni4   S    
C38   C47   A    
C82   H46   S    
C2    C73   A    
C75   H39   S    
C58   C79   S    
C87   F3    S    
C81   C90   A    
C84   H48   S    
C10   C25   S    
C88   N17   A    
N2    N10   A    
N5    N14   A    
C94   H53   S    
C97   H57   S    
C55   C57   S    
C7    C16   S    
C78   N7    A    
C2    C82   A    
C37   C45   A    
C86   F2    S    
C76   H40   S    
N1    Ni1   S    
C37   C99   S    
C36   C40   A    
C85   F1    S    
C47   H15   S    
N17   Ni4   S    
C91   N19   A    
C76   N5    A    
C93   N21   A    
C57   C91   A    
C62   C65   A    
N30   Ni7   S    
C24   C100  A    
N15   Ni2   S    
C44   C79   A    
C67   H27   S    
C8    C17   S    
C12   C14   A    
C5    C66   S    
C59   C64   A    
C26   H3    S    
C40   C100  S    
C31   H8    S    
N19   Ni5   S    
C92   N20   A    
C6    C76   A    
C61   H25   S    
C28   H5    S    
C44   H35   S    
C13   N12   A    
C33   C38   A    
C53   H21   S    
C83   N11   A    
C30   H7    S    
C8    C87   A    
C1    C98   A    
C81   N9    A    
C35   H34   S    
C56   C68   S    
C30   C32   A    
C52   H20   S    
C86   N15   A    
C4    C83   A    
C52   C56   A    
C27   H4    S    
N21   Ni7   S    
C70   H29   S    
N26   Ni3   S    
N10   Ni6   S    
C63   C90   S    
C1    N1    A    
N31   Ni8   S    
C68   C92   A    
N9    Ni5   S    
C43   H33   S    
C24   N23   A    
C51   C55   A    
C23   C25   S    
C23   H45   S    
C61   C62   A    
C13   H12   S    
C70   C71   A    
C10   C11   A    
C78   H42   S    
C3    C39   S    
C23   H64   S    
C96   N25   A    
C9    C18   S    
C72   H36   S    
C96   H55   S    
C44   N31   A    
N32   Ni2   S    
C92   H51   S    
C27   H63   S    
C75   N4    A    
N16   Ni3   S    
C39   C48   A    
C73   N2    A    
N6    N15   A    
C82   N10   A    
C9    C80   A    
C95   N24   A    
C65   C70   A    
C1    H1    S    
N7    N16   A    
