data_mof_unit_39114.cif
_audit_creation_date              2012-12-10T17:27:48-0500
_audit_creation_method            fapswitch 2.2
_symmetry_space_group_name_H-M    P1
_symmetry_Int_Tables_number       1
_space_group_crystal_system       triclinic
_cell_length_a                    10.638732
_cell_length_b                    11.97783
_cell_length_c                    12.890431
_cell_angle_alpha                 93.381134
_cell_angle_beta                  89.930005
_cell_angle_gamma                 83.863849
_cell_volume                      1630.31293313

loop_
_atom_site_label
_atom_site_type_symbol
_atom_type_description
_atom_site_fract_x
_atom_site_fract_y
_atom_site_fract_z
_atom_type_partial_charge
C1    C     C_R   0.499866 0.522038 0.700557 0.955565
C2    C     C_R   0.476660 0.641700 0.863138 -0.158955
C3    C     C_R   0.518299 0.438033 0.867352 -0.257591
C4    C     C_R   0.740416 0.495875 0.493361 0.894202
C5    C     C_R   0.511827 0.446340 0.973982 0.178668
C6    C     C_R   0.488008 0.553589 0.025932 0.174505
C7    C     C_R   0.482392 0.561934 0.132601 -0.265546
C8    C     C_R   0.522957 0.358212 0.136742 -0.185463
C9    C     C_R   0.528346 0.348967 0.029308 -0.216597
C10   C     C_R   0.389831 0.957925 0.397649 -0.287570
C11   C     C_R   0.399456 0.841132 0.408130 0.050732
C12   C     C_R   0.950475 0.433372 0.413669 -0.007384
C13   C     C_R   0.546393 0.856417 0.544961 -0.007144
C14   C     C_R   0.539688 0.974355 0.537357 0.077296
C15   C     C_R   0.460409 0.025642 0.462493 0.073734
C16   C     C_R   0.501361 0.477925 0.299405 0.858754
C17   C     C_R   0.453834 0.143567 0.454831 0.025667
C18   C     C_R   0.599843 0.158923 0.592334 0.122695
C19   C     C_R   0.609860 0.042107 0.602499 -0.292303
C20   C     C_R   0.260055 0.502946 0.503390 0.979315
C21   C     C_R   0.910762 0.355506 0.335806 0.394720
C22   C     C_R   0.973559 0.343786 0.239441 -0.198842
C23   C     C_R   0.874299 0.487004 0.496250 -0.142778
C24   C     C_R   0.087439 0.389024 0.227353 -0.174310
C25   C     C_R   0.141610 0.441460 0.312759 -0.147402
C26   C     C_R   0.074051 0.461807 0.407617 0.003846
C27   C     C_R   0.925443 0.544484 0.580263 -0.261975
C28   C     C_R   0.053817 0.549962 0.584904 0.449144
C29   C     C_R   0.127204 0.508538 0.497635 -0.222456
C30   C     C_R   0.501510 0.464865 0.188051 -0.058601
C31   C     C_R   0.499569 0.535115 0.811898 -0.054956
C32   C     C_R   0.470919 0.650932 0.970575 -0.207468
H1    H     H_    0.864745 0.581740 0.643571 0.184390
H2    H     H_    0.942116 0.288951 0.177195 0.158833
H3    H     H_    0.138612 0.375404 0.154272 0.166676
H4    H     H_    0.234546 0.468496 0.303505 0.124464
H5    H     H_    0.464208 0.644617 0.172145 0.163103
H6    H     H_    0.452670 0.733480 0.010179 0.149754
H7    H     H_    0.545958 0.266377 0.989685 0.147545
H8    H     H_    0.879669 0.107642 0.242600 0.354218
H9    H     H_    0.222880 0.527725 0.827262 0.381280
H10   H     H_    0.536812 0.282643 0.179312 0.193735
H11   H     H_    0.461704 0.717154 0.820425 0.181804
H12   H     H_    0.536787 0.355371 0.827815 0.161846
H13   H     H_    0.393208 0.184294 0.397703 0.126930
H14   H     H_    0.653737 0.210765 0.643004 0.134874
H15   H     H_    0.327809 0.994823 0.339352 0.162381
H16   H     H_    0.671658 0.005248 0.660952 0.157689
H17   H     H_    0.345026 0.789342 0.357860 0.131620
H18   H     H_    0.607210 0.815707 0.601967 0.129761
N1    N     N_R   0.523130 0.207800 0.519340 -0.089604
N2    N     N_R   0.476870 0.792180 0.480660 -0.101857
O1    O     O_R   0.506170 0.421690 0.658830 -0.635835
O2    O     O_2   0.707795 0.239059 0.337198 -0.336525
O3    O     O_3   0.923486 0.119265 0.309512 -0.532031
O4    O     O_2   0.198985 0.696880 0.677631 -0.283912
O5    O     O_2   0.016625 0.651129 0.776728 -0.312058
O6    O     O_3   0.210643 0.500214 0.754377 -0.578223
O7    O     O_R   0.491330 0.609320 0.646410 -0.612392
O8    O     O_R   0.690660 0.406170 0.506210 -0.548791
O9    O     O_R   0.675810 0.593790 0.493790 -0.630121
O10   O     O_R   0.508670 0.390680 0.353590 -0.592991
O11   O     O_R   0.493830 0.578310 0.341170 -0.645677
O12   O     O_R   0.324190 0.406210 0.506210 -0.615016
O13   O     O_R   0.309340 0.593830 0.493790 -0.596692
O14   O     O_2   0.852092 0.220635 0.485139 -0.256980
S1    S     S_3+6 0.843319 0.233640 0.370051 0.029528
S2    S     S_3+6 0.119569 0.604852 0.701064 0.016443
Zn1   Zn    Zn3+2 0.509910 0.374720 0.508290 1.033588
Zn2   Zn    Zn3+2 0.490090 0.625280 0.491710 0.986745

loop_
_geom_bond_atom_site_label_1
_geom_bond_atom_site_label_2
_ccdc_geom_bond_type
O9    Zn2   S    
C20   O12   A    
C6    C32   A    
C4    O9    A    
C5    C9    A    
C6    C7    A    
C11   H17   S    
C16   O11   A    
C32   H6    S    
C18   N1    A    
C13   N2    A    
N1    Zn1   S    
O3    S1    S    
O11   Zn2   S    
C1    C31   S    
C2    H11   S    
C10   C15   A    
H8    O3    S    
O1    Zn1   S    
C17   N1    A    
O14   S1    D    
C7    H5    S    
O12   Zn1   S    
C8    C30   A    
O2    S1    D    
C7    C30   A    
C25   H4    S    
C21   C22   A    
C21   S1    S    
C3    C31   A    
C12   C23   A    
C4    O8    A    
C16   O10   A    
O8    Zn1   S    
C18   H14   S    
O6    S2    S    
C28   C29   A    
C28   S2    S    
C8    H10   S    
H9    O6    S    
C23   C27   A    
C20   C29   S    
C1    O7    A    
C5    C6    A    
C22   H2    S    
C22   C24   A    
C3    H12   S    
C10   H15   S    
C24   H3    S    
N2    Zn2   S    
C10   C11   A    
O7    Zn2   S    
C16   C30   S    
O13   Zn2   S    
C12   C21   A    
C20   O13   A    
C9    H7    S    
C13   H18   S    
C24   C25   A    
C26   C29   A    
C2    C32   A    
C18   C19   A    
C27   C28   A    
C15   C17   A    
C4    C23   S    
C1    O1    A    
C14   C15   A    
C8    C9    A    
C11   N2    A    
O5    S2    D    
C13   C14   A    
C25   C26   A    
O4    S2    D    
C14   C19   A    
C19   H16   S    
C27   H1    S    
C17   H13   S    
O10   Zn1   S    
C12   C26   A    
C2    C31   A    
C3    C5    A    
