data_mof_unit_52437.cif
_audit_creation_date              2012-12-11T15:08:42-0500
_audit_creation_method            fapswitch 2.2
_symmetry_space_group_name_H-M    P1
_symmetry_Int_Tables_number       1
_space_group_crystal_system       triclinic
_cell_length_a                    21.648218
_cell_length_b                    21.634628
_cell_length_c                    22.792759
_cell_angle_alpha                 89.177286
_cell_angle_beta                  90.692161
_cell_angle_gamma                 89.000914
_cell_volume                      10671.4797678

loop_
_atom_site_label
_atom_site_type_symbol
_atom_type_description
_atom_site_fract_x
_atom_site_fract_y
_atom_site_fract_z
_atom_type_partial_charge
C1    C     C_R   0.917174 0.155762 0.084341 -0.104651
C2    C     C_R   0.063803 0.136164 0.109792 -0.105716
C3    C     C_R   0.205973 0.638174 0.151815 -0.027255
C4    C     C_R   0.322033 0.269408 0.877265 -0.010717
C5    C     C_R   0.725933 0.743765 0.173215 -0.000572
C6    C     C_R   0.262407 0.892251 0.696885 -0.037480
C7    C     C_R   0.771681 0.343990 0.146086 -0.034975
C8    C     C_R   0.168788 0.241477 0.369551 -0.007164
C9    C     C_R   0.764126 0.759776 0.669234 -0.001400
C10   C     C_R   0.396985 0.765066 0.196243 0.019141
C11   C     C_R   0.860084 0.304998 0.658915 -0.024922
C12   C     C_R   0.827447 0.767142 0.375851 -0.011781
C13   C     C_R   0.138061 0.934371 0.890888 -0.094609
C14   C     C_R   0.235949 0.242404 0.669259 0.017449
C15   C     C_R   0.714253 0.201583 0.317933 -0.040648
C16   C     C_R   0.144819 0.692316 0.667608 -0.030369
C17   C     C_R   0.858387 0.141998 0.100892 0.068235
C18   C     C_R   0.112969 0.886295 0.858509 0.065097
C19   C     C_R   0.111960 0.109160 0.141564 0.072858
C20   C     C_R   0.858420 0.859588 0.897991 0.050811
C21   C     C_R   0.147525 0.852677 0.093862 0.068710
C22   C     C_R   0.888803 0.112431 0.856076 0.062046
C23   C     C_R   0.889274 0.886915 0.140833 0.073777
C24   C     C_R   0.844589 0.082844 0.085021 -0.134759
C25   C     C_R   0.141215 0.140605 0.897311 0.053346
C26   C     C_R   0.353283 0.646168 0.594048 0.075414
C27   C     C_R   0.607418 0.392051 0.356860 0.085580
C28   C     C_R   0.609518 0.607062 0.643399 0.067453
C29   C     C_R   0.356300 0.356782 0.404421 0.053489
C30   C     C_R   0.648735 0.352305 0.590640 0.072754
C31   C     C_R   0.391488 0.609298 0.354327 0.060969
C32   C     C_R   0.394147 0.392011 0.644580 0.066455
C33   C     C_R   0.644097 0.644648 0.406992 0.045898
C34   C     C_R   0.827954 0.826774 0.803108 -0.064855
C35   C     C_R   0.082150 0.155564 0.913815 -0.133346
C36   C     C_R   0.122305 0.156712 0.236474 -0.110632
C37   C     C_R   0.897328 0.184889 0.771126 -0.078844
C38   C     C_R   0.256657 0.822912 0.118101 -0.140549
C39   C     C_R   0.171990 0.174143 0.802444 -0.126910
C40   C     C_R   0.877478 0.843891 0.238537 -0.067142
C41   C     C_R   0.107018 0.812194 0.776177 -0.099026
C42   C     C_R   0.800616 0.154715 0.188008 -0.095981
C43   C     C_R   0.339015 0.311214 0.311781 -0.105878
C44   C     C_R   0.629914 0.643007 0.742287 -0.105886
C45   C     C_R   0.325445 0.598804 0.264721 -0.072801
C46   C     C_R   0.937226 0.861789 0.109379 -0.121827
C47   C     C_R   0.683008 0.242930 0.609759 -0.129073
C48   C     C_R   0.666513 0.682041 0.311744 -0.104358
C49   C     C_R   0.377685 0.349798 0.743059 -0.090649
C50   C     C_R   0.667619 0.385772 0.267849 -0.085271
C51   C     C_R   0.321544 0.754166 0.619295 -0.101699
C52   C     C_R   0.819819 0.823148 0.862911 0.056748
C53   C     C_R   0.146721 0.142864 0.182566 0.050663
C54   C     C_R   0.870603 0.132560 0.796193 0.064872
C55   C     C_R   0.195480 0.805406 0.108588 0.084947
C56   C     C_R   0.180292 0.177073 0.862442 0.072535
C57   C     C_R   0.862956 0.064976 0.889310 -0.104796
C58   C     C_R   0.856154 0.851027 0.181510 0.052044
C59   C     C_R   0.133307 0.864660 0.800634 0.066241
C60   C     C_R   0.821144 0.180146 0.136142 0.065374
C61   C     C_R   0.318927 0.320123 0.368239 0.064976
C62   C     C_R   0.644621 0.641810 0.683513 0.041964
C63   C     C_R   0.373907 0.627927 0.293800 0.064088
C64   C     C_R   0.697483 0.305400 0.603438 0.069603
C65   C     C_R   0.681315 0.681357 0.370723 0.070963
C66   C     C_R   0.360011 0.355752 0.684691 0.047733
C67   C     C_R   0.641381 0.356973 0.315733 0.065829
C68   C     C_R   0.157775 0.914501 0.080734 -0.128697
C69   C     C_R   0.306021 0.692297 0.611315 0.066074
C70   C     C_R   0.773433 0.789278 0.888313 -0.203966
C71   C     C_R   0.201224 0.167606 0.162962 -0.195995
C72   C     C_R   0.823947 0.102326 0.765521 -0.148930
C73   C     C_R   0.179955 0.743256 0.115916 -0.176490
C74   C     C_R   0.229990 0.206337 0.888008 -0.197155
C75   C     C_R   0.806654 0.818720 0.159690 -0.192975
C76   C     C_R   0.181275 0.893992 0.771314 -0.150540
C77   C     C_R   0.813435 0.242201 0.122051 -0.199837
C78   C     C_R   0.263006 0.298834 0.387942 -0.203534
C79   C     C_R   0.414674 0.657292 0.580668 -0.122078
C80   C     C_R   0.689559 0.678699 0.659600 -0.169000
C81   C     C_R   0.401707 0.678770 0.267133 -0.137567
C82   C     C_R   0.758203 0.323864 0.613756 -0.180636
C83   C     C_R   0.734462 0.707328 0.392786 -0.195092
C84   C     C_R   0.313055 0.321522 0.660558 -0.187910
C85   C     C_R   0.656102 0.296479 0.331814 -0.190453
C86   C     C_R   0.245882 0.673592 0.623252 -0.181366
C87   C     C_3   0.722954 0.665308 0.967061 -0.732793
C88   C     C_3   0.349298 0.169629 0.112532 -0.739839
C89   C     C_3   0.677647 0.041331 0.748605 -0.721870
C90   C     C_R   0.560287 0.366641 0.388849 -0.107378
C91   C     C_3   0.150440 0.600368 0.067226 -0.709120
C92   C     C_3   0.302238 0.317188 0.970542 -0.758615
C93   C     C_3   0.660823 0.795837 0.100548 -0.778458
C94   C     C_3   0.328392 0.953400 0.758966 -0.681740
C95   C     C_3   0.753806 0.367269 0.043168 -0.671636
C96   C     C_3   0.172410 0.198807 0.467978 -0.726760
C97   C     C_3   0.827059 0.710396 0.595006 -0.775120
C98   C     C_3   0.450556 0.830453 0.264850 -0.772503
C99   C     C_3   0.868012 0.414367 0.679327 -0.723369
C100  C     C_3   0.813783 0.820286 0.467196 -0.722464
C101  C     C_R   0.636204 0.560856 0.610640 -0.127693
C102  C     C_3   0.170922 0.298316 0.599682 -0.778925
C103  C     C_3   0.633564 0.142554 0.363874 -0.665542
C104  C     C_3   0.135822 0.582936 0.689622 -0.695398
C105  C     C_R   0.065059 0.861773 0.891304 -0.114938
C106  C     C_R   0.342982 0.416748 0.418339 -0.114228
C107  C     C_R   0.586623 0.341788 0.579115 -0.126172
C108  C     C_R   0.437360 0.635743 0.388669 -0.095613
C109  C     C_R   0.366178 0.438723 0.611308 -0.128435
C110  C     C_R   0.656969 0.583863 0.419749 -0.100670
C111  C     C_R   0.416753 0.343525 0.418189 -0.135351
C112  C     C_R   0.562077 0.634515 0.610818 -0.104329
C113  C     C_R   0.634587 0.438109 0.389135 -0.120499
C114  C     C_R   0.342661 0.584835 0.580533 -0.120241
C115  C     C_R   0.583532 0.657306 0.419073 -0.147502
C116  C     C_R   0.137435 0.061735 0.109699 -0.127477
C117  C     C_R   0.440105 0.365077 0.611518 -0.101608
C118  C     C_R   0.364694 0.563044 0.388344 -0.107714
C119  C     C_R   0.658227 0.414455 0.579201 -0.120996
C120  C     C_R   0.734500 0.754872 0.852870 0.057375
C121  C     C_R   0.233959 0.207306 0.197841 0.047440
C122  C     C_R   0.796326 0.129836 0.715457 0.041067
C123  C     C_R   0.222337 0.700403 0.140756 0.042498
C124  C     C_R   0.271526 0.237692 0.852624 0.044533
C125  C     C_R   0.775585 0.778271 0.195645 0.044757
C126  C     C_R   0.209784 0.866097 0.723268 0.049921
C127  C     C_R   0.844146 0.918447 0.914720 -0.127907
C128  C     C_R   0.781763 0.280666 0.160050 0.061966
C129  C     C_R   0.225555 0.265506 0.350237 0.049771
C130  C     C_R   0.720820 0.719600 0.694366 0.028309
C131  C     C_R   0.373842 0.708656 0.218608 0.043296
C132  C     C_R   0.801276 0.283842 0.641105 0.032216
C133  C     C_R   0.773986 0.737666 0.354641 0.051699
C134  C     C_R   0.281837 0.279571 0.694630 0.030994
C135  C     C_R   0.697579 0.262477 0.299815 0.053339
C136  C     C_R   0.203840 0.713136 0.650772 0.047622
C137  C     C_R   0.131347 0.208754 0.330462 0.373889
C138  C     C_R   0.085704 0.842184 0.080956 -0.109496
C139  C     C_R   0.794166 0.802234 0.704531 0.511057
C140  C     C_R   0.361351 0.800095 0.155255 0.367870
C141  C     C_R   0.897124 0.268099 0.697266 0.491809
C142  C     C_R   0.865932 0.798234 0.336459 0.454195
C143  C     C_R   0.205896 0.199316 0.704230 0.475593
C144  C     C_R   0.754130 0.166685 0.283334 0.411663
C145  C     C_R   0.107841 0.729198 0.704149 0.414691
C146  C     C_R   0.650301 0.682282 0.840894 0.369568
C147  C     C_R   0.322452 0.272817 0.213461 0.384969
C148  C     C_R   0.710218 0.138330 0.645305 0.390296
C149  C     C_R   0.935732 0.137605 0.889925 -0.115559
C150  C     C_R   0.244168 0.600249 0.188403 0.483180
C151  C     C_R   0.361418 0.303116 0.840446 0.441311
C152  C     C_R   0.693299 0.705331 0.211099 0.452114
C153  C     C_R   0.296337 0.857865 0.655730 0.403211
C154  C     C_R   0.737434 0.381273 0.184280 0.398762
C155  C     C_R   0.788011 0.796745 0.765943 -0.114826
C156  C     C_R   0.154322 0.195225 0.274133 -0.070523
C157  C     C_R   0.872667 0.212585 0.720191 -0.077235
C158  C     C_R   0.300516 0.781303 0.142049 -0.058287
C159  C     C_R   0.213323 0.202571 0.765608 -0.109597
C160  C     C_R   0.862580 0.935259 0.109000 -0.108634
C161  C     C_R   0.846805 0.804798 0.277049 -0.088580
C162  C     C_R   0.132664 0.784106 0.727087 -0.065330
C163  C     C_R   0.771810 0.191617 0.228555 -0.067653
C164  C     C_R   0.302780 0.280257 0.272005 -0.068638
C165  C     C_R   0.662075 0.681825 0.779865 -0.065601
C166  C     C_R   0.297012 0.626301 0.215074 -0.081127
C167  C     C_R   0.725712 0.200730 0.635002 -0.076830
C168  C     C_R   0.706180 0.708013 0.271860 -0.088403
C169  C     C_R   0.346153 0.309236 0.779933 -0.083872
C170  C     C_R   0.709387 0.353124 0.233494 -0.071333
C171  C     C_R   0.155404 0.081436 0.914657 -0.118997
C172  C     C_R   0.280107 0.795793 0.645279 -0.056159
C173  C     C_R   0.742849 0.757827 0.791259 -0.012754
C174  C     C_R   0.211314 0.219794 0.254680 -0.005352
C175  C     C_R   0.818473 0.187549 0.695464 -0.020021
C176  C     C_R   0.281301 0.721255 0.157916 0.000311
C177  C     C_R   0.261283 0.237800 0.791074 -0.004656
C178  C     C_R   0.794310 0.773140 0.255447 -0.011448
C179  C     C_R   0.187532 0.808651 0.703824 -0.018464
C180  C     C_R   0.759376 0.254526 0.212956 -0.005618
C181  C     C_R   0.246141 0.255641 0.292054 -0.006467
C182  C     C_R   0.917872 0.844778 0.914474 -0.123215
C183  C     C_R   0.708017 0.720371 0.755210 -0.005810
C184  C     C_R   0.318467 0.684440 0.195495 -0.022149
C185  C     C_R   0.782903 0.223176 0.655591 -0.003114
C186  C     C_R   0.758823 0.738895 0.293815 -0.005331
C187  C     C_R   0.297126 0.274724 0.755197 -0.011740
C188  C     C_R   0.722750 0.290254 0.248985 -0.007036
C189  C     C_R   0.222934 0.773289 0.665254 -0.015411
C190  C     C_R   0.688750 0.716940 0.877667 -0.006335
C191  C     C_R   0.288591 0.234265 0.176801 -0.005218
C192  C     C_R   0.744161 0.103521 0.687842 0.006031
H1    H     H_    0.939191 0.200209 0.085750 0.097835
H2    H     H_    0.037722 0.177431 0.120375 0.117617
H3    H     H_    0.147079 0.200880 0.509915 0.282918
H4    H     H_    0.743979 0.760425 0.578953 0.176722
H5    H     H_    0.806583 0.673069 0.568487 0.201690
H6    H     H_    0.848778 0.689355 0.635226 0.270532
H7    H     H_    0.863941 0.732661 0.569330 0.262672
H8    H     H_    0.489533 0.755571 0.221371 0.223205
H9    H     H_    0.433273 0.806429 0.304622 0.214296
H10   H     H_    0.419114 0.870008 0.253596 0.270012
H11   H     H_    0.497043 0.848813 0.274762 0.253814
H12   H     H_    0.872869 0.374748 0.596504 0.179979
H13   H     H_    0.176286 0.963040 0.879148 0.096880
H14   H     H_    0.817449 0.423229 0.681705 0.201966
H15   H     H_    0.890401 0.456965 0.663019 0.245788
H16   H     H_    0.886156 0.403738 0.724116 0.283859
H17   H     H_    0.839140 0.726935 0.459232 0.175558
H18   H     H_    0.763113 0.814304 0.470835 0.227771
H19   H     H_    0.823002 0.864392 0.443549 0.277626
H20   H     H_    0.834365 0.823238 0.511774 0.272568
H21   H     H_    0.252357 0.249954 0.579386 0.177792
H22   H     H_    0.189040 0.343856 0.612879 0.221700
H23   H     H_    0.128809 0.288153 0.625234 0.300182
H24   H     H_    0.800047 0.061080 0.086720 0.107096
H25   H     H_    0.157976 0.301182 0.552549 0.231252
H26   H     H_    0.693560 0.202070 0.407361 0.173002
H27   H     H_    0.595593 0.175303 0.350840 0.202950
H28   H     H_    0.621650 0.119855 0.406136 0.264270
H29   H     H_    0.638150 0.106283 0.330114 0.267204
H30   H     H_    0.131032 0.623509 0.605951 0.173004
H31   H     H_    0.186350 0.573765 0.693373 0.200145
H32   H     H_    0.113193 0.540676 0.673461 0.242088
H33   H     H_    0.117549 0.593252 0.733756 0.281313
H34   H     H_    0.087235 0.096564 0.385869 0.339156
H35   H     H_    0.060281 0.200879 0.912167 0.114780
H36   H     H_    0.928803 0.871522 0.636494 0.382339
H37   H     H_    0.338314 0.918504 0.183224 0.303930
H38   H     H_    0.058215 0.248069 0.746406 0.367017
H39   H     H_    0.955788 0.834926 0.455510 0.374738
H40   H     H_    0.166770 0.093446 0.586174 0.379584
H41   H     H_    0.804632 0.112058 0.400227 0.358225
H42   H     H_    0.995830 0.688426 0.633885 0.350145
H43   H     H_    0.642654 0.555842 0.882738 0.338740
H44   H     H_    0.451429 0.238480 0.212213 0.331197
H45   H     H_    0.688433 0.123057 0.519783 0.349210
H46   H     H_    0.964316 0.820571 0.119861 0.116212
H47   H     H_    0.191654 0.473639 0.280768 0.373366
H48   H     H_    0.442156 0.344676 0.964417 0.391300
H49   H     H_    0.615627 0.654401 0.088702 0.387169
H50   H     H_    0.313611 0.979562 0.591592 0.354272
H51   H     H_    0.821839 0.487643 0.141723 0.345938
H52   H     H_    0.825237 0.035955 0.876847 0.096493
H53   H     H_    0.201878 0.936553 0.076583 0.107895
H54   H     H_    0.436444 0.701724 0.577542 0.112558
H55   H     H_    0.533043 0.327146 0.377441 0.115509
H56   H     H_    0.677277 0.533698 0.621393 0.112418
H57   H     H_    0.035615 0.824048 0.880224 0.110702
H58   H     H_    0.298127 0.439588 0.417115 0.104707
H59   H     H_    0.565026 0.297405 0.575094 0.112229
H60   H     H_    0.467653 0.672604 0.376606 0.095162
H61   H     H_    0.325519 0.465650 0.622223 0.111423
H62   H     H_    0.701568 0.560590 0.418740 0.105706
H63   H     H_    0.439767 0.298781 0.417206 0.111054
H64   H     H_    0.535038 0.675110 0.621756 0.125878
H65   H     H_    0.675053 0.464145 0.378013 0.124215
H66   H     H_    0.298508 0.562727 0.576742 0.086867
H67   H     H_    0.560643 0.702154 0.417862 0.114154
H68   H     H_    0.178511 0.034470 0.120181 0.115577
H69   H     H_    0.467708 0.324391 0.622726 0.126696
H70   H     H_    0.327838 0.533006 0.375751 0.110037
H71   H     H_    0.701987 0.437050 0.574628 0.085168
H72   H     H_    0.866980 0.851975 0.786673 0.199879
H73   H     H_    0.079007 0.136007 0.248056 0.209843
H74   H     H_    0.933614 0.207671 0.794399 0.173223
H75   H     H_    0.268831 0.870461 0.111668 0.157821
H76   H     H_    0.132037 0.150594 0.785362 0.198225
H77   H     H_    0.916611 0.870796 0.251996 0.200023
H78   H     H_    0.069785 0.790036 0.798453 0.175027
H79   H     H_    0.799161 0.940999 0.913411 0.104996
H80   H     H_    0.808198 0.105799 0.196040 0.187852
H81   H     H_    0.383460 0.329298 0.300010 0.201823
H82   H     H_    0.594181 0.612667 0.757411 0.207143
H83   H     H_    0.306458 0.557778 0.284056 0.176345
H84   H     H_    0.636740 0.228382 0.599953 0.187437
H85   H     H_    0.623481 0.661736 0.297992 0.184853
H86   H     H_    0.414781 0.378236 0.758635 0.199338
H87   H     H_    0.654191 0.433200 0.258277 0.203995
H88   H     H_    0.367636 0.768584 0.609378 0.177375
H89   H     H_    0.769634 0.789510 0.935590 0.121449
H90   H     H_    0.063843 0.797896 0.077492 0.086893
H91   H     H_    0.216491 0.156214 0.119346 0.126006
H92   H     H_    0.806209 0.059902 0.783373 0.120440
H93   H     H_    0.133621 0.729259 0.105773 0.111075
H94   H     H_    0.234730 0.204639 0.935317 0.120157
H95   H     H_    0.793571 0.825657 0.114055 0.124088
H96   H     H_    0.198945 0.936348 0.788588 0.121276
H97   H     H_    0.831643 0.259001 0.080933 0.121773
H98   H     H_    0.250308 0.308133 0.432755 0.118737
H99   H     H_    0.698005 0.676076 0.612950 0.126596
H100  H     H_    0.441884 0.698257 0.287414 0.114011
H101  H     H_    0.965454 0.175058 0.878502 0.107803
H102  H     H_    0.770296 0.371093 0.605406 0.113157
H103  H     H_    0.743448 0.703807 0.439516 0.117229
H104  H     H_    0.302723 0.327449 0.614216 0.125738
H105  H     H_    0.636163 0.277139 0.371079 0.124430
H106  H     H_    0.233344 0.626614 0.615051 0.113884
H107  H     H_    0.680381 0.752743 0.961612 0.169554
H108  H     H_    0.772056 0.678539 0.962802 0.212664
H109  H     H_    0.716120 0.619592 0.946618 0.251298
H110  H     H_    0.712081 0.661022 0.014278 0.275007
H111  H     H_    0.276309 0.228724 0.085977 0.165132
H112  H     H_    0.820978 0.961042 0.119077 0.119038
H113  H     H_    0.323805 0.126663 0.122305 0.224370
H114  H     H_    0.389778 0.172307 0.142719 0.251684
H115  H     H_    0.366399 0.167708 0.066854 0.245260
H116  H     H_    0.759360 0.010879 0.710208 0.234297
H117  H     H_    0.696379 0.058418 0.790828 0.201196
H118  H     H_    0.662462 0.992992 0.755153 0.249098
H119  H     H_    0.636785 0.070132 0.735285 0.281964
H120  H     H_    0.110344 0.637226 0.142338 0.177711
H121  H     H_    0.153959 0.643366 0.040382 0.211937
H122  H     H_    0.107056 0.576899 0.054962 0.238464
H123  H     H_    0.200173 0.058518 0.913799 0.106986
H124  H     H_    0.190027 0.568973 0.057366 0.269578
H125  H     H_    0.331022 0.225465 0.959137 0.179862
H126  H     H_    0.251384 0.311348 0.968655 0.218449
H127  H     H_    0.313881 0.363059 0.951562 0.271293
H128  H     H_    0.317688 0.315794 0.017146 0.272558
H129  H     H_    0.742434 0.746594 0.083041 0.168738
H130  H     H_    0.679947 0.842449 0.107863 0.230350
H131  H     H_    0.620008 0.789347 0.128933 0.284677
H132  H     H_    0.645316 0.792785 0.054150 0.241258
H133  H     H_    0.247658 0.985065 0.716569 0.219599
H134  H     H_    0.940238 0.799751 0.913209 0.118233
H135  H     H_    0.308856 0.936067 0.800792 0.201831
H136  H     H_    0.343835 0.001560 0.765174 0.244215
H137  H     H_    0.369241 0.924413 0.747673 0.280555
H138  H     H_    0.840493 0.359692 0.084485 0.166287
H139  H     H_    0.746900 0.318422 0.030638 0.209401
H140  H     H_    0.773987 0.392600 0.005493 0.235035
H141  H     H_    0.708380 0.389108 0.053170 0.279536
H142  H     H_    0.152216 0.291433 0.445738 0.170890
H143  H     H_    0.222593 0.203973 0.476875 0.220368
H144  H     H_    0.164322 0.152743 0.448676 0.236720
N1    N     N_R   0.940200 0.105310 0.059970 -0.042471
N2    N     N_R   0.059800 0.105310 0.059970 -0.049683
N3    N     N_R   0.105310 0.940200 0.940030 -0.045426
N4    N     N_R   0.894690 0.059800 0.059970 -0.038881
N5    N     N_R   0.059800 0.105310 0.940030 -0.041547
N6    N     N_R   0.940200 0.894690 0.059970 -0.048604
N7    N     N_R   0.894690 0.059800 0.940030 -0.045591
N8    N     N_R   0.105310 0.940200 0.059970 -0.040299
N9    N     N_R   0.440200 0.605310 0.559970 -0.042400
N10   N     N_R   0.559800 0.394690 0.440030 -0.050278
N11   N     N_R   0.605310 0.559800 0.559970 -0.049521
N12   N     N_R   0.059800 0.894690 0.940030 -0.046434
N13   N     N_R   0.394690 0.440200 0.440030 -0.042210
N14   N     N_R   0.559800 0.394690 0.559970 -0.042211
N15   N     N_R   0.440200 0.605310 0.440030 -0.045185
N16   N     N_R   0.394690 0.440200 0.559970 -0.049548
N17   N     N_R   0.605310 0.559800 0.440030 -0.042325
N18   N     N_R   0.440200 0.394690 0.440030 -0.038351
N19   N     N_R   0.559800 0.605310 0.559970 -0.049361
N20   N     N_R   0.605310 0.440200 0.440030 -0.049421
N21   N     N_R   0.394690 0.559800 0.559970 -0.040618
N22   N     N_R   0.559800 0.605310 0.440030 -0.039150
N23   N     N_R   0.105310 0.059800 0.059970 -0.047755
N24   N     N_R   0.440200 0.394690 0.559970 -0.049969
N25   N     N_R   0.394690 0.559800 0.440030 -0.047056
N26   N     N_R   0.605310 0.440200 0.559970 -0.040102
N27   N     N_2   0.682559 0.711524 0.939630 -0.074685
N28   N     N_2   0.309393 0.223446 0.118659 -0.080099
N29   N     N_2   0.724332 0.043135 0.703719 -0.066449
N30   N     N_2   0.149791 0.614255 0.129153 -0.068277
N31   N     N_2   0.333222 0.268321 0.939002 -0.073513
N32   N     N_2   0.707301 0.748463 0.113102 -0.089784
N33   N     N_2   0.282426 0.952347 0.712371 -0.080925
N34   N     N_R   0.894690 0.940200 0.940030 -0.041384
N35   N     N_2   0.795035 0.370445 0.093415 -0.088734
N36   N     N_2   0.149923 0.247635 0.428813 -0.075512
N37   N     N_2   0.779971 0.756197 0.608863 -0.076647
N38   N     N_2   0.454659 0.788220 0.216315 -0.068958
N39   N     N_2   0.881490 0.363953 0.640079 -0.068226
N40   N     N_2   0.841450 0.768591 0.436975 -0.089580
N41   N     N_2   0.217153 0.249973 0.609412 -0.073156
N42   N     N_2   0.691073 0.174908 0.370645 -0.087593
N43   N     N_2   0.122798 0.633869 0.649199 -0.078434
N44   N     N_R   0.059800 0.894690 0.059970 -0.041271
N45   N     N_R   0.940200 0.105310 0.940030 -0.046412
N46   N     N_R   0.894690 0.940200 0.059970 -0.050395
N47   N     N_R   0.105310 0.059800 0.940030 -0.042392
N48   N     N_R   0.940200 0.894690 0.940030 -0.042961
Ni1   Ni    Ni4+2 0.000000 0.104370 0.000000 0.222360
Ni2   Ni    Ni4+2 1.000000 0.895630 0.000000 0.221367
Ni3   Ni    Ni4+2 0.104370 0.000000 0.000000 0.227368
Ni4   Ni    Ni4+2 0.895630 0.000000 0.000000 0.221548
Ni5   Ni    Ni4+2 0.500000 0.604370 0.500000 0.231991
Ni6   Ni    Ni4+2 0.500000 0.395630 0.500000 0.227143
Ni7   Ni    Ni4+2 0.604370 0.500000 0.500000 0.215264
Ni8   Ni    Ni4+2 0.395630 0.500000 0.500000 0.219419
O1    O     O_2   0.035926 0.212198 0.409244 -0.229498
O2    O     O_2   0.999952 0.332534 0.670222 -0.255104
O3    O     O_2   0.968754 0.328704 0.773210 -0.325554
O4    O     O_3   0.020050 0.231010 0.729089 -0.506128
O5    O     O_2   0.987833 0.812766 0.319283 -0.262693
O6    O     O_2   0.931321 0.897853 0.364905 -0.261349
O7    O     O_3   0.959394 0.799914 0.428154 -0.493179
O8    O     O_2   0.163823 0.081910 0.706897 -0.321836
O9    O     O_2   0.097858 0.161565 0.659084 -0.231231
O10   O     O_3   0.195315 0.122910 0.604675 -0.530864
O11   O     O_2   0.748070 0.043051 0.278961 -0.268177
O12   O     O_2   0.009752 0.206534 0.305349 -0.246589
O13   O     O_2   0.850375 0.085956 0.295720 -0.241175
O14   O     O_3   0.774762 0.083449 0.382379 -0.461286
O15   O     O_2   0.032585 0.670531 0.778232 -0.274928
O16   O     O_2   0.989270 0.761618 0.727224 -0.265567
O17   O     O_3   0.001428 0.660834 0.668680 -0.482508
O18   O     O_2   0.577598 0.652212 0.935031 -0.219052
O19   O     O_2   0.529338 0.656638 0.838014 -0.236009
O20   O     O_3   0.602089 0.563543 0.863191 -0.482039
O21   O     O_2   0.395253 0.307765 0.120599 -0.240611
O22   O     O_2   0.382394 0.379993 0.200541 -0.195355
O23   O     O_3   0.054198 0.107900 0.357069 -0.474571
O24   O     O_3   0.452734 0.283574 0.218841 -0.520777
O25   O     O_2   0.657477 0.034681 0.602378 -0.206556
O26   O     O_2   0.588799 0.118650 0.633572 -0.251882
O27   O     O_3   0.646909 0.132196 0.535636 -0.526361
O28   O     O_2   0.179348 0.497236 0.159175 -0.249152
O29   O     O_2   0.281614 0.481855 0.203749 -0.254841
O30   O     O_3   0.191885 0.518244 0.270333 -0.551274
O31   O     O_2   0.483355 0.323264 0.830798 -0.249574
O32   O     O_2   0.419839 0.405795 0.872386 -0.280985
O33   O     O_3   0.448196 0.309440 0.937685 -0.469007
O34   O     O_2   0.806521 0.880491 0.612291 -0.274843
O35   O     O_2   0.640532 0.592952 0.215799 -0.188902
O36   O     O_2   0.574525 0.681214 0.187217 -0.351807
O37   O     O_3   0.651702 0.637252 0.111026 -0.455617
O38   O     O_2   0.418225 0.874991 0.646948 -0.249866
O39   O     O_2   0.359451 0.870614 0.554902 -0.288832
O40   O     O_3   0.351376 0.970532 0.615395 -0.447729
O41   O     O_2   0.666422 0.477578 0.148663 -0.173339
O42   O     O_2   0.741497 0.496806 0.227047 -0.291077
O43   O     O_3   0.781275 0.488820 0.121105 -0.472349
O44   O     O_2   0.838307 0.919353 0.707525 -0.333259
O45   O     O_3   0.908891 0.837332 0.658091 -0.482829
O46   O     O_2   0.462490 0.862556 0.120188 -0.211469
O47   O     O_2   0.370052 0.872382 0.058360 -0.255188
O48   O     O_3   0.371906 0.931171 0.156766 -0.503404
S1    S     S_3+6 0.055653 0.185468 0.351779 0.004281
S2    S     S_3+6 0.388408 0.312651 0.185910 0.006703
S3    S     S_3+6 0.649194 0.103734 0.604736 0.001172
S4    S     S_3+6 0.224092 0.521836 0.203619 -0.022476
S5    S     S_3+6 0.429675 0.336885 0.870085 -0.001205
S6    S     S_3+6 0.638082 0.653022 0.181855 0.019678
S7    S     S_3+6 0.358185 0.892943 0.617061 -0.006532
S8    S     S_3+6 0.730727 0.462843 0.170824 0.015961
S9    S     S_3+6 0.836466 0.862769 0.670104 -0.026853
S10   S     S_3+6 0.393131 0.866972 0.120727 0.004304
S11   S     S_3+6 0.972820 0.292581 0.717509 -0.035995
S12   S     S_3+6 0.937666 0.828636 0.361835 -0.007146
S13   S     S_3+6 0.163333 0.139772 0.669555 -0.029497
S14   S     S_3+6 0.782867 0.093018 0.309504 0.002567
S15   S     S_3+6 0.031119 0.706000 0.721060 -0.023072
S16   S     S_3+6 0.587765 0.639583 0.871166 0.012569

loop_
_geom_bond_atom_site_label_1
_geom_bond_atom_site_label_2
_ccdc_geom_bond_type
C23   C58   S    
C44   H82   S    
O24   S2    S    
C107  N14   A    
C123  C176  A    
C91   H121  S    
C34   C155  A    
N3    N12   A    
C118  N25   A    
C13   C18   A    
C35   H35   S    
C4    N31   S    
C147  C164  A    
O39   S7    D    
C2    N2    A    
C74   H94   S    
C167  C185  A    
O37   S6    S    
N19   Ni5   S    
C27   C90   A    
C153  S7    S    
H8    N38   S    
C108  N15   A    
C154  S8    S    
C10   C131  A    
C36   C53   A    
C102  H25   S    
C95   H140  S    
C38   C55   A    
C113  N20   A    
N2    N23   A    
C128  C180  A    
C5    N32   S    
C48   C65   A    
O45   S9    S    
C119  N26   A    
C138  N44   A    
O13   S14   D    
C25   C171  A    
C23   C46   A    
H38   O4    S    
C41   C162  A    
C89   H118  S    
C146  S16   S    
C10   C140  A    
C89   H119  S    
H120  N30   S    
C3    C123  A    
C78   H98   S    
C111  H63   S    
C67   C85   A    
O29   S4    D    
C40   C58   A    
C32   C109  A    
C165  C183  A    
C79   H54   S    
O15   S15   D    
C166  C184  A    
C169  C187  A    
H49   O37   S    
C82   H102  S    
C47   C64   A    
C21   C55   S    
O12   S1    D    
C48   H85   S    
C103  N42   S    
C140  S10   S    
C99   H15   S    
N7    Ni4   S    
C1    H1    S    
C26   C114  A    
O9    S13   D    
C15   N42   S    
C31   C63   S    
C9    N37   S    
C131  C184  A    
C39   C56   A    
C156  C174  A    
C90   H55   S    
H107  N27   S    
C148  S3    S    
N25   Ni8   S    
O17   S15   S    
C91   N30   S    
C141  C157  A    
N26   Ni7   S    
C16   N43   S    
C92   H126  S    
C172  C189  A    
C42   C60   A    
C53   C71   A    
N7    N45   A    
N1    N4    A    
C43   C61   A    
C171  N47   A    
C176  C184  A    
C68   N8    A    
C2    C19   A    
C182  N48   A    
C29   C111  A    
N6    Ni2   S    
C95   N35   S    
N48   Ni2   S    
C100  N40   S    
C34   H72   S    
N18   Ni6   S    
C46   N6    A    
C106  H58   S    
O10   S13   S    
C115  H67   S    
C103  H29   S    
H116  N29   S    
C110  H62   S    
C45   C63   A    
C137  S1    S    
C37   H74   S    
C42   H80   S    
C81   H100  S    
C6    C153  A    
C178  C186  A    
O16   S15   D    
C8    C129  A    
C148  C167  A    
O6    S12   D    
C51   C69   A    
C101  H56   S    
C88   H114  S    
C10   N38   S    
C30   C107  A    
O2    S11   D    
C32   C117  A    
C142  C161  A    
H50   O40   S    
C22   C54   S    
C56   C74   A    
C154  C170  A    
C45   C166  A    
C127  N34   A    
C108  H60   S    
C62   C80   A    
C57   H52   S    
C130  C183  A    
N10   Ni6   S    
C81   C131  A    
C150  C166  A    
N34   N48   A    
C4    C124  A    
O27   S3    S    
C37   C157  A    
C164  C181  A    
N15   N25   A    
C140  C158  A    
C191  N28   S    
C96   H3    S    
C85   H105  S    
C92   H128  S    
C70   C120  A    
C73   C123  A    
C48   C168  A    
C139  C155  A    
C50   C67   A    
C13   N3    A    
H48   O33   S    
C103  H28   S    
H42   O17   S    
C43   C164  A    
C114  N21   A    
C24   N4    A    
C94   H137  S    
C127  H79   S    
O20   S16   S    
C116  N23   A    
C29   C61   S    
C106  N13   A    
C168  C186  A    
C49   C66   A    
O43   S8    S    
C102  N41   S    
C97   H5    S    
C98   H11   S    
O21   S2    D    
C20   C127  A    
C160  N46   A    
C47   H84   S    
C16   C145  A    
C38   H75   S    
C31   C118  A    
N3    Ni3   S    
N45   Ni1   S    
O18   S16   D    
N1    Ni1   S    
C179  C189  A    
C171  H123  S    
H30   N43   S    
N44   Ni2   S    
C112  N19   A    
C11   C141  A    
C124  C177  A    
C93   H131  S    
C72   H92   S    
C27   C113  A    
C146  C165  A    
C157  C175  A    
N16   N24   A    
C21   C68   A    
C87   H109  S    
N5    N47   A    
C16   C136  A    
C89   N29   S    
N21   Ni8   S    
C7    N35   S    
C26   C69   S    
N14   N26   A    
C96   H143  S    
C190  N27   S    
C104  H31   S    
N9    N21   A    
C12   N40   S    
C71   C121  A    
N11   N19   A    
C132  C185  A    
C121  C191  A    
O34   S9    D    
C91   H124  S    
C122  C192  A    
C100  H19   S    
C1    C17   A    
C151  C169  A    
C136  C189  A    
C71   H91   S    
C24   H24   S    
C109  N16   A    
C19   C116  A    
O7    S12   S    
C153  C172  A    
N14   Ni6   S    
C44   C165  A    
C27   C67   S    
C17   C60   S    
C149  N45   A    
C55   C73   A    
C18   C59   S    
C94   H135  S    
C170  C188  A    
C125  C178  A    
C76   H96   S    
C33   C110  A    
C1    N1    A    
C59   C76   A    
C104  H32   S    
O19   S16   D    
O22   S2    D    
C110  N17   A    
H125  N31   S    
C148  C192  A    
C74   C124  A    
C6    N33   S    
C30   C64   S    
C76   C126  A    
C36   H73   S    
C97   H7    S    
C98   H9    S    
H43   O20   S    
O33   S5    S    
N8    N44   A    
N13   Ni8   S    
C11   C132  A    
C104  H33   S    
C9    C130  A    
C28   C112  A    
C84   C134  A    
C192  N29   S    
N24   Ni6   S    
O30   S4    S    
C87   H108  S    
C51   C172  A    
O26   S3    D    
N34   Ni4   S    
C112  H64   S    
H40   O10   S    
N15   Ni5   S    
C149  H101  S    
H45   O27   S    
N10   N20   A    
C180  C188  A    
N5    Ni1   S    
C28   C101  A    
C102  H22   S    
C92   N31   S    
O46   S10   D    
C78   C129  A    
N20   Ni7   S    
O38   S7    D    
C117  H69   S    
C22   C149  A    
H36   O45   S    
H17   N40   S    
H37   O48   S    
C113  H65   S    
C21   C138  A    
C152  C168  A    
C91   H122  S    
O3    S11   D    
O31   S5    D    
C33   C115  A    
C79   N9    A    
C8    N36   S    
C93   N32   S    
C151  S5    S    
C144  S14   S    
C6    C126  A    
C142  S12   S    
C39   H76   S    
O40   S7    S    
O36   S6    D    
C86   H106  S    
C139  S9    S    
O35   S6    D    
C8    C137  A    
C2    H2    S    
O5    S12   D    
H39   O7    S    
N12   Ni2   S    
H129  N32   S    
H44   O24   S    
C120  C190  A    
C175  C185  A    
O42   S8    D    
C121  C174  A    
C138  H90   S    
C126  C179  A    
C50   C170  A    
C104  N43   S    
N2    Ni1   S    
C160  H112  S    
C38   C158  A    
C25   C35   A    
C5    C125  A    
C145  S15   S    
C144  C163  A    
C88   N28   S    
C13   H13   S    
N17   Ni7   S    
C3    N30   S    
C82   C132  A    
H34   O23   S    
C36   C156  A    
C32   C66   S    
C14   C143  A    
C86   C136  A    
C3    C150  A    
C152  S6    S    
C39   C159  A    
C134  C187  A    
H51   O43   S    
O28   S4    D    
C143  C159  A    
C43   H81   S    
C68   H53   S    
C70   H89   S    
C101  N11   A    
C34   C52   A    
C26   C79   A    
C177  C187  A    
C107  H59   S    
C99   H16   S    
C105  N12   A    
O23   S1    S    
C105  H57   S    
C40   C161  A    
C14   N41   S    
C45   H83   S    
C49   C169  A    
H41   O14   S    
C9    C139  A    
O48   S10   S    
H138  N35   S    
C100  H18   S    
C94   N33   S    
C12   C142  A    
C51   H88   S    
C147  S2    S    
C143  S13   S    
N47   Ni3   S    
N22   Ni5   S    
C73   H93   S    
C173  C183  A    
O25   S3    D    
H111  N28   S    
C30   C119  A    
O11   S14   D    
N8    Ni3   S    
C75   C125  A    
C161  C178  A    
C103  H27   S    
N6    N46   A    
C31   C108  A    
C117  N24   A    
C25   C56   S    
C109  H61   S    
C22   C57   A    
C33   C65   S    
N16   Ni8   S    
C40   H77   S    
C7    C154  A    
H133  N33   S    
C5    C152  A    
C63   C81   A    
C77   H97   S    
C65   C83   A    
C15   C135  A    
C145  C162  A    
C122  C175  A    
O47   S10   D    
C83   H103  S    
C119  H71   S    
O8    S13   D    
C93   H130  S    
C116  H68   S    
C19   C53   S    
C11   N39   S    
C88   H113  S    
O41   S8    D    
C35   N5    A    
C7    C128  A    
C159  C177  A    
C174  C181  A    
C58   C75   A    
O1    S1    D    
C97   N37   S    
C60   C77   A    
C96   H144  S    
C17   C24   A    
C80   C130  A    
C99   H14   S    
C99   N39   S    
C87   N27   S    
C41   C59   A    
C147  C191  A    
C42   C163  A    
C96   N36   S    
C14   C134  A    
C44   C62   A    
C111  N18   A    
C95   H139  S    
C50   H87   S    
N4    Ni4   S    
O32   S5    D    
C137  C156  A    
C114  H66   S    
H21   N41   S    
C47   C167  A    
C102  H23   S    
C118  H70   S    
C92   H127  S    
N46   Ni4   S    
C61   C78   A    
C23   C160  A    
N11   Ni7   S    
C41   H78   S    
H26   N42   S    
C64   C82   A    
C162  C179  A    
C77   C128  A    
C133  C186  A    
C85   C135  A    
C37   C54   A    
C158  C176  A    
C94   H136  S    
C12   C133  A    
C150  S4    S    
C29   C106  A    
C90   N10   A    
H12   N39   S    
C75   H95   S    
C135  C188  A    
C20   C182  A    
C141  S11   S    
C4    C151  A    
C129  C181  A    
C84   H104  S    
C72   C122  A    
C97   H6    S    
C98   H10   S    
H142  N36   S    
N17   N22   A    
C89   H117  S    
C95   H141  S    
C80   H99   S    
H4    N37   S    
C182  H134  S    
C18   C105  A    
C20   C52   S    
C155  C173  A    
C100  H20   S    
C49   H86   S    
N13   N18   A    
C98   N38   S    
C46   H46   S    
O4    S11   S    
C83   C133  A    
C93   H132  S    
C52   C70   A    
O44   S9    D    
C66   C84   A    
C15   C144  A    
C120  C173  A    
C54   C72   A    
C88   H115  S    
C163  C180  A    
H47   O30   S    
C87   H110  S    
C146  C190  A    
C115  N22   A    
N9    Ni5   S    
N23   Ni3   S    
O14   S14   S    
C69   C86   A    
C57   N7    A    
C28   C62   S    
