data_mof_unit_36400.cif
_audit_creation_date              2012-12-10T18:11:50-0500
_audit_creation_method            fapswitch 2.2
_symmetry_space_group_name_H-M    P1
_symmetry_Int_Tables_number       1
_space_group_crystal_system       triclinic
_cell_length_a                    15.872038
_cell_length_b                    10.742965
_cell_length_c                    9.424129
_cell_angle_alpha                 90.047967
_cell_angle_beta                  90.071643
_cell_angle_gamma                 89.997286
_cell_volume                      1606.93231893

loop_
_atom_site_label
_atom_site_type_symbol
_atom_type_description
_atom_site_fract_x
_atom_site_fract_y
_atom_site_fract_z
_atom_type_partial_charge
C1    C     C_R   0.497324 0.260006 0.499637 0.771869
C2    C     C_3   0.083114 0.502081 0.503107 0.142652
C3    C     C_3   0.970870 0.601808 0.572666 -0.198056
C4    C     C_3   0.916919 0.500221 0.501315 0.113997
C5    C     C_3   0.027679 0.605408 0.438274 -0.216768
C6    C     C_3   0.971879 0.504332 0.366558 -0.204174
C7    C     C_1   0.174774 0.501281 0.501015 0.073517
C8    C     C_1   0.825319 0.500054 0.500602 -0.038530
C9    C     C_3   0.583961 0.073932 0.541780 -0.458814
C10   C     C_3   0.584642 0.929739 0.545155 0.187800
C11   C     C_3   0.430430 0.071682 0.607335 -0.345476
C12   C     C_R   0.339872 0.500025 0.499942 0.816932
C13   C     C_3   0.474258 0.070423 0.346304 -0.156181
C14   C     C_3   0.495496 0.122041 0.498164 -0.047894
C15   C     C_3   0.496697 0.878059 0.499751 -0.031744
C16   C     C_3   0.426387 0.927937 0.601099 0.241514
C17   C     C_3   0.477857 0.927028 0.347485 -0.367950
C18   C     C_3   0.472640 0.622384 0.084364 0.408374
C19   C     C_3   0.472560 0.623974 0.916396 -0.254927
C20   C     C_3   0.587303 0.478615 0.083402 -0.294502
C21   C     C_3   0.447363 0.400748 0.082598 -0.196104
C22   C     C_3   0.586595 0.478677 0.915962 -0.206150
C23   C     C_R   0.498710 0.740084 0.499989 0.819306
C24   C     C_3   0.444224 0.406003 0.915628 -0.198217
C25   C     C_R   0.660146 0.499949 0.500072 0.843417
C26   C     C_3   0.971536 0.396238 0.566786 -0.293026
C27   C     C_3   0.027600 0.403251 0.433837 0.441125
C28   C     C_1   0.250265 0.500628 0.500059 -0.136936
C29   C     C_1   0.749800 0.499981 0.500245 -0.195878
C30   C     C_3   0.027044 0.498076 0.635638 -0.010426
Cu1   Cu    Cu3+1 0.500040 0.499860 0.642410 0.921667
Cu2   Cu    Cu3+1 0.499960 0.500140 0.357590 0.938599
H1    H     H_    0.449230 0.100503 0.716386 0.141203
H2    H     H_    0.436085 0.891678 0.710803 0.102245
H3    H     H_    0.523490 0.103919 0.271215 0.141182
H4    H     H_    0.528254 0.896204 0.273179 0.135091
H5    H     H_    0.418045 0.885536 0.307421 0.263602
H6    H     H_    0.367125 0.112829 0.588630 0.188611
H7    H     H_    0.517523 0.696024 0.118747 0.107529
H8    H     H_    0.948187 0.309861 0.618002 0.148703
H9    H     H_    0.409119 0.647400 0.873779 0.164411
H10   H     H_    0.515110 0.699840 0.880331 0.146983
H11   H     H_    0.631406 0.552111 0.120953 0.149079
H12   H     H_    0.631544 0.550753 0.878085 0.167475
H13   H     H_    0.471616 0.307934 0.114875 0.164162
H14   H     H_    0.382657 0.406337 0.126602 0.172330
H15   H     H_    0.378283 0.423346 0.880909 0.172346
H16   H     H_    0.461784 0.313075 0.873351 0.162863
H17   H     H_    0.612858 0.388492 0.122616 0.164191
H18   H     H_    0.948458 0.504881 0.255513 0.140327
H19   H     H_    0.610227 0.387553 0.876326 0.154380
H20   H     H_    0.051541 0.691111 0.386302 0.169010
H21   H     H_    0.946179 0.683944 0.630861 0.150799
H22   H     H_    0.602216 0.112690 0.647032 0.190602
H23   H     H_    0.631891 0.107390 0.464509 0.145202
H24   H     H_    0.632099 0.897100 0.466539 0.139410
N1    N     N_3   0.501840 0.500250 0.143650 -0.144792
N2    N     N_3   0.501160 0.503300 0.856280 -0.140133
O1    O     O_R   0.500050 0.317570 0.620260 -0.592811
O2    O     O_R   0.499980 0.317810 0.379740 -0.608671
O3    O     O_R   0.379110 0.499870 0.620240 -0.586477
O4    O     O_R   0.379040 0.500110 0.379720 -0.544119
O5    O     O_R   0.500020 0.682190 0.620260 -0.576406
O6    O     O_R   0.499950 0.682430 0.379740 -0.570860
O7    O     O_R   0.620960 0.499890 0.620280 -0.576309
O8    O     O_R   0.620890 0.500130 0.379760 -0.594936
O9    O     O_3   0.059319 0.299901 0.361241 -0.712364
H25   H     H_    0.009102 0.253189 0.328329 0.320082
O10   O     O_3   0.610554 0.884226 0.678477 -0.732071
H26   H     H_    0.575213 0.923603 0.752678 0.318341
C31   C     C_2   0.390269 0.115384 0.289224 0.431233
H27   H     H_    0.347644 0.169407 0.354714 0.079738
O11   O     O_2   0.369808 0.091892 0.167167 -0.554037
O12   O     O_3   0.346096 0.891036 0.553434 -0.712666
H28   H     H_    0.337548 0.803788 0.584928 0.320385
O13   O     O_3   0.393619 0.656304 0.140056 -0.700269
H29   H     H_    0.349385 0.608395 0.089620 0.322912
C32   C     C_2   0.055302 0.495430 0.787258 0.377045
H30   H     H_    0.008733 0.493182 0.871334 0.061759
O14   O     O_2   0.130117 0.495774 0.817114 -0.535325

loop_
_geom_bond_atom_site_label_1
_geom_bond_atom_site_label_2
_ccdc_geom_bond_type
C11   H6    S    
Cu1   O3    S    
C2    C7    S    
C4    C8    S    
C26   C27   S    
C12   C28   S    
C16   O12   S    
C8    C29   T    
Cu1   N2    S    
C13   H3    S    
C10   C15   S    
C1    O1    A    
C5    C6    S    
C11   C14   S    
C32   O14   D    
C15   C16   S    
Cu1   O7    S    
C18   C19   S    
Cu1   O1    S    
C16   H2    S    
C22   H12   S    
Cu1   Cu2   S    
C5    H20   S    
C2    C27   S    
C9    H23   S    
C17   H4    S    
C10   H24   S    
C9    C10   S    
C19   H10   S    
C15   C23   S    
C13   C14   S    
Cu2   N1    S    
C21   H13   S    
C19   N2    S    
C25   C29   S    
O12   H28   S    
O9    H25   S    
C24   H16   S    
Cu1   O5    S    
C11   H1    S    
C25   O7    A    
O13   H29   S    
Cu2   O6    S    
C4    C6    S    
C1    O2    A    
C31   O11   D    
C9    C14   S    
C32   H30   S    
C13   C31   S    
C7    C28   T    
C3    C30   S    
C18   H7    S    
C21   N1    S    
C20   H17   S    
C12   O4    A    
C11   C16   S    
C18   N1    S    
C6    C27   S    
C17   H5    S    
C6    H18   S    
C23   O6    A    
C20   C22   S    
C26   C30   S    
C2    C5    S    
Cu2   O2    S    
C3    C4    S    
C20   H11   S    
Cu2   O8    S    
C21   H14   S    
C15   C17   S    
C18   O13   S    
C24   H15   S    
C25   O8    A    
C3    C5    S    
C22   N2    S    
C4    C26   S    
C9    H22   S    
C13   C17   S    
C2    C30   S    
Cu2   O4    S    
C31   H27   S    
C12   O3    A    
C3    H21   S    
C26   H8    S    
C23   O5    A    
O10   H26   S    
C27   O9    S    
C30   C32   S    
C10   O10   S    
C24   N2    S    
C21   C24   S    
C1    C14   S    
C20   N1    S    
C19   H9    S    
C22   H19   S    
