data_mof_unit_32199.cif
_audit_creation_date              2012-12-10T18:49:45-0500
_audit_creation_method            fapswitch 2.2
_symmetry_space_group_name_H-M    P1
_symmetry_Int_Tables_number       1
_space_group_crystal_system       triclinic
_cell_length_a                    19.530241
_cell_length_b                    18.093925
_cell_length_c                    10.619368
_cell_angle_alpha                 89.616796
_cell_angle_beta                  90.361848
_cell_angle_gamma                 89.975231
_cell_volume                      3752.49943881

loop_
_atom_site_label
_atom_site_type_symbol
_atom_type_description
_atom_site_fract_x
_atom_site_fract_y
_atom_site_fract_z
_atom_type_partial_charge
C1    C     C_R   0.367237 0.500030 0.498469 0.835224
C2    C     C_R   0.632649 0.499885 0.497420 0.806258
C3    C     C_R   0.963209 0.552764 0.552178 -0.182128
C4    C     C_R   0.035451 0.449619 0.409839 -0.185263
C5    C     C_R   0.034450 0.552428 0.555307 -0.185524
C6    C     C_R   0.964167 0.449626 0.407510 -0.186347
C7    C     C_R   0.071173 0.500826 0.484216 0.159388
C8    C     C_R   0.927678 0.501181 0.478709 0.153311
C9    C     C_R   0.470411 0.721377 0.596288 0.076088
C10   C     C_R   0.526022 0.278479 0.601095 0.075976
C11   C     C_R   0.529496 0.721102 0.402575 0.096549
C12   C     C_R   0.475136 0.278715 0.398609 0.053310
C13   C     C_R   0.469438 0.798971 0.596225 -0.290263
C14   C     C_R   0.528013 0.200878 0.602496 -0.265427
C15   C     C_R   0.530418 0.798657 0.399924 -0.290480
C16   C     C_R   0.475751 0.201086 0.396619 -0.281907
C17   C     C_R   0.499745 0.838476 0.497258 0.241538
C18   C     C_R   0.502202 0.161122 0.499641 0.219151
C19   C     C_R   0.562291 0.959732 0.514002 0.301072
C20   C     C_R   0.439092 0.039170 0.492220 0.323456
C21   C     C_R   0.438952 0.961427 0.481270 0.319107
C22   C     C_R   0.563548 0.037747 0.508630 0.318587
C23   C     C_R   0.501676 0.078286 0.500430 -0.247280
C24   C     C_R   0.500306 0.921056 0.496690 -0.238252
C25   C     C_R   0.499229 0.500355 0.259331 0.870907
C26   C     C_R   0.500267 0.499851 0.740771 0.852218
C27   C     C_3   0.495156 0.570206 0.038464 0.459124
C28   C     C_3   0.504033 0.431172 0.962407 0.421293
C29   C     C_3   0.553403 0.538700 0.959448 0.385283
C30   C     C_3   0.445663 0.462915 0.040742 0.405781
C31   C     C_3   0.440115 0.532429 0.955919 -0.462252
C32   C     C_3   0.558974 0.469299 0.045187 -0.497034
C33   C     C_3   0.499512 0.500066 0.876891 -0.215153
C34   C     C_3   0.499481 0.501229 0.123369 -0.175194
C35   C     C_R   0.746285 0.433132 0.508731 0.410774
C36   C     C_R   0.254313 0.567765 0.493535 0.395423
C37   C     C_R   0.254078 0.432818 0.490713 0.382815
C38   C     C_R   0.744436 0.565550 0.461806 0.392134
C39   C     C_R   0.817470 0.434008 0.497364 -0.259410
C40   C     C_R   0.182796 0.566993 0.485975 -0.267530
C41   C     C_R   0.182532 0.433792 0.492032 -0.264937
C42   C     C_R   0.815899 0.565825 0.461746 -0.258987
C43   C     C_R   0.852546 0.500312 0.478859 -0.033236
C44   C     C_R   0.146585 0.500493 0.487786 -0.021407
C45   C     C_R   0.708437 0.499536 0.490373 -0.250954
C46   C     C_R   0.291199 0.500177 0.494659 -0.233108
Cu1   Cu    Cu3+1 0.500000 0.573360 0.500000 0.981590
Cu2   Cu    Cu3+1 0.500000 0.426640 0.500000 0.971935
H1    H     H_    0.392845 0.557671 0.916170 0.147475
H2    H     H_    0.606089 0.444178 0.085795 0.155091
H3    H     H_    0.845671 0.382721 0.507508 0.154883
H4    H     H_    0.155628 0.619066 0.478135 0.153236
H5    H     H_    0.155195 0.381724 0.495179 0.156405
H6    H     H_    0.842683 0.617208 0.443570 0.157996
H7    H     H_    0.935776 0.592331 0.609020 0.131213
H8    H     H_    0.062633 0.410107 0.352536 0.127715
H9    H     H_    0.060808 0.591734 0.614857 0.126814
H10   H     H_    0.937481 0.409893 0.349258 0.134457
H11   H     H_    0.446857 0.691553 0.673138 0.113089
H12   H     H_    0.545376 0.308207 0.681543 0.151032
H13   H     H_    0.552523 0.690942 0.326352 0.157207
H14   H     H_    0.453964 0.308561 0.319061 0.133644
H15   H     H_    0.445388 0.828091 0.672809 0.150152
H16   H     H_    0.548595 0.172094 0.684085 0.144243
H17   H     H_    0.554312 0.827440 0.322034 0.136370
H18   H     H_    0.455638 0.172387 0.315242 0.151210
N1    N     N_R   0.500000 0.683620 0.500000 -0.164493
N2    N     N_R   0.500000 0.316380 0.500000 -0.163297
O1    O     O_R   0.400190 0.561980 0.499980 -0.549091
O2    O     O_R   0.599810 0.438020 0.500020 -0.556651
O3    O     O_R   0.599810 0.561980 0.500020 -0.550946
O4    O     O_R   0.400190 0.438020 0.499980 -0.547411
O5    O     O_R   0.499980 0.561940 0.316860 -0.568387
O6    O     O_R   0.500020 0.438060 0.683140 -0.573974
O7    O     O_R   0.500020 0.561940 0.683140 -0.594914
O8    O     O_R   0.499980 0.438060 0.316860 -0.602248
O9    O     O_3   0.493155 0.641732 0.090547 -0.603765
C47   C     C_3   0.479834 0.694607 0.995417 0.076453
H19   H     H_    0.427171 0.687244 0.956811 0.130894
H20   H     H_    0.517583 0.690325 0.917663 0.183629
C48   C     C_3   0.485267 0.771658 0.052851 -0.332462
H21   H     H_    0.446301 0.777682 0.127981 0.222776
H22   H     H_    0.536756 0.778661 0.096126 0.218609
C49   C     C_3   0.474515 0.832123 0.954009 -0.979896
H23   H     H_    0.513214 0.827184 0.878399 0.255031
H24   H     H_    0.480264 0.887114 0.998601 0.256783
H25   H     H_    0.422344 0.828139 0.912532 0.257539
O10   O     O_3   0.506090 0.358705 0.914266 -0.620906
C50   C     C_3   0.514229 0.306541 0.013011 0.066286
H26   H     H_    0.476455 0.261513 0.997958 0.145860
H27   H     H_    0.504227 0.328956 0.108773 0.160032
C51   C     C_3   0.586250 0.273790 0.008499 -0.350246
H28   H     H_    0.593094 0.244447 0.917805 0.209917
H29   H     H_    0.624599 0.318924 0.013789 0.220876
C52   C     C_3   0.598808 0.219992 0.117358 -0.945077
H30   H     H_    0.593298 0.248612 0.208970 0.267770
H31   H     H_    0.651669 0.197919 0.111301 0.264155
H32   H     H_    0.562058 0.173229 0.112833 0.246836
O11   O     O_3   0.605472 0.584623 0.910829 -0.613647
C53   C     C_3   0.666554 0.544198 0.897787 0.054399
H33   H     H_    0.657097 0.490680 0.849744 0.124268
H34   H     H_    0.689629 0.533818 0.992404 0.144955
C54   C     C_3   0.716557 0.589513 0.818756 -0.313433
H35   H     H_    0.694547 0.598464 0.723127 0.243685
H36   H     H_    0.724350 0.644329 0.862882 0.223427
C55   C     C_3   0.785676 0.550887 0.807770 -0.939279
H37   H     H_    0.809253 0.543170 0.902402 0.254706
H38   H     H_    0.820504 0.585113 0.749301 0.262288
H39   H     H_    0.779437 0.496249 0.762489 0.255688
O12   O     O_3   0.391102 0.422053 0.092928 -0.639267
C56   C     C_3   0.346911 0.396164 0.996801 0.065364
H40   H     H_    0.337053 0.336589 0.014895 0.152652
H41   H     H_    0.368570 0.400057 0.899872 0.165878
C57   C     C_3   0.278841 0.437823 0.001789 -0.359492
H42   H     H_    0.254191 0.427441 0.094314 0.215748
H43   H     H_    0.288209 0.498135 0.992332 0.221190
C58   C     C_3   0.230502 0.413432 0.896484 -0.908345
H44   H     H_    0.253434 0.425386 0.803024 0.264931
H45   H     H_    0.181403 0.444050 0.903420 0.255405
H46   H     H_    0.219811 0.353297 0.904553 0.256815
O13   O     O_3   0.714561 0.365592 0.527768 -0.592232
C59   C     C_3   0.705640 0.352651 0.658307 0.104504
H47   H     H_    0.664416 0.311024 0.668162 0.165253
H48   H     H_    0.687962 0.402756 0.708690 0.105975
C60   C     C_3   0.770488 0.320720 0.720492 -0.393705
H49   H     H_    0.788961 0.272815 0.665207 0.234268
H50   H     H_    0.811379 0.363229 0.723173 0.210613
C61   C     C_3   0.756727 0.295702 0.855420 -0.916887
H51   H     H_    0.738224 0.342941 0.912216 0.247889
H52   H     H_    0.804778 0.274333 0.898640 0.261883
H53   H     H_    0.717983 0.250820 0.856580 0.257542
O14   O     O_3   0.287620 0.635121 0.487330 -0.581617
C62   C     C_3   0.281638 0.671980 0.603874 0.050247
H54   H     H_    0.323597 0.653050 0.667637 0.142498
H55   H     H_    0.231841 0.661824 0.652071 0.118889
C63   C     C_3   0.287908 0.755137 0.580834 -0.298551
H56   H     H_    0.335223 0.766861 0.527075 0.245831
H57   H     H_    0.243596 0.774480 0.523255 0.211608
C64   C     C_3   0.289710 0.797690 0.704376 -0.931040
H58   H     H_    0.241197 0.789385 0.756604 0.253240
H59   H     H_    0.296030 0.857574 0.684333 0.276149
H60   H     H_    0.333283 0.778705 0.763963 0.239257
O15   O     O_3   0.286812 0.365073 0.491651 -0.591177
C65   C     C_3   0.287197 0.336497 0.367860 0.061055
H61   H     H_    0.331353 0.360357 0.315947 0.189768
H62   H     H_    0.239365 0.349072 0.313580 0.117081
C66   C     C_3   0.294481 0.252525 0.374987 -0.310173
H63   H     H_    0.338625 0.237916 0.436371 0.244842
H64   H     H_    0.247642 0.228478 0.417772 0.211091
C67   C     C_3   0.304926 0.219169 0.244862 -0.932151
H65   H     H_    0.260472 0.231993 0.182704 0.252534
H66   H     H_    0.309973 0.158216 0.253707 0.272998
H67   H     H_    0.352270 0.241405 0.201337 0.241614
O16   O     O_3   0.710727 0.630779 0.433375 -0.594225
C68   C     C_3   0.704000 0.637463 0.300861 0.061440
H68   H     H_    0.654636 0.612126 0.271157 0.160421
H69   H     H_    0.746107 0.609958 0.247775 0.123115
C69   C     C_3   0.704463 0.719292 0.264398 -0.336716
H70   H     H_    0.665010 0.749324 0.318524 0.225611
H71   H     H_    0.755140 0.743454 0.288622 0.219160
C70   C     C_3   0.690893 0.730005 0.123795 -0.932675
H72   H     H_    0.733170 0.705416 0.068616 0.259138
H73   H     H_    0.687829 0.789953 0.101488 0.258185
H74   H     H_    0.641831 0.703504 0.096082 0.287761
O17   O     O_3   0.622792 0.920967 0.529564 -0.595474
C71   C     C_3   0.632166 0.904881 0.658891 0.090284
H75   H     H_    0.584127 0.884884 0.704093 0.127045
H76   H     H_    0.650060 0.955355 0.708612 0.162601
C72   C     C_3   0.686198 0.844254 0.672935 -0.314998
H77   H     H_    0.670130 0.795106 0.617769 0.243602
H78   H     H_    0.735728 0.864514 0.634999 0.219261
C73   C     C_3   0.695938 0.821394 0.810491 -0.939592
H79   H     H_    0.710652 0.869870 0.868292 0.255649
H80   H     H_    0.737247 0.779412 0.817790 0.258981
H81   H     H_    0.647937 0.797019 0.848021 0.267850
O18   O     O_3   0.377319 0.076728 0.488132 -0.600681
C74   C     C_3   0.357509 0.096012 0.611789 0.081869
H82   H     H_    0.322518 0.144224 0.603932 0.160232
H83   H     H_    0.401317 0.114021 0.672104 0.125945
C75   C     C_3   0.318895 0.032371 0.675712 -0.319728
H84   H     H_    0.276851 0.013225 0.612892 0.241669
H85   H     H_    0.354465 0.985488 0.693477 0.223818
C76   C     C_3   0.288787 0.056180 0.801282 -0.960326
H86   H     H_    0.330208 0.073843 0.866646 0.258424
H87   H     H_    0.261055 0.008951 0.844517 0.263155
H88   H     H_    0.252156 0.102503 0.786955 0.260720
O19   O     O_3   0.377330 0.924918 0.464419 -0.600551
C77   C     C_3   0.369274 0.905261 0.336268 0.080204
H89   H     H_    0.337619 0.854307 0.333258 0.160598
H90   H     H_    0.418470 0.891498 0.288839 0.121521
C78   C     C_3   0.331846 0.966527 0.263060 -0.317903
H91   H     H_    0.283679 0.980909 0.312461 0.237873
H92   H     H_    0.364642 0.016591 0.258350 0.226754
C79   C     C_3   0.314742 0.942537 0.129056 -0.957923
H93   H     H_    0.362361 0.929934 0.076834 0.265334
H94   H     H_    0.287268 0.987937 0.079319 0.262817
H95   H     H_    0.281356 0.892857 0.130286 0.262566
O20   O     O_3   0.625718 0.074037 0.517964 -0.590525
C80   C     C_3   0.647989 0.095794 0.396491 0.090575
H96   H     H_    0.674630 0.149727 0.406141 0.175032
H97   H     H_    0.605413 0.104994 0.327407 0.124570
C81   C     C_3   0.698635 0.039079 0.344724 -0.316047
H98   H     H_    0.741128 0.030800 0.413515 0.234701
H99   H     H_    0.672274 0.985396 0.330607 0.241895
C82   C     C_3   0.728170 0.064176 0.218884 -0.962184
H100  H     H_    0.686805 0.068575 0.146986 0.258494
H101  H     H_    0.766239 0.023024 0.186338 0.262916
H102  H     H_    0.754038 0.118514 0.228758 0.262598

loop_
_geom_bond_atom_site_label_1
_geom_bond_atom_site_label_2
_ccdc_geom_bond_type
C79   H94   S    
O17   C71   S    
C27   C29   S    
C72   H77   S    
C14   C18   A    
C39   H3    S    
C52   H30   S    
C49   H25   S    
C66   H63   S    
C21   O19   S    
C61   H51   S    
C48   C49   S    
C9    N1    A    
C48   H21   S    
C52   H32   S    
C20   O18   S    
C82   H100  S    
C73   H79   S    
C12   N2    A    
C81   H99   S    
C30   O12   S    
C77   C78   S    
C66   H64   S    
Cu2   O4    S    
C38   C42   A    
C29   C32   S    
C58   H45   S    
C30   C31   S    
C64   H60   S    
C47   H20   S    
C1    C46   S    
C79   H95   S    
C68   H69   S    
C55   H37   S    
O15   C65   S    
C15   H17   S    
C29   C33   S    
C77   H90   S    
C9    C13   A    
O12   C56   S    
Cu1   O1    S    
C38   C45   A    
C69   C70   S    
C48   H22   S    
C3    H7    S    
C69   H71   S    
C12   C16   A    
C73   H80   S    
O14   C62   S    
C74   H83   S    
C67   H67   S    
C28   O10   S    
C62   C63   S    
C8    C43   S    
C36   C46   A    
O20   C80   S    
C50   H27   S    
C37   C46   A    
C75   C76   S    
C25   C34   S    
O10   C50   S    
C79   H93   S    
C14   H16   S    
C80   H96   S    
C2    C45   S    
C4    H8    S    
C68   C69   S    
C71   H76   S    
C72   H78   S    
C56   C57   S    
C11   C15   A    
C31   H1    S    
C65   C66   S    
Cu1   N1    S    
C70   H73   S    
C11   N1    A    
C70   H72   S    
C82   H101  S    
C27   C34   S    
C1    O4    A    
C81   H98   S    
C30   C34   S    
C27   C31   S    
C18   C23   S    
C17   C24   S    
Cu2   O6    S    
C28   C32   S    
C19   C22   A    
C49   H23   S    
Cu1   O5    S    
C65   H62   S    
C3    C8    A    
C10   C14   A    
C58   H46   S    
C5    C7    A    
C29   O11   S    
C47   H19   S    
C63   H56   S    
C6    C8    A    
C4    C7    A    
O9    C47   S    
C81   C82   S    
C51   C52   S    
C1    O1    A    
C78   H91   S    
C54   H36   S    
C77   H89   S    
C9    H11   S    
C63   C64   S    
C69   H70   S    
C10   H12   S    
C76   H86   S    
C78   H92   S    
C11   H13   S    
C80   C81   S    
C62   H54   S    
C12   H14   S    
C26   C33   S    
C57   H43   S    
Cu1   Cu2   S    
C13   H15   S    
C20   C23   A    
C35   O13   S    
C74   C75   S    
Cu1   O3    S    
C66   C67   S    
C53   H34   S    
C26   O7    A    
O16   C68   S    
C56   H41   S    
C16   C18   A    
C7    C44   S    
Cu2   N2    S    
C50   C51   S    
C41   H5    S    
O13   C59   S    
C36   O14   S    
C63   H57   S    
O18   C74   S    
C28   C33   S    
C71   H75   S    
C41   C44   A    
C67   H66   S    
C36   C40   A    
C76   H88   S    
C4    C6    A    
C16   H18   S    
C42   C43   A    
C38   O16   S    
C59   H48   S    
C2    O3    A    
C35   C45   A    
C61   H53   S    
C3    C5    A    
C54   H35   S    
C70   H74   S    
C75   H84   S    
C80   H97   S    
C82   H102  S    
C15   C17   A    
C52   H31   S    
C31   C33   S    
C37   O15   S    
C56   H40   S    
C13   C17   A    
C22   O20   S    
Cu2   O2    S    
C65   H61   S    
C27   O9    S    
C61   H52   S    
C39   C43   A    
C64   H58   S    
C73   H81   S    
C57   H42   S    
C10   N2    A    
C67   H65   S    
O11   C53   S    
C5    H9    S    
C25   O8    A    
C59   C60   S    
C76   H87   S    
C19   C24   A    
C59   H47   S    
C78   C79   S    
Cu1   O7    S    
O19   C77   S    
C40   H4    S    
C58   H44   S    
C42   H6    S    
C75   H85   S    
C64   H59   S    
C47   C48   S    
C51   H29   S    
C60   H49   S    
C55   H38   S    
C60   C61   S    
C35   C39   A    
C28   C30   S    
C51   H28   S    
C72   C73   S    
C32   H2    S    
C54   C55   S    
C25   O5    A    
C6    H10   S    
C53   C54   S    
C37   C41   A    
C57   C58   S    
Cu2   O8    S    
C40   C44   A    
C20   C21   A    
C71   C72   S    
C26   O6    A    
C74   H82   S    
C21   C24   A    
C68   H68   S    
C60   H50   S    
C62   H55   S    
C22   C23   A    
C49   H24   S    
C53   H33   S    
C19   O17   S    
C50   H26   S    
C2    O2    A    
C32   C34   S    
C55   H39   S    
