data_mof_unit_8275.cif
_audit_creation_date              2012-12-11T16:33:31-0500
_audit_creation_method            fapswitch 2.2
_symmetry_space_group_name_H-M    P1
_symmetry_Int_Tables_number       1
_space_group_crystal_system       triclinic
_cell_length_a                    6.962341
_cell_length_b                    18.280556
_cell_length_c                    20.130193
_cell_angle_alpha                 68.386693
_cell_angle_beta                  90.496534
_cell_angle_gamma                 89.91552
_cell_volume                      2381.82286143

loop_
_atom_site_label
_atom_site_type_symbol
_atom_type_description
_atom_site_fract_x
_atom_site_fract_y
_atom_site_fract_z
_atom_type_partial_charge
O1    O     O_R   0.488960 0.443750 0.941980 -0.525097
O2    O     O_R   0.823890 0.406510 0.087590 -0.543247
O3    O     O_R   0.999680 0.556250 0.058020 -0.545294
C1    C     C_R   0.656743 0.383879 0.115211 0.686604
O4    O     O_R   0.818360 0.434410 0.944340 -0.524604
O5    O     O_R   0.994110 0.584350 0.913750 -0.532286
C2    C     C_R   0.650161 0.420266 0.923867 0.743107
O6    O     O_R   0.494530 0.415650 0.086250 -0.537225
O7    O     O_3   0.662590 0.549160 0.990130 -0.371692
V1    V     V_3+5 0.935320 0.490880 0.001830 1.482583
O8    O     O_R   0.324180 0.593490 0.912410 -0.533996
C3    C     C_R   0.154386 0.614656 0.883714 0.742738
O9    O     O_R   0.329720 0.565590 0.055660 -0.533288
C4    C     C_R   0.161623 0.578162 0.077149 0.705645
V2    V     V_3+5 0.435990 0.509120 0.998170 1.484926
O10   O     O_3   0.158850 0.450840 0.009870 -0.357715
C5    C     C_3   0.028906 0.703110 0.314514 0.172543
C6    C     C_3   0.217800 0.673761 0.291709 0.172920
H1    H     H_    0.451559 0.768282 0.293136 0.175259
C7    C     C_1   0.154386 0.620285 0.125341 -0.156467
C8    C     C_1   0.110664 0.872900 0.379437 -0.156023
C9    C     C_3   0.955901 0.729156 0.236610 0.079564
C10   C     C_3   0.141128 0.699945 0.214036 -0.032961
C11   C     C_3   0.044212 0.810423 0.219285 0.154127
C12   C     C_3   0.119629 0.785528 0.296556 -0.008214
C13   C     C_3   0.231295 0.782237 0.195963 0.197750
C14   C     C_3   0.309207 0.756411 0.274294 -0.234370
C15   C     C_1   0.148605 0.655284 0.166006 0.074613
C16   C     C_1   0.113909 0.833588 0.342110 0.091190
C17   C     C_R   0.021472 0.765878 0.876606 -0.177550
C18   C     C_R   0.955602 0.838232 0.875759 -0.127027
C19   C     C_R   0.941131 0.902765 0.811411 0.254023
C20   C     C_R   0.995288 0.894253 0.748003 -0.155537
C21   C     C_R   0.062201 0.821264 0.747364 0.016707
C22   C     C_R   0.074256 0.755472 0.812778 0.062247
C23   C     C_R   0.122826 0.814149 0.683129 -0.126750
C24   C     C_R   0.195050 0.741015 0.684139 0.018959
C25   C     C_R   0.191283 0.672453 0.748238 -0.033539
C26   C     C_R   0.139105 0.681182 0.813710 -0.140615
C27   C     C_R   0.267475 0.735171 0.620927 -0.218650
C28   C     C_R   0.337018 0.664287 0.619367 0.168544
C29   C     C_R   0.319737 0.595552 0.680033 0.224280
C30   C     C_R   0.237968 0.598211 0.742898 0.096316
H2    H     H_    0.030711 0.718437 0.928171 0.114897
H3    H     H_    0.916279 0.843814 0.925625 0.140246
H4    H     H_    0.986007 0.945988 0.699470 0.127333
H5    H     H_    0.273250 0.785996 0.571791 0.123785
C31   C     C_R   0.525699 0.102789 0.254609 -0.181189
C32   C     C_R   0.484707 0.091429 0.191392 0.223632
C33   C     C_R   0.494972 0.153761 0.126054 -0.097283
C34   C     C_R   0.547715 0.228108 0.123607 -0.175445
C35   C     C_R   0.589963 0.241464 0.187061 0.065727
C36   C     C_R   0.576859 0.177724 0.254040 0.034528
C37   C     C_R   0.651425 0.316099 0.184417 -0.137296
C38   C     C_R   0.699376 0.326882 0.248665 0.048322
C39   C     C_R   0.655816 0.267257 0.315784 0.016236
C40   C     C_R   0.611356 0.189871 0.318826 -0.137001
C41   C     C_R   0.784608 0.397442 0.247439 -0.224178
C42   C     C_R   0.818348 0.410299 0.310389 -0.054753
C43   C     C_R   0.746280 0.358332 0.374626 0.248657
C44   C     C_R   0.651642 0.289388 0.376499 0.048051
H6    H     H_    0.515168 0.052225 0.303871 0.127516
H7    H     H_    0.463249 0.144562 0.076971 0.167243
H8    H     H_    0.557040 0.274596 0.071509 0.111387
H9    H     H_    0.828376 0.442980 0.198102 0.134281
H10   H     H_    0.888010 0.464054 0.308318 0.176837
O11   O     O_R   0.770540 0.084530 0.414050 -0.533974
O12   O     O_R   0.445710 0.065660 0.555720 -0.520899
O13   O     O_R   0.270420 0.915650 0.586190 -0.542436
C45   C     C_R   0.613729 0.077876 0.577992 0.743286
O14   O     O_R   0.441140 0.093540 0.412470 -0.526453
O15   O     O_R   0.265820 0.943740 0.441930 -0.541234
C46   C     C_R   0.609006 0.120575 0.387950 0.735786
O16   O     O_R   0.775150 0.056440 0.558310 -0.535516
O17   O     O_3   0.602370 0.950960 0.510050 -0.377856
V3    V     V_3+5 0.329450 0.009140 0.498150 1.494019
O18   O     O_R   0.935790 0.934280 0.444060 -0.536209
C47   C     C_R   0.104123 0.919956 0.423932 0.711680
O19   O     O_R   0.940370 0.906390 0.587310 -0.543041
C48   C     C_R   0.110278 0.883408 0.614739 0.678045
V4    V     V_3+5 0.828810 0.990710 0.501460 1.466647
O20   O     O_3   0.105780 0.049100 0.489960 -0.351478
C49   C     C_3   0.725148 0.317861 0.715631 -0.189352
C50   C     C_3   0.535743 0.289972 0.691840 -0.114211
H11   H     H_    0.451497 0.323495 0.642968 0.174487
H12   H     H_    0.798715 0.374486 0.687113 0.164780
H13   H     H_    0.316491 0.275376 0.785982 0.182987
C51   C     C_1   0.618738 0.123090 0.624015 -0.119533
C52   C     C_1   0.645827 0.374493 0.878346 -0.113717
C53   C     C_3   0.813013 0.234893 0.732372 0.172882
C54   C     C_3   0.624254 0.207650 0.709223 0.078725
C55   C     C_3   0.739044 0.208009 0.809904 0.170334
C56   C     C_3   0.649661 0.290223 0.792960 0.053017
C57   C     C_3   0.549935 0.179960 0.786404 -0.161951
C58   C     C_3   0.460999 0.262897 0.769646 -0.099560
C59   C     C_1   0.618702 0.161124 0.662393 0.071599
C60   C     C_1   0.648726 0.336527 0.839918 0.058965
H14   H     H_    0.476999 0.123225 0.815083 0.176744
I1    I     I_    0.359014 0.563923 0.347122 -0.284937
N1    N     N_3   0.875531 0.978037 0.809462 -0.620395
H15   H     H_    0.844395 0.975406 0.861016 0.258425
H16   H     H_    0.746177 0.990830 0.780613 0.220902
N2    N     N_3   0.416082 0.660503 0.554924 -0.621476
H17   H     H_    0.563572 0.650054 0.563508 0.245075
H18   H     H_    0.401253 0.714596 0.512505 0.240349
I2    I     I_    0.151310 0.485050 0.816556 -0.362848
N3    N     N_3   0.762523 0.378798 0.436636 -0.603558
H19   H     H_    0.625663 0.390705 0.451120 0.277982
H20   H     H_    0.820418 0.330639 0.478470 0.257738
I3    I     I_    0.405572 0.979356 0.196042 -0.374580
I4    I     I_    0.864467 0.642248 0.407669 -0.307464
I5    I     I_    0.428995 0.248598 0.452954 -0.386192
I6    I     I_    0.902079 0.143553 0.903733 -0.342409
I7    I     I_    0.074865 0.206105 0.693376 -0.417061
I8    I     I_    0.378306 0.839443 0.097197 -0.380326
N4    N     N_3   0.947814 0.884806 0.180007 -0.566543
H21   H     H_    0.899799 0.882595 0.131459 0.268045
H22   H     H_    0.825793 0.887702 0.208796 0.250735
N5    N     N_3   0.765350 0.713696 0.214821 -0.598350
H23   H     H_    0.674661 0.756401 0.220134 0.250016
H24   H     H_    0.769693 0.724499 0.160147 0.248572
N6    N     N_3   0.379283 0.521440 0.677420 -0.626797
H25   H     H_    0.304503 0.512223 0.635926 0.274387
H26   H     H_    0.525987 0.524181 0.666153 0.240113

loop_
_geom_bond_atom_site_label_1
_geom_bond_atom_site_label_2
_ccdc_geom_bond_type
C27   H5    S    
C38   C39   A    
C51   C59   T    
C33   H7    S    
C28   C29   A    
C22   C26   A    
O15   V3    S    
C45   C51   S    
V4    O20   S    
O18   C47   A    
C39   C40   A    
C13   C14   S    
C17   C22   A    
C23   C24   A    
C11   C13   S    
C24   C27   A    
C42   H10   S    
O5    C3    A    
C17   C18   A    
C57   H14   S    
V2    O10   S    
C49   C56   S    
N4    H21   S    
O13   V3    S    
C21   C22   A    
C10   C13   S    
C40   C46   S    
C13   I8    S    
N1    H15   S    
O15   C47   A    
C54   C59   S    
C53   C55   S    
C49   C50   S    
N4    H22   S    
H13   C58   S    
C8    C47   S    
C45   O16   A    
N3    H19   S    
O11   C46   A    
C50   C54   S    
H1    C14   S    
C55   I6    S    
C1    O6    A    
C42   C43   A    
C56   C58   S    
O9    C4    A    
C20   H4    S    
N3    H20   S    
C17   H2    S    
C9    N5    S    
O8    V2    S    
C5    I4    S    
N1    H16   S    
C35   C37   A    
C33   C34   A    
N5    H24   S    
C12   C16   S    
C31   C36   A    
C34   H8    S    
C34   C35   A    
C4    C7    S    
C50   H11   S    
C23   C48   S    
V3    O20   S    
O19   V4    S    
C36   C40   A    
O17   V4    S    
C7    C15   T    
C41   C42   A    
C8    C16   T    
C19   N1    S    
C52   C60   T    
C43   C44   A    
C30   I2    S    
O2    C1    A    
O17   V3    S    
C24   C25   A    
C41   H9    S    
C31   H6    S    
C18   C19   A    
O18   V4    S    
N5    H23   S    
C55   C57   S    
C5    C6    S    
N2    H18   S    
C10   C15   S    
C11   C12   S    
C43   N3    S    
O3    C4    A    
O1    V2    S    
C31   C32   A    
C11   N4    S    
O6    V2    S    
O9    V2    S    
C18   H3    S    
C9    C11   S    
O12   V3    S    
C29   C30   A    
O16   V4    S    
N6    H26   S    
O2    V1    S    
C56   C60   S    
O14   V3    S    
C35   C36   A    
C29   N6    S    
O4    C2    A    
O7    V1    S    
C49   C53   S    
C37   C38   A    
C27   C28   A    
C1    C37   S    
O1    C2    A    
C9    C10   S    
C6    C14   S    
O5    V1    S    
O8    C3    A    
O11   V4    S    
C12   C14   S    
C5    C9    S    
C5    C12   S    
C19   C20   A    
C3    C26   S    
O7    V2    S    
O4    V1    S    
O3    V1    S    
V1    O10   S    
C54   C57   S    
C53   C54   S    
C25   C26   A    
C6    C10   S    
C55   C56   S    
C20   C21   A    
C21   C23   A    
C53   I7    S    
C57   C58   S    
O19   C48   A    
C28   N2    S    
C25   C30   A    
C49   H12   S    
O12   C45   A    
C32   C33   A    
C6    I1    S    
C38   C41   A    
O14   C46   A    
N2    H17   S    
C39   C44   A    
O13   C48   A    
N6    H25   S    
C44   I5    S    
C50   C58   S    
C32   I3    S    
C2    C52   S    
