data_mof_unit_22910.cif
_audit_creation_date              2012-12-10T16:54:05-0500
_audit_creation_method            fapswitch 2.2
_symmetry_space_group_name_H-M    P1
_symmetry_Int_Tables_number       1
_space_group_crystal_system       triclinic
_cell_length_a                    9.680888
_cell_length_b                    10.927376
_cell_length_c                    13.509201
_cell_angle_alpha                 90.111043
_cell_angle_beta                  73.801957
_cell_angle_gamma                 90.033972
_cell_volume                      1372.36082544

loop_
_atom_site_label
_atom_site_type_symbol
_atom_type_description
_atom_site_fract_x
_atom_site_fract_y
_atom_site_fract_z
_atom_type_partial_charge
C1    C     C_R   0.501222 0.734560 0.496963 0.830329
C2    C     C_R   0.446520 0.477693 0.975355 0.084872
C3    C     C_R   0.480793 0.453725 0.868256 0.084293
C4    C     C_R   0.547589 0.447786 0.029635 0.041128
C5    C     C_R   0.690899 0.425266 0.973795 0.112299
C6    C     C_R   0.721838 0.391804 0.870350 -0.223699
C7    C     C_R   0.613767 0.395699 0.820708 -0.200394
C8    C     C_R   0.511386 0.439776 0.137533 0.005057
C9    C     C_R   0.766285 0.472675 0.126404 0.062658
C10   C     C_R   0.384229 0.493556 0.812278 -0.093822
C11   C     C_2   0.612874 0.066722 0.492900 -0.294780
C12   C     C_R   0.424711 0.493971 0.699278 0.797246
C13   C     C_2   0.492072 0.133854 0.513992 0.456824
C14   C     C_2   0.611259 0.933330 0.501974 -0.128380
C15   C     C_2   0.503812 0.866051 0.486266 -0.253591
C16   C     C_2   0.052709 0.563580 0.564874 -0.055675
C17   C     C_2   0.898140 0.567751 0.561846 -0.076841
C18   C     C_R   0.498766 0.265362 0.502704 0.733044
C19   C     C_R   0.576242 0.492268 0.300241 0.781306
C20   C     C_R   0.799779 0.437484 0.022340 -0.233775
C21   C     C_R   0.619034 0.469876 0.187181 -0.111305
C22   C     C_R   0.255864 0.552742 0.864014 -0.184171
C23   C     C_R   0.226717 0.580418 0.967865 -0.170393
C24   C     C_R   0.320580 0.543736 0.023284 -0.205404
Cu1   Cu    Cu3+1 0.361370 0.499980 0.499980 0.957944
Cu2   Cu    Cu3+1 0.638630 0.500020 0.500020 0.923223
H1    H     H_    0.703139 0.889983 0.518767 0.165184
H2    H     H_    0.416611 0.906803 0.461956 0.206688
H3    H     H_    0.081222 0.617432 0.623787 0.153741
H4    H     H_    0.128312 0.454724 0.442234 0.182421
H5    H     H_    0.826051 0.629446 0.615015 0.162198
H6    H     H_    0.912052 0.438909 0.453655 0.187000
H7    H     H_    0.828769 0.361667 0.828242 0.155004
H8    H     H_    0.911066 0.428262 0.977140 0.143667
H9    H     H_    0.182693 0.586277 0.822454 0.150067
H10   H     H_    0.298049 0.572547 0.102671 0.134981
H11   H     H_    0.133712 0.635257 0.004326 0.150630
H12   H     H_    0.639454 0.357851 0.743942 0.181921
H13   H     H_    0.717621 0.110770 0.470034 0.134796
N1    N     N_2   0.152660 0.501340 0.501130 -0.280495
N2    N     N_2   0.846520 0.501370 0.501160 -0.292583
O1    O     O_R   0.382960 0.678040 0.499980 -0.568846
O2    O     O_R   0.617100 0.678080 0.500020 -0.570794
O3    O     O_R   0.325800 0.499940 0.650950 -0.572444
O4    O     O_R   0.559930 0.499980 0.650990 -0.582143
O5    O     O_R   0.382900 0.321920 0.499980 -0.530782
O6    O     O_R   0.617040 0.321960 0.500020 -0.618729
O7    O     O_R   0.440070 0.500020 0.349010 -0.581504
O8    O     O_R   0.674200 0.500060 0.349050 -0.578373
C25   C     C_3   0.890246 0.511382 0.167852 -0.377079
C26   C     C_3   0.884129 0.649861 0.190532 -0.309271
C27   C     C_3   0.987406 0.686643 0.252446 -0.830362
H14   H     H_    0.959324 0.638658 0.327687 0.269153
H15   H     H_    0.099539 0.664049 0.209521 0.235179
H16   H     H_    0.979900 0.786792 0.267010 0.239165
H17   H     H_    0.911637 0.701179 0.116702 0.197962
H18   H     H_    0.774192 0.678833 0.234352 0.223844
H19   H     H_    0.893662 0.455508 0.235498 0.213782
H20   H     H_    0.994514 0.490629 0.111139 0.177339
F1    F     F_    0.359476 0.083430 0.553221 -0.670055
C28   C     C_3   0.371317 0.373333 0.192362 -0.391018
C29   C     C_3   0.401141 0.251835 0.239906 -0.320514
C30   C     C_3   0.261647 0.188480 0.298031 -0.805496
H21   H     H_    0.199712 0.247277 0.362227 0.258393
H22   H     H_    0.194795 0.168460 0.245165 0.236122
H23   H     H_    0.287006 0.100943 0.330779 0.255000
H24   H     H_    0.462404 0.190130 0.177497 0.210768
H25   H     H_    0.467199 0.266475 0.293907 0.213213
H26   H     H_    0.296892 0.432916 0.249484 0.211373
H27   H     H_    0.310486 0.347989 0.136756 0.192906

loop_
_geom_bond_atom_site_label_1
_geom_bond_atom_site_label_2
_ccdc_geom_bond_type
Cu1   O1    S    
C28   H27   S    
C2    C4    A    
H6    N2    S    
C30   H22   S    
C29   C30   S    
C26   H18   S    
C14   H1    S    
C19   O8    A    
C9    C20   A    
C28   C29   S    
C14   C15   D    
C6    H7    S    
C29   H25   S    
C8    C28   S    
C23   C24   A    
C20   H8    S    
C18   O6    A    
C25   C26   S    
Cu1   Cu2   S    
C30   H23   S    
H4    N1    S    
C12   O3    A    
C3    C10   A    
C10   C22   A    
C11   H13   S    
C22   H9    S    
C11   C13   D    
Cu1   O7    S    
C9    C21   A    
C15   H2    S    
C24   H10   S    
C10   C12   S    
C29   H24   S    
C16   N1    D    
C1    C15   S    
C25   H20   S    
C18   O5    A    
Cu1   O3    S    
C19   C21   S    
C7    H12   S    
C27   H15   S    
Cu2   O2    S    
C8    C21   A    
C6    C7    A    
C3    C7    A    
Cu1   N1    S    
C2    C24   A    
C5    C6    A    
C17   H5    S    
C11   C14   S    
C17   N2    D    
C27   H16   S    
C30   H21   S    
C25   H19   S    
C1    O1    A    
C27   H14   S    
C13   C18   S    
C26   H17   S    
Cu2   O8    S    
C28   H26   S    
C4    C8    A    
C5    C20   A    
Cu2   O6    S    
C22   C23   A    
C16   C17   S    
C2    C3    A    
C19   O7    A    
Cu2   O4    S    
C12   O4    A    
C16   H3    S    
C23   H11   S    
Cu1   O5    S    
C1    O2    A    
C9    C25   S    
C26   C27   S    
Cu2   N2    S    
C13   F1    S    
C4    C5    A    
