data_mof_unit_15267.cif
_audit_creation_date              2012-12-11T16:13:15-0500
_audit_creation_method            fapswitch 2.2
_symmetry_space_group_name_H-M    P1
_symmetry_Int_Tables_number       1
_space_group_crystal_system       triclinic
_cell_length_a                    23.485478
_cell_length_b                    13.595516
_cell_length_c                    28.416418
_cell_angle_alpha                 89.950735
_cell_angle_beta                  90.514363
_cell_angle_gamma                 90.051016
_cell_volume                      9072.90996668

loop_
_atom_site_label
_atom_site_type_symbol
_atom_type_description
_atom_site_fract_x
_atom_site_fract_y
_atom_site_fract_z
_atom_type_partial_charge
C1    C     C_R   0.284905 0.004922 0.816229 0.541442
C2    C     C_3   0.519636 0.729710 0.970423 0.529755
C3    C     C_R   0.218456 0.996220 0.521912 0.021642
C4    C     C_R   0.298539 0.532916 0.526091 -0.046613
C5    C     C_R   0.717569 0.504287 0.471770 -0.060782
C6    C     C_R   0.797625 0.029145 0.526403 -0.048149
C7    C     C_R   0.218064 0.003743 0.472023 -0.062834
C8    C     C_R   0.252617 0.576339 0.550346 0.004164
C9    C     C_R   0.749148 0.580121 0.450096 -0.020902
C10   C     C_R   0.752397 0.075368 0.550394 0.005573
C11   C     C_R   0.247972 0.081864 0.450581 -0.021926
C12   C     C_R   0.248946 0.568770 0.452207 -0.020254
C13   C     C_3   0.018552 0.223693 0.027205 0.527407
C14   C     C_R   0.747907 0.568962 0.548311 -0.029165
C15   C     C_R   0.749439 0.068077 0.452216 -0.020674
C16   C     C_R   0.246478 0.069966 0.548769 -0.031079
C17   C     C_1   0.241131 0.557172 0.402449 0.012759
C18   C     C_1   0.756717 0.557957 0.598021 -0.003589
C19   C     C_1   0.741608 0.056782 0.402427 0.011983
C20   C     C_1   0.255711 0.058786 0.598414 -0.004937
C21   C     C_1   0.257878 0.599266 0.599463 -0.007964
C22   C     C_1   0.743360 0.600187 0.400683 -0.039282
C23   C     C_1   0.757770 0.098616 0.599508 -0.007744
C24   C     C_3   0.019634 0.229709 0.970425 0.529743
C25   C     C_1   0.242530 0.101444 0.401094 -0.039333
C26   C     C_1   0.231477 0.539665 0.361842 0.033095
C27   C     C_1   0.767599 0.540601 0.638472 0.026207
C28   C     C_1   0.731701 0.039573 0.361823 0.032468
C29   C     C_1   0.267120 0.041196 0.638739 0.026073
C30   C     C_R   0.284376 0.007190 0.683969 0.544568
C31   C     C_R   0.715467 0.006878 0.316159 0.544330
C32   C     C_R   0.784447 0.507079 0.683898 0.544126
C33   C     C_R   0.215431 0.506874 0.316165 0.544916
C34   C     C_R   0.446057 0.825408 0.684586 0.541321
C35   C     C_1   0.510622 0.832056 0.098426 0.012272
C36   C     C_R   0.554067 0.825254 0.315518 0.540210
C37   C     C_R   0.946090 0.325393 0.684603 0.541087
C38   C     C_R   0.054037 0.325247 0.315493 0.540289
C39   C     C_R   0.274081 0.673748 0.683184 0.546843
C40   C     C_R   0.726013 0.673477 0.316769 0.543361
C41   C     C_R   0.774091 0.173757 0.683154 0.546680
C42   C     C_R   0.225953 0.173597 0.316839 0.543823
C43   C     C_3   0.433063 0.840330 0.978073 -0.217057
C44   C     C_3   0.541863 0.906477 0.025588 -0.215607
C45   C     C_3   0.933062 0.340331 0.978073 -0.217071
C46   C     C_1   0.482965 0.834089 0.903618 0.013847
C47   C     C_3   0.041862 0.406476 0.025589 -0.215602
C48   C     C_3   0.530131 0.923709 0.972001 0.255894
C49   C     C_3   0.437271 0.857919 0.032436 0.262455
C50   C     C_3   0.030130 0.423708 0.972002 0.255887
C51   C     C_3   0.937269 0.357921 0.032437 0.262501
C52   C     C_1   0.526369 0.831038 0.138754 -0.004494
C53   C     C_1   0.469529 0.831219 0.862809 -0.003951
C54   C     C_1   0.026368 0.331038 0.138755 -0.004731
C55   C     C_1   0.969528 0.331219 0.862810 -0.003962
C56   C     C_3   0.407591 0.991086 0.083085 -0.065345
C57   C     C_1   0.010620 0.332057 0.098427 0.012295
C58   C     C_3   0.501047 0.067049 0.927188 -0.066981
C59   C     C_3   0.907592 0.491089 0.083085 -0.065529
C60   C     C_3   0.001048 0.567048 0.927188 -0.066950
C61   C     C_3   0.152027 0.751330 0.949677 -0.126306
C62   C     C_3   0.709939 0.832504 0.016756 -0.119430
C63   C     C_3   0.652028 0.251337 0.949679 -0.126320
C64   C     C_3   0.209933 0.332495 0.016767 -0.119439
C65   C     C_3   0.512113 0.612280 0.557890 -0.023949
C66   C     C_3   0.616820 0.702292 0.455504 -0.057873
C67   C     C_3   0.005134 0.111195 0.556447 -0.021296
C68   C     C_1   0.982964 0.334089 0.903619 0.013845
C69   C     C_3   0.113329 0.193478 0.455156 -0.056459
C70   C     C_3   0.498999 0.075381 0.446085 -0.120013
C71   C     C_3   0.391369 0.985111 0.544285 -0.099046
C72   C     C_3   0.011914 0.560063 0.431002 -0.106618
C73   C     C_3   0.896727 0.493408 0.546602 -0.094319
C74   C     C_3   0.107021 0.623555 0.537109 -0.074948
C75   C     C_3   0.866564 0.691480 0.449422 -0.103363
C76   C     C_3   0.607524 0.133333 0.534699 -0.094292
C77   C     C_3   0.363143 0.197913 0.450130 -0.111624
C78   C     C_2   0.342032 0.476420 0.449690 0.316787
C79   C     C_1   0.266913 0.635497 0.861400 0.008079
C80   C     C_2   0.690284 0.412048 0.545309 0.300478
C81   C     C_2   0.840583 0.970227 0.450147 0.315797
C82   C     C_2   0.192926 0.908867 0.545346 0.302550
C83   C     C_2   0.348431 0.496182 0.553831 0.186088
C84   C     C_2   0.683283 0.436313 0.441614 0.195137
C85   C     C_2   0.846330 0.988954 0.554502 0.185345
C86   C     C_2   0.185693 0.933458 0.441646 0.193428
C87   C     C_2   0.587866 0.933915 0.947501 0.280165
C88   C     C_2   0.390861 0.795766 0.055965 0.252165
C89   C     C_2   0.087866 0.433910 0.947502 0.280172
C90   C     C_1   0.735124 0.630755 0.140105 0.008002
C91   C     C_2   0.890858 0.295770 0.055966 0.252164
C92   C     C_3   0.503526 0.556816 0.953437 -0.088729
C93   C     C_3   0.595952 0.607600 0.038327 -0.082718
C94   C     C_3   0.003523 0.056815 0.953439 -0.088716
C95   C     C_3   0.095948 0.107598 0.038329 -0.082742
C96   C     C_3   0.586295 0.698041 0.907372 -0.109261
C97   C     C_3   0.482046 0.614252 0.087465 -0.102709
C98   C     C_3   0.086293 0.198038 0.907373 -0.109247
C99   C     C_3   0.982041 0.114253 0.087466 -0.102779
C100  C     C_1   0.766913 0.135498 0.861400 0.008089
C101  C     C_R   0.715376 0.005753 0.184086 0.549182
C102  C     C_1   0.235123 0.130756 0.140105 0.008130
C103  C     C_R   0.304924 0.572259 0.978763 -0.174123
C104  C     C_R   0.748858 0.497742 0.031307 -0.181672
C105  C     C_R   0.804925 0.072262 0.978764 -0.174123
C106  C     C_R   0.248852 0.997745 0.031306 -0.181673
C107  C     C_R   0.301094 0.563768 0.027647 -0.110707
C108  C     C_R   0.751988 0.484517 0.982722 -0.133649
C109  C     C_R   0.801095 0.063771 0.027648 -0.110731
C110  C     C_R   0.251981 0.984520 0.982721 -0.133653
C111  C     C_R   0.201799 0.612137 0.023389 -0.124773
C112  C     C_R   0.784905 0.504922 0.816229 0.541693
C113  C     C_R   0.751913 0.661260 0.971201 -0.089021
C114  C     C_R   0.701801 0.112142 0.023389 -0.124771
C115  C     C_R   0.251918 0.161263 0.971201 -0.089012
C116  C     C_R   0.205608 0.622512 0.974494 0.279988
C117  C     C_R   0.747779 0.675572 0.020175 0.307227
C118  C     C_R   0.705609 0.122518 0.974495 0.279983
C119  C     C_R   0.247785 0.175574 0.020174 0.307222
C120  C     C_R   0.257051 0.599889 0.952064 0.031561
C121  C     C_R   0.747217 0.592809 0.049997 0.039946
C122  C     C_R   0.757052 0.099893 0.952065 0.031561
C123  C     C_R   0.215376 0.505753 0.184086 0.549740
C124  C     C_R   0.247218 0.092811 0.049997 0.039938
C125  C     C_R   0.249462 0.583528 0.049935 -0.015914
C126  C     C_R   0.753240 0.566213 0.952700 -0.006315
C127  C     C_R   0.749463 0.083531 0.049936 -0.015920
C128  C     C_R   0.253239 0.066216 0.952699 -0.006319
C129  C     C_R   0.445794 0.824117 0.816749 0.541834
C130  C     C_R   0.553383 0.824147 0.183712 0.546786
C131  C     C_R   0.945793 0.324117 0.816749 0.541873
C132  C     C_R   0.053383 0.324147 0.183713 0.546743
C133  C     C_1   0.242701 0.563775 0.099125 -0.037212
C134  C     C_3   0.493117 0.832673 0.954739 0.040867
C135  C     C_1   0.760252 0.552051 0.903139 -0.064668
C136  C     C_1   0.742702 0.063777 0.099125 -0.037239
C137  C     C_1   0.260251 0.052053 0.903138 -0.064669
C138  C     C_1   0.262172 0.614444 0.902259 -0.007890
C139  C     C_1   0.741569 0.607440 0.099738 -0.020968
C140  C     C_1   0.762172 0.114447 0.902259 -0.007877
C141  C     C_1   0.241569 0.107443 0.099738 -0.020921
C142  C     C_1   0.232701 0.541245 0.139117 0.005696
C143  C     C_1   0.769268 0.535160 0.862395 -0.015883
C144  C     C_1   0.732701 0.041246 0.139117 0.005627
C145  C     C_3   0.500437 0.828862 0.047249 0.045021
C146  C     C_1   0.269267 0.035161 0.862395 -0.015843
C147  C     C_1   0.472279 0.834710 0.639713 0.011262
C148  C     C_1   0.529895 0.833696 0.361204 0.020425
C149  C     C_1   0.972525 0.334605 0.639803 0.010177
C150  C     C_1   0.030019 0.333711 0.361216 0.008627
C151  C     C_R   0.526701 0.765404 0.528550 0.228176
C152  C     C_R   0.532363 0.764039 0.479386 0.235724
C153  C     C_R   0.024971 0.263468 0.528302 0.226517
C154  C     C_R   0.030883 0.262794 0.479150 0.237224
C155  C     C_R   0.482874 0.921208 0.473554 0.235901
C156  C     C_3   0.993115 0.332672 0.954740 0.040862
C157  C     C_R   0.476630 0.922227 0.522833 0.228580
C158  C     C_R   0.986293 0.424687 0.474258 0.241175
C159  C     C_R   0.979699 0.424610 0.523365 0.238642
C160  C     C_R   0.499576 0.845202 0.550174 -0.033947
C161  C     C_R   0.508745 0.840149 0.451982 -0.029579
C162  C     C_R   0.000180 0.345027 0.550326 -0.041004
C163  C     C_R   0.009756 0.341613 0.452096 -0.038566
C164  C     C_1   0.516887 0.838354 0.401923 0.045374
C165  C     C_1   0.487830 0.841072 0.599673 0.033062
C166  C     C_1   0.017307 0.338862 0.401984 0.027125
C167  C     C_3   0.000435 0.328862 0.047250 0.045053
C168  C     C_1   0.988274 0.340842 0.599806 0.029168
C169  C     C_1   0.264110 0.627937 0.638998 0.014606
C170  C     C_1   0.736360 0.627695 0.360994 0.004338
C171  C     C_1   0.764066 0.127639 0.639003 0.014203
C172  C     C_1   0.235963 0.128441 0.361272 0.005051
C173  C     C_R   0.204397 0.611533 0.526287 0.268794
C174  C     C_R   0.780189 0.648086 0.477208 0.264853
C175  C     C_R   0.704974 0.112966 0.526069 0.272515
C176  C     C_R   0.277354 0.151615 0.477914 0.267251
C177  C     C_R   0.274659 0.674217 0.815197 0.541595
C178  C     C_3   0.518555 0.723694 0.027203 0.527395
C179  C     C_R   0.725723 0.673174 0.185279 0.545915
C180  C     C_R   0.774659 0.174217 0.815197 0.541718
C181  C     C_R   0.225723 0.173175 0.185279 0.546222
C182  C     C_R   0.203840 0.609915 0.477013 -0.144581
C183  C     C_R   0.777865 0.643946 0.526007 -0.138943
C184  C     C_R   0.704951 0.111683 0.476764 -0.146323
C185  C     C_R   0.274823 0.147068 0.526683 -0.136310
C186  C     C_R   0.296386 0.527796 0.476193 0.042918
C187  C     C_R   0.718008 0.497107 0.521665 0.024123
C188  C     C_R   0.795809 0.024223 0.476467 0.040256
Cr1   Cr    Cr6+3 0.250680 0.837130 0.748990 1.064062
Cr2   Cr    Cr6+3 0.623910 0.707720 0.250330 1.043604
Cr3   Cr    Cr6+3 0.876090 0.207720 0.749670 1.034951
Cr4   Cr    Cr6+3 0.123910 0.207720 0.250330 1.043508
Cr5   Cr    Cr6+3 0.749320 0.837130 0.251010 1.065344
Cr6   Cr    Cr6+3 0.750680 0.337130 0.748990 1.063443
Cr7   Cr    Cr6+3 0.249320 0.337130 0.251010 1.065760
Cr8   Cr    Cr6+3 0.378160 0.960100 0.750430 1.039797
Cr9   Cr    Cr6+3 0.621840 0.960100 0.249570 1.033647
Cr10  Cr    Cr6+3 0.878160 0.460100 0.750430 1.039361
Cr11  Cr    Cr6+3 0.121840 0.460100 0.249570 1.028495
Cr12  Cr    Cr6+3 0.376090 0.707720 0.749670 1.034466
H1    H     H_    0.167975 0.640373 0.457708 0.123541
H2    H     H_    0.408372 0.772629 0.969517 0.107084
H3    H     H_    0.563153 0.549928 0.034468 0.110204
H4    H     H_    0.621910 0.586786 0.069528 0.125099
H5    H     H_    0.624880 0.606629 0.007745 0.158673
H6    H     H_    0.050233 0.048904 0.955833 0.111737
H7    H     H_    0.989963 0.016979 0.921189 0.115766
H8    H     H_    0.982906 0.018873 0.983325 0.157513
H9    H     H_    0.063149 0.049927 0.034470 0.110204
H10   H     H_    0.121906 0.086784 0.069530 0.125076
H11   H     H_    0.124876 0.106627 0.007747 0.158672
H12   H     H_    0.610012 0.757212 0.889372 0.179678
H13   H     H_    0.086369 0.382261 0.032392 0.085286
H14   H     H_    0.547257 0.681853 0.886603 0.156491
H15   H     H_    0.613913 0.631928 0.906263 0.106172
H16   H     H_    0.443128 0.631706 0.107380 0.183779
H17   H     H_    0.519420 0.640122 0.108029 0.162113
H18   H     H_    0.484422 0.532857 0.085720 0.103193
H19   H     H_    0.110010 0.257209 0.889373 0.179659
H20   H     H_    0.047256 0.181851 0.886605 0.156526
H21   H     H_    0.113911 0.131926 0.906265 0.106191
H22   H     H_    0.943124 0.131708 0.107381 0.183703
H23   H     H_    0.019415 0.140122 0.108030 0.162104
H24   H     H_    0.908370 0.272631 0.969517 0.107082
H25   H     H_    0.984417 0.032858 0.085721 0.103127
H26   H     H_    0.345146 0.557350 0.961799 0.142739
H27   H     H_    0.747827 0.434076 0.054245 0.118794
H28   H     H_    0.845146 0.057352 0.961800 0.142752
H29   H     H_    0.247816 0.934078 0.054244 0.118824
H30   H     H_    0.337986 0.540394 0.047899 0.151272
H31   H     H_    0.754286 0.410670 0.968609 0.109781
H32   H     H_    0.837986 0.040396 0.047899 0.151248
H33   H     H_    0.801665 0.697434 0.546558 0.131684
H34   H     H_    0.254275 0.910672 0.968608 0.109785
H35   H     H_    0.161361 0.624863 0.040435 0.118648
H36   H     H_    0.755017 0.723616 0.947621 0.110981
H37   H     H_    0.661362 0.124870 0.040436 0.118667
H38   H     H_    0.255026 0.223620 0.947622 0.110972
H39   H     H_    0.432485 0.959762 0.112718 0.141504
H40   H     H_    0.361653 0.973254 0.086454 0.147290
H41   H     H_    0.411484 0.072216 0.085579 0.139538
H42   H     H_    0.494197 0.021309 0.895490 0.148294
H43   H     H_    0.542305 0.106743 0.925405 0.176711
H44   H     H_    0.669920 0.144091 0.457158 0.121850
H45   H     H_    0.467027 0.123568 0.927147 0.128536
H46   H     H_    0.932486 0.459765 0.112718 0.141278
H47   H     H_    0.861653 0.473259 0.086455 0.147247
H48   H     H_    0.911485 0.572219 0.085579 0.139429
H49   H     H_    0.994198 0.521307 0.895490 0.148319
H50   H     H_    0.042307 0.606740 0.925405 0.176727
H51   H     H_    0.967029 0.623568 0.927147 0.128561
H52   H     H_    0.188943 0.788219 0.932844 0.121123
H53   H     H_    0.146455 0.778640 0.986274 0.102040
H54   H     H_    0.113314 0.771889 0.929311 0.134021
H55   H     H_    0.297513 0.201716 0.547385 0.132320
H56   H     H_    0.670590 0.794461 0.004338 0.163611
H57   H     H_    0.731540 0.869321 0.986921 0.126980
H58   H     H_    0.696472 0.890361 0.041732 0.145761
H59   H     H_    0.688945 0.288226 0.932847 0.121110
H60   H     H_    0.646455 0.278645 0.986276 0.102060
H61   H     H_    0.613316 0.271897 0.929312 0.133987
H62   H     H_    0.170581 0.294439 0.004365 0.163625
H63   H     H_    0.231513 0.369313 0.986922 0.126968
H64   H     H_    0.196476 0.390351 0.041747 0.145763
H65   H     H_    0.504222 0.579810 0.522507 0.209029
H66   H     H_    0.407901 0.900905 0.961525 0.175280
H67   H     H_    0.471237 0.635013 0.574153 0.135673
H68   H     H_    0.530982 0.553927 0.580423 0.173645
H69   H     H_    0.636938 0.696782 0.490988 0.169786
H70   H     H_    0.626843 0.774683 0.439118 0.089194
H71   H     H_    0.635570 0.644921 0.432883 0.165229
H72   H     H_    0.997008 0.080008 0.520838 0.209048
H73   H     H_    0.964653 0.137542 0.572156 0.130376
H74   H     H_    0.021600 0.050842 0.579044 0.175483
H75   H     H_    0.133002 0.187611 0.490801 0.168896
H76   H     H_    0.125619 0.264209 0.438208 0.092528
H77   H     H_    0.538428 0.977807 0.044689 0.173970
H78   H     H_    0.130539 0.133487 0.433194 0.166873
H79   H     H_    0.542732 0.051939 0.436120 0.102426
H80   H     H_    0.499691 0.112803 0.480819 0.151013
H81   H     H_    0.484465 0.129933 0.419550 0.139958
H82   H     H_    0.379870 0.914417 0.561616 0.109647
H83   H     H_    0.373599 0.987671 0.507887 0.150512
H84   H     H_    0.371369 0.045006 0.564679 0.141621
H85   H     H_    0.017385 0.544476 0.392988 0.137843
H86   H     H_    0.053287 0.547766 0.449647 0.084155
H87   H     H_    0.001276 0.639186 0.434519 0.145563
H88   H     H_    0.907901 0.400907 0.961526 0.175277
H89   H     H_    0.884396 0.425143 0.565639 0.106325
H90   H     H_    0.877846 0.493460 0.510550 0.144327
H91   H     H_    0.878470 0.556324 0.566081 0.141107
H92   H     H_    0.106096 0.543355 0.528964 0.102802
H93   H     H_    0.091932 0.667599 0.506547 0.135808
H94   H     H_    0.076572 0.636060 0.566107 0.186381
H95   H     H_    0.868328 0.622569 0.428310 0.161428
H96   H     H_    0.888816 0.681257 0.483815 0.149756
H97   H     H_    0.889932 0.748763 0.429579 0.154882
H98   H     H_    0.604221 0.054257 0.524655 0.102067
H99   H     H_    0.038427 0.477807 0.044690 0.173954
H100  H     H_    0.595261 0.181696 0.504787 0.129245
H101  H     H_    0.576356 0.146191 0.563134 0.179634
H102  H     H_    0.365474 0.129456 0.428724 0.160819
H103  H     H_    0.385553 0.187493 0.484451 0.138533
H104  H     H_    0.385973 0.256078 0.430460 0.150771
H105  H     H_    0.364692 0.415349 0.465576 0.165838
H106  H     H_    0.687985 0.341481 0.527723 0.174289
H107  H     H_    0.861708 0.907489 0.465971 0.172862
H108  H     H_    0.192731 0.838239 0.527717 0.173294
H109  H     H_    0.342788 0.471502 0.589818 0.120335
H110  H     H_    0.586370 0.882262 0.032391 0.085290
H111  H     H_    0.696793 0.420426 0.406003 0.119074
H112  H     H_    0.839835 0.965601 0.590586 0.121378
H113  H     H_    0.199646 0.919154 0.406002 0.119918
H114  H     H_    0.626208 0.948353 0.967864 0.102424
H115  H     H_    0.356587 0.763687 0.035179 0.102528
H116  H     H_    0.126208 0.448341 0.967866 0.102419
H117  H     H_    0.856584 0.263692 0.035180 0.102539
H118  H     H_    0.550236 0.548905 0.955832 0.111735
H119  H     H_    0.489967 0.516979 0.921187 0.115700
H120  H     H_    0.482909 0.518873 0.983323 0.157527
O1    O     O_R   0.237900 0.735050 0.799950 -0.502302
O2    O     O_R   0.566580 0.739640 0.301090 -0.490332
O3    O     O_R   0.933420 0.239640 0.698910 -0.504904
O4    O     O_R   0.066580 0.239640 0.301090 -0.488216
O5    O     O_R   0.323550 0.666510 0.701520 -0.505465
O6    O     O_R   0.676450 0.666510 0.298480 -0.499499
O7    O     O_R   0.823550 0.166510 0.701520 -0.505294
O8    O     O_R   0.176450 0.166510 0.298480 -0.499758
O9    O     O_3   0.334980 0.834990 0.749700 -0.260518
O10   O     O_3   0.665020 0.834990 0.250300 -0.258010
O11   O     O_3   0.834980 0.334990 0.749700 -0.260535
O12   O     O_R   0.762100 0.735050 0.200050 -0.500033
O13   O     O_3   0.165020 0.334990 0.250300 -0.257117
O14   O     O_R   0.256160 0.936210 0.796950 -0.500040
O15   O     O_R   0.743840 0.936210 0.203050 -0.487424
O16   O     O_R   0.756160 0.436210 0.796950 -0.499949
O17   O     O_R   0.243840 0.436210 0.203050 -0.487211
O18   O     O_R   0.333710 0.029860 0.801630 -0.506956
O19   O     O_R   0.666290 0.029860 0.198370 -0.510308
O20   O     O_R   0.833710 0.529860 0.801630 -0.506681
O21   O     O_R   0.166290 0.529860 0.198370 -0.510087
O22   O     O_R   0.425340 0.901920 0.798280 -0.497369
O23   O     O_R   0.737900 0.235050 0.799950 -0.502293
O24   O     O_R   0.574660 0.901920 0.201720 -0.497109
O25   O     O_R   0.925340 0.401920 0.798280 -0.497250
O26   O     O_R   0.074660 0.401920 0.201720 -0.497074
O27   O     O_R   0.433530 0.738890 0.801610 -0.504704
O28   O     O_R   0.566470 0.738890 0.198390 -0.508430
O29   O     O_R   0.933530 0.238890 0.801610 -0.504608
O30   O     O_R   0.066470 0.238890 0.198390 -0.508435
O31   O     O_R   0.323650 0.665810 0.796720 -0.498233
O32   O     O_R   0.676350 0.665810 0.203280 -0.498841
O33   O     O_R   0.823650 0.165810 0.796720 -0.498121
O34   O     O_R   0.262100 0.235050 0.200050 -0.499773
O35   O     O_R   0.176350 0.165810 0.203280 -0.498833
O36   O     O_R   0.237790 0.735800 0.697250 -0.476347
O37   O     O_R   0.762210 0.735800 0.302750 -0.492490
O38   O     O_R   0.737790 0.235800 0.697250 -0.476929
O39   O     O_R   0.262210 0.235800 0.302750 -0.492705
O40   O     O_R   0.256050 0.936910 0.701750 -0.472482
O41   O     O_R   0.743950 0.936910 0.298250 -0.476924
O42   O     O_R   0.756050 0.436910 0.701750 -0.472639
O43   O     O_R   0.243950 0.436910 0.298250 -0.476609
O44   O     O_R   0.333600 0.030610 0.698930 -0.512826
O45   O     O_R   0.425240 0.902610 0.703070 -0.488630
O46   O     O_R   0.666400 0.030610 0.301070 -0.516184
O47   O     O_R   0.833600 0.530610 0.698930 -0.513544
O48   O     O_R   0.166400 0.530610 0.301070 -0.518694
O49   O     O_3   0.427990 0.961514 0.038638 -0.537987
O50   O     O_3   0.497357 0.012795 0.969518 -0.539243
O51   O     O_3   0.927989 0.461517 0.038638 -0.537925
O52   O     O_3   0.997357 0.512795 0.969518 -0.539266
O53   O     O_3   0.157959 0.648215 0.948377 -0.562853
O54   O     O_3   0.748026 0.768749 0.040359 -0.557487
O55   O     O_3   0.657960 0.148222 0.948378 -0.562855
O56   O     O_R   0.574760 0.902610 0.296930 -0.500473
O57   O     O_3   0.248040 0.268753 0.040356 -0.557485
O58   O     O_3   0.550723 0.691490 0.555689 -0.556393
O59   O     O_3   0.557824 0.684673 0.457752 -0.531051
O60   O     O_3   0.046286 0.186590 0.555072 -0.555158
O61   O     O_3   0.053840 0.181533 0.457162 -0.531039
O62   O     O_3   0.460364 0.995983 0.446115 -0.566246
O63   O     O_3   0.450647 0.001012 0.544575 -0.563294
O64   O     O_3   0.965995 0.503979 0.448512 -0.567140
O65   O     O_3   0.956301 0.505535 0.545343 -0.547646
O66   O     O_3   0.161350 0.656145 0.551976 -0.551794
O67   O     O_R   0.925240 0.402610 0.703070 -0.489496
O68   O     O_3   0.810056 0.723355 0.455920 -0.578746
O69   O     O_3   0.662243 0.158777 0.551693 -0.550383
O70   O     O_3   0.306377 0.228166 0.456872 -0.574312
O71   O     O_2   0.355385 0.502399 0.410156 -0.491019
O72   O     O_2   0.669164 0.420036 0.584221 -0.469232
O73   O     O_2   0.854895 0.995816 0.410790 -0.490286
O74   O     O_2   0.171339 0.914954 0.584160 -0.464111
O75   O     O_2   0.396426 0.496508 0.537772 -0.555084
O76   O     O_2   0.638545 0.400976 0.455232 -0.504177
O77   O     O_2   0.894348 0.984708 0.538631 -0.554753
O78   O     O_R   0.074760 0.402610 0.296930 -0.505763
O79   O     O_2   0.141973 0.894286 0.455134 -0.502762
O80   O     O_2   0.591661 0.932714 0.904689 -0.534776
O81   O     O_2   0.389406 0.785407 0.098618 -0.555257
O82   O     O_2   0.091661 0.432713 0.904690 -0.534783
O83   O     O_2   0.889404 0.285411 0.098618 -0.555490
O84   O     O_3   0.483824 0.654949 0.949730 -0.575244
O85   O     O_3   0.574624 0.703681 0.045833 -0.579906
O86   O     O_3   0.983821 0.154949 0.949731 -0.575244
O87   O     O_3   0.074620 0.203679 0.045835 -0.579905
O88   O     O_3   0.577676 0.724268 0.955169 -0.599971
O89   O     O_R   0.433420 0.739640 0.698910 -0.505713
O90   O     O_3   0.477107 0.651626 0.040884 -0.588380
O91   O     O_3   0.077674 0.224265 0.955171 -0.599981
O92   O     O_3   0.977103 0.151626 0.040884 -0.588349

loop_
_geom_bond_atom_site_label_1
_geom_bond_atom_site_label_2
_ccdc_geom_bond_type
C13   O92   S    
C98   H20   S    
C63   O55   S    
C39   O5    A    
C77   H103  S    
C33   O48   A    
Cr7   O43   S    
C2    C134  S    
C6    C85   S    
C71   H84   S    
Cr4   O8    S    
C153  O60   S    
C95   O87   S    
C98   H21   S    
Cr1   O1    S    
C70   H80   S    
C35   C145  S    
C105  H28   S    
C4    C186  A    
Cr8   O44   S    
C109  C127  A    
C111  C125  A    
C59   H48   S    
C78   C186  S    
C102  C141  T    
C85   H112  S    
Cr4   O13   S    
C62   H58   S    
C99   H22   S    
Cr8   O18   S    
C101  O19   A    
C71   H82   S    
C149  C168  T    
Cr11  O78   S    
C37   O3    A    
C40   C170  S    
C14   C183  A    
C28   C31   S    
C36   O56   A    
C155  O62   S    
C137  C146  T    
C176  C185  A    
C94   H8    S    
C127  C136  S    
C43   H66   S    
C66   O59   S    
C6    C10   A    
C75   H96   S    
C66   H70   S    
C46   C134  S    
C33   O43   A    
C16   C20   S    
C15   C184  A    
C83   O75   D    
C48   C87   S    
C129  O27   A    
C81   O73   D    
C107  C125  A    
C22   C170  T    
C57   C167  S    
C67   H72   S    
C92   H118  S    
C173  C182  A    
C151  O58   S    
C158  C159  A    
C120  C138  S    
Cr2   O2    S    
C2    O84   S    
C64   O57   S    
C58   O50   S    
C5    C84   S    
C118  O55   S    
C61   H53   S    
C45   H24   S    
C56   H40   S    
C58   H45   S    
C72   H85   S    
C88   O81   D    
C104  C121  A    
C87   O80   D    
C54   C132  S    
Cr9   O46   S    
Cr1   O14   S    
C24   O91   S    
Cr11  O48   S    
C39   C169  S    
C14   C187  A    
C71   O63   S    
C61   H52   S    
C46   C53   T    
C59   H46   S    
C88   H115  S    
C93   H3    S    
C73   O65   S    
Cr10  O25   S    
Cr11  O13   S    
C23   C171  T    
C131  O29   A    
C106  C124  A    
C97   H18   S    
C103  C107  A    
C108  C126  A    
C65   H68   S    
C44   C48   S    
C110  C128  A    
C113  H36   S    
C76   H98   S    
C6    C188  A    
C181  O34   A    
C182  H1    S    
C51   C167  S    
C94   H6    S    
C64   H63   S    
Cr4   O30   S    
Cr3   O33   S    
C175  O69   S    
C41   C171  S    
C11   C176  A    
C45   H88   S    
Cr3   O11   S    
C48   C134  S    
C38   O4    A    
C109  H32   S    
C7    C86   S    
C11   C25   S    
C150  C166  T    
C47   C167  S    
C118  C122  A    
Cr10  O11   S    
C58   H42   S    
C97   O90   S    
C98   O91   S    
C147  C165  T    
C30   O44   A    
Cr12  O5    S    
C96   H14   S    
C92   H120  S    
C97   H16   S    
C79   C177  S    
Cr5   O15   S    
Cr2   O32   S    
C179  O12   A    
C152  C161  A    
C80   O72   D    
Cr5   O37   S    
C135  C143  T    
Cr7   O39   S    
C72   H87   S    
Cr4   O4    S    
C36   C148  S    
C7    C11   A    
C47   C50   S    
C50   O52   S    
C69   H75   S    
C99   H23   S    
C62   O54   S    
C148  C164  T    
C84   O76   D    
C59   O51   S    
C34   O45   A    
C113  C126  A    
Cr7   O34   S    
Cr4   O35   S    
C115  C128  A    
C116  C120  A    
C12   C17   S    
C5    C9    A    
C29   C30   S    
C63   H59   S    
C26   C33   S    
C151  C152  A    
C44   C145  S    
C184  H44   S    
C45   C156  S    
C19   C28   T    
C95   H10   S    
C13   O87   S    
C73   H90   S    
C40   O6    A    
C158  C163  A    
C178  O90   S    
C113  C117  A    
Cr1   O36   S    
C123  O17   A    
Cr5   O41   S    
Cr10  O67   S    
C72   O64   S    
C132  O26   A    
C60   H49   S    
C158  O64   S    
C124  C141  S    
C53   C129  S    
C100  C180  S    
C116  O53   S    
C81   H107  S    
C86   H113  S    
C82   H108  S    
C10   C175  A    
C105  C109  A    
Cr1   O9    S    
C152  O59   S    
Cr5   O10   S    
C80   H106  S    
C77   H102  S    
C78   H105  S    
C15   C188  A    
C115  C119  A    
C71   H83   S    
C121  C139  S    
C67   H74   S    
C122  C140  S    
C32   O42   A    
C177  O31   A    
C38   O78   A    
C21   C169  T    
C69   H78   S    
C86   O79   D    
Cr7   O17   S    
C36   O2    A    
C174  O68   S    
C89   O82   D    
C24   C156  S    
C129  O22   A    
C59   H47   S    
C2    C178  S    
C1    O18   A    
C84   H111  S    
C3    C16   A    
C54   C57   T    
C96   H12   S    
C155  C157  A    
Cr6   O16   S    
Cr3   O29   S    
Cr9   O56   S    
C103  C120  A    
C131  O25   A    
C65   H65   S    
C42   O8    A    
C55   C68   T    
C173  O66   S    
C155  C161  A    
C15   C19   S    
C2    O88   S    
C112  C143  S    
C3    C7    A    
C16   C185  A    
C74   O66   S    
C101  C144  S    
C64   H62   S    
Cr10  O47   S    
C34   O89   A    
Cr12  O27   S    
Cr2   O10   S    
C75   H95   S    
C66   H71   S    
C51   C91   S    
C12   C182  A    
C145  C178  S    
C60   H51   S    
C111  H35   S    
C76   O69   S    
C111  C116  A    
C94   O86   S    
C81   C188  S    
C123  O21   A    
C40   O37   A    
C98   H19   S    
C49   C88   S    
C39   O36   A    
Cr5   O12   S    
C112  O20   A    
C76   H101  S    
C77   H104  S    
C95   H9    S    
C180  O33   A    
C163  C166  S    
C72   H86   S    
C30   O40   A    
C101  O15   A    
C65   O58   S    
Cr12  O31   S    
C70   H79   S    
Cr2   O28   S    
C75   H97   S    
C43   C134  S    
C47   H99   S    
C130  O24   A    
C34   C147  S    
C50   C89   S    
C67   O60   S    
C74   H94   S    
C12   C186  A    
C42   O39   A    
C43   H2    S    
C133  C142  T    
C159  C162  A    
C49   C145  S    
C73   H91   S    
C160  C165  S    
C74   H92   S    
Cr11  O26   S    
C62   H57   S    
C99   H25   S    
C183  H33   S    
C25   C172  T    
C126  C135  S    
C55   C131  S    
Cr3   O3    S    
Cr6   O11   S    
C65   H67   S    
C104  C108  A    
C161  C164  S    
C112  O16   A    
C104  H27   S    
C27   C32   S    
C102  C181  S    
C74   H93   S    
C94   H7    S    
C37   C149  S    
C154  O61   S    
C174  C183  A    
C185  H55   S    
C64   H64   S    
Cr9   O19   S    
C70   H81   S    
C106  H29   S    
C153  C162  A    
C95   H11   S    
C136  C144  T    
C66   H69   S    
Cr11  O21   S    
C130  O28   A    
C114  C127  A    
C91   H117  S    
C70   O62   S    
C4    C83   S    
C132  O30   A    
C47   H13   S    
C123  C142  S    
C119  O57   S    
C58   H43   S    
C13   C167  S    
C79   C138  T    
C83   H109  S    
C107  H30   S    
C85   O77   D    
C35   C52   T    
C180  O23   A    
C110  H34   S    
C175  C184  A    
C56   H41   S    
C61   H54   S    
C14   C18   S    
C56   H39   S    
C49   O49   S    
C4    C8    A    
C93   H5    S    
C99   O92   S    
C90   C139  T    
C119  C124  A    
C103  H26   S    
C62   H56   S    
C96   H15   S    
C24   O86   S    
C17   C26   T    
Cr8   O45   S    
C9    C22   S    
C60   O52   S    
C77   O70   S    
C45   C51   S    
C75   O68   S    
C48   O50   S    
C93   H4    S    
C117  C121  A    
C100  C140  T    
C50   C156  S    
C105  C122  A    
Cr8   O22   S    
Cr6   O38   S    
C82   O74   D    
C117  O54   S    
C181  O35   A    
C60   H50   S    
C1    C146  S    
C177  O1    A    
C63   H61   S    
C31   O46   A    
C20   C29   T    
C44   H110  S    
C154  C163  A    
Cr2   O6    S    
C159  O65   S    
C76   H100  S    
C8    C173  A    
C43   C49   S    
C157  O63   S    
Cr12  O89   S    
C13   C24   S    
C67   H73   S    
C128  C137  S    
C32   O47   A    
C92   O84   S    
Cr10  O20   S    
C93   O85   S    
C44   H77   S    
C92   H119  S    
C179  O32   A    
C3    C82   S    
C91   O83   D    
C8    C21   S    
C9    C174  A    
C178  O85   S    
C114  C118  A    
C42   C172  S    
Cr6   O42   S    
C114  H37   S    
C87   H114  S    
C56   O49   S    
C96   O88   S    
Cr1   O40   S    
C41   O38   A    
C106  C110  A    
C125  C133  S    
Cr6   O23   S    
C69   H76   S    
C90   C179  S    
Cr8   O9    S    
C18   C27   T    
C68   C156  S    
Cr7   O13   S    
C115  H38   S    
C73   H89   S    
C10   C23   S    
C157  C160  A    
C78   O71   D    
C41   O7    A    
C52   C130  S    
C151  C160  A    
C69   O61   S    
Cr9   O10   S    
C63   H60   S    
C1    O14   A    
C31   O41   A    
Cr9   O24   S    
C176  O70   S    
C80   C187  S    
Cr3   O7    S    
C97   H17   S    
C89   H116  S    
C162  C168  S    
C61   O53   S    
C5    C187  A    
C153  C154  A    
C38   C150  S    
C51   O51   S    
C37   O67   A    
Cr12  O9    S    
C108  H31   S    
