data_mof_unit_32733.cif
_audit_creation_date              2012-12-10T18:09:29-0500
_audit_creation_method            fapswitch 2.2
_symmetry_space_group_name_H-M    P1
_symmetry_Int_Tables_number       1
_space_group_crystal_system       triclinic
_cell_length_a                    16.48371
_cell_length_b                    14.237044
_cell_length_c                    9.553841
_cell_angle_alpha                 90.796961
_cell_angle_beta                  90.488181
_cell_angle_gamma                 89.495383
_cell_volume                      2241.70585086

loop_
_atom_site_label
_atom_site_type_symbol
_atom_type_description
_atom_site_fract_x
_atom_site_fract_y
_atom_site_fract_z
_atom_type_partial_charge
C1    C     C_R   0.119449 0.379126 0.500118 0.863570
C2    C     C_R   0.116286 0.624584 0.500966 0.866299
C3    C     C_R   0.619452 0.879130 0.500118 0.863575
C4    C     C_R   0.616286 0.124585 0.500967 0.866309
C5    C     C_3   0.061692 0.567144 0.085666 -0.437239
C6    C     C_3   0.054820 0.574603 0.918983 -0.414245
C7    C     C_3   0.561655 0.067191 0.085668 -0.437201
C8    C     C_3   0.554779 0.074641 0.918984 -0.414229
C9    C     C_R   0.888891 0.369342 0.499165 0.880913
C10   C     C_R   0.883851 0.624247 0.500657 0.847767
C11   C     C_R   0.388892 0.869339 0.499165 0.880904
C12   C     C_R   0.383848 0.124244 0.500658 0.847741
C13   C     C_3   0.822619 0.225000 0.626640 -0.190621
C14   C     C_3   0.809442 0.238804 0.356860 -0.182301
C15   C     C_3   0.803576 0.741525 0.652132 -0.192741
C16   C     C_3   0.824660 0.772652 0.386015 -0.180432
C17   C     C_3   0.322614 0.724999 0.626644 -0.190622
C18   C     C_3   0.309449 0.738796 0.356863 -0.182355
C19   C     C_3   0.303542 0.241481 0.652153 -0.192689
C20   C     C_3   0.324679 0.272680 0.386065 -0.180432
C21   C     C_3   0.239965 0.674050 0.635654 -0.483244
C22   C     C_3   0.239740 0.668002 0.372396 -0.444258
C23   C     C_3   0.227431 0.305909 0.651467 -0.457393
C24   C     C_3   0.257472 0.348247 0.404745 -0.441150
C25   C     C_3   0.739971 0.174046 0.635652 -0.483221
C26   C     C_3   0.739736 0.168009 0.372394 -0.444260
C27   C     C_3   0.727454 0.805939 0.651459 -0.457410
C28   C     C_3   0.757464 0.848231 0.404702 -0.441147
C29   C     C_3   0.742223 0.356818 0.516750 -0.431123
C30   C     C_3   0.738094 0.641352 0.467162 -0.439011
C31   C     C_3   0.242223 0.856816 0.516738 -0.431133
C32   C     C_3   0.238100 0.141356 0.467086 -0.438964
C33   C     C_3   0.820947 0.295996 0.498684 -0.127736
C34   C     C_3   0.816539 0.695766 0.502348 -0.112548
C35   C     C_3   0.320949 0.795993 0.498684 -0.127706
C36   C     C_3   0.316536 0.195764 0.502350 -0.112586
C37   C     C_3   0.187364 0.690835 0.502361 -0.030444
C38   C     C_3   0.190009 0.311515 0.501471 -0.030796
C39   C     C_3   0.687365 0.190837 0.502365 -0.030452
C40   C     C_3   0.690013 0.811519 0.501472 -0.030798
C41   C     C_3   0.163950 0.797557 0.499175 0.685354
C42   C     C_3   0.165116 0.209980 0.452670 0.671124
C43   C     C_3   0.663949 0.297559 0.499191 0.685339
C44   C     C_3   0.665113 0.709976 0.452724 0.671115
C45   C     C_3   0.921928 0.534018 0.081457 0.363832
C46   C     C_3   0.918687 0.519550 0.917543 0.320528
C47   C     C_3   0.023620 0.406938 0.079530 0.324638
C48   C     C_3   0.035933 0.411889 0.916106 0.359814
C49   C     C_3   0.421912 0.033965 0.081450 0.363838
C50   C     C_3   0.418676 0.019478 0.917544 0.320465
C51   C     C_3   0.523686 0.906958 0.079537 0.324744
C52   C     C_3   0.535976 0.911910 0.916103 0.359779
Cu1   Cu    Cu3+1 0.000100 0.500000 0.642410 1.041788
Cu2   Cu    Cu3+1 0.000100 0.500000 0.357590 1.040269
Cu3   Cu    Cu3+1 0.500100 0.000000 0.642410 1.041750
Cu4   Cu    Cu3+1 0.500100 0.000000 0.357590 1.040286
H1    H     H_    0.829527 0.267305 0.724355 0.236912
H2    H     H_    0.791673 0.289809 0.274486 0.229195
H3    H     H_    0.790604 0.683523 0.725787 0.168844
H4    H     H_    0.814630 0.737634 0.282349 0.173663
H5    H     H_    0.329517 0.767305 0.724354 0.236917
H6    H     H_    0.291687 0.789797 0.274482 0.229197
H7    H     H_    0.290542 0.183456 0.725751 0.168876
H8    H     H_    0.314678 0.237689 0.282370 0.173589
H9    H     H_    0.247749 0.596985 0.651589 0.188915
H10   H     H_    0.262109 0.594203 0.381687 0.208878
H11   H     H_    0.241454 0.378018 0.690770 0.197629
H12   H     H_    0.282287 0.414424 0.451013 0.216474
H13   H     H_    0.747757 0.096981 0.651576 0.188921
H14   H     H_    0.762106 0.094210 0.381678 0.208882
H15   H     H_    0.741469 0.878054 0.690741 0.197688
H16   H     H_    0.782294 0.914410 0.450936 0.216477
H17   H     H_    0.207390 0.699824 0.730360 0.232115
H18   H     H_    0.203430 0.669195 0.273737 0.225093
H19   H     H_    0.182447 0.278032 0.726010 0.246251
H20   H     H_    0.233008 0.366952 0.299777 0.214617
H21   H     H_    0.707399 0.199814 0.730364 0.232107
H22   H     H_    0.703423 0.169204 0.273739 0.225094
H23   H     H_    0.682484 0.778060 0.726023 0.246247
H24   H     H_    0.732986 0.866923 0.299738 0.214611
H25   H     H_    0.743590 0.391445 0.621815 0.236186
H26   H     H_    0.741584 0.415633 0.441047 0.214192
H27   H     H_    0.727560 0.588708 0.550161 0.203367
H28   H     H_    0.745602 0.599165 0.369383 0.243463
H29   H     H_    0.243588 0.891445 0.621803 0.236141
H30   H     H_    0.241587 0.915628 0.441032 0.214209
H31   H     H_    0.227555 0.088680 0.550035 0.203313
H32   H     H_    0.245625 0.099205 0.369278 0.243488
H33   H     H_    0.916545 0.611220 0.101588 0.081069
H34   H     H_    0.894788 0.585958 0.873696 0.127244
H35   H     H_    0.081629 0.381978 0.126239 0.134500
H36   H     H_    0.102767 0.410285 0.898445 0.059192
H37   H     H_    0.416494 0.111166 0.101556 0.081139
H38   H     H_    0.394723 0.085848 0.873673 0.127337
H39   H     H_    0.581728 0.882066 0.126223 0.134343
H40   H     H_    0.602808 0.910343 0.898415 0.059168
H41   H     H_    0.052945 0.638317 0.133009 0.242618
H42   H     H_    0.031753 0.645401 0.890521 0.252817
H43   H     H_    0.124374 0.544689 0.115017 0.192188
H44   H     H_    0.116852 0.569297 0.874556 0.206114
H45   H     H_    0.552868 0.138358 0.133013 0.242624
H46   H     H_    0.531675 0.145421 0.890518 0.252837
H47   H     H_    0.624351 0.044785 0.115021 0.192173
H48   H     H_    0.616814 0.069378 0.874563 0.206127
N1    N     N_3   0.001260 0.500000 0.143650 -0.242945
N2    N     N_3   0.001260 0.500000 0.856350 -0.239707
N3    N     N_3   0.501260 0.000000 0.143650 -0.242940
N4    N     N_3   0.501260 0.000000 0.856350 -0.239749
O1    O     O_R   0.091250 0.408820 0.620260 -0.568548
O2    O     O_R   0.091250 0.408820 0.379740 -0.574436
O3    O     O_R   0.091250 0.591180 0.620260 -0.590558
O4    O     O_R   0.091250 0.591180 0.379740 -0.599055
O5    O     O_R   0.591250 0.908820 0.620260 -0.568523
O6    O     O_R   0.591250 0.908820 0.379740 -0.574415
O7    O     O_R   0.591250 0.091180 0.620260 -0.590587
O8    O     O_R   0.591250 0.091180 0.379740 -0.599047
O9    O     O_R   0.908940 0.408800 0.620260 -0.509225
O10   O     O_R   0.908940 0.408800 0.379740 -0.496103
O11   O     O_R   0.908940 0.591200 0.620260 -0.576728
O12   O     O_R   0.908940 0.591200 0.379740 -0.561812
O13   O     O_R   0.408940 0.908800 0.620260 -0.509255
O14   O     O_R   0.408940 0.908800 0.379740 -0.496099
O15   O     O_R   0.408940 0.091200 0.620260 -0.576820
O16   O     O_R   0.408940 0.091200 0.379740 -0.561805
C53   C     C_2   0.888007 0.148869 0.630513 0.999826
O17   O     O_2   0.933208 0.143610 0.731814 -0.436649
O18   O     O_R   0.887664 0.074828 0.532957 -0.772576
H49   H     H_    0.936144 0.031230 0.543628 0.390187
C54   C     C_2   0.880076 0.184102 0.298208 1.025845
O19   O     O_2   0.869984 0.134919 0.193267 -0.511807
O20   O     O_R   0.956360 0.188876 0.359418 -0.685180
H50   H     H_    0.992165 0.136542 0.321219 0.404959
C55   C     C_2   0.876034 0.793369 0.712660 0.960808
O21   O     O_2   0.918332 0.756328 0.802204 -0.596246
O22   O     O_R   0.891636 0.885607 0.673781 -0.737126
H51   H     H_    0.938749 0.913945 0.728067 0.392033
C56   C     C_2   0.905484 0.819220 0.373918 0.934018
O23   O     O_2   0.962579 0.793655 0.445576 -0.529578
O24   O     O_R   0.914528 0.891970 0.278503 -0.710943
H52   H     H_    0.969925 0.922015 0.283768 0.394946
C57   C     C_2   0.388000 0.648869 0.630544 0.999826
O25   O     O_2   0.433206 0.643634 0.731842 -0.436600
O26   O     O_R   0.387649 0.574805 0.533025 -0.772597
H53   H     H_    0.436117 0.531192 0.543738 0.390164
C58   C     C_2   0.380082 0.684085 0.298228 1.025859
O27   O     O_2   0.369996 0.634924 0.193261 -0.511751
O28   O     O_R   0.456355 0.688818 0.359490 -0.685148
H54   H     H_    0.492152 0.636469 0.321312 0.404936
C59   C     C_2   0.375983 0.293301 0.712790 0.960804
O29   O     O_2   0.418163 0.256288 0.802500 -0.596488
O30   O     O_R   0.391672 0.385508 0.673857 -0.737116
H55   H     H_    0.438737 0.413858 0.728230 0.392039
C60   C     C_2   0.405504 0.319262 0.374066 0.934240
O31   O     O_2   0.462599 0.293616 0.445657 -0.529617
O32   O     O_R   0.414549 0.392122 0.278827 -0.710879
H56   H     H_    0.469944 0.422177 0.284181 0.394904
Cl1   Cl    Cl    0.095624 0.828995 0.637835 -0.524939
Cl2   Cl    Cl    0.117436 0.828401 0.334957 -0.563196
Cl3   Cl    Cl    0.085568 0.166297 0.558891 -0.528474
Cl4   Cl    Cl    0.132981 0.209404 0.272230 -0.563425
Cl5   Cl    Cl    0.595631 0.328994 0.637868 -0.525007
Cl6   Cl    Cl    0.617430 0.328410 0.334979 -0.563182
Cl7   Cl    Cl    0.585569 0.666317 0.558974 -0.528363
Cl8   Cl    Cl    0.632963 0.709367 0.272290 -0.563218
Cl9   Cl    Cl    0.830679 0.494113 0.164009 -0.483096
Cl10  Cl    Cl    0.842748 0.434977 0.869254 -0.475189
Cl11  Cl    Cl    0.951872 0.320879 0.119036 -0.415113
Cl12  Cl    Cl    0.005876 0.309006 0.823150 -0.412289
Cl13  Cl    Cl    0.330680 0.994029 0.164016 -0.483183
Cl14  Cl    Cl    0.342807 0.934820 0.869321 -0.475261
Cl15  Cl    Cl    0.452023 0.820823 0.119130 -0.414950
Cl16  Cl    Cl    0.505942 0.809002 0.823179 -0.412142

loop_
_geom_bond_atom_site_label_1
_geom_bond_atom_site_label_2
_ccdc_geom_bond_type
C16   C28   S    
C9    C33   S    
Cu3   Cu4   S    
Cu3   O13   S    
C31   H29   S    
Cu2   O12   S    
C9    O9    A    
C4    O7    A    
O28   H54   S    
C18   C58   S    
C30   C44   S    
C52   Cl16  S    
C14   C33   S    
C58   O27   D    
O22   H51   S    
C49   N3    S    
C5    N1    S    
C45   C46   S    
C29   H25   S    
C56   O24   S    
C2    O4    A    
C26   H22   S    
C11   C35   S    
C37   C41   S    
C25   H21   S    
Cu4   O16   S    
C38   C42   S    
C27   H23   S    
C19   C36   S    
C59   O30   S    
C5    C6    S    
Cu1   O9    S    
C26   C39   S    
C13   H1    S    
C28   C40   S    
O26   H53   S    
C32   H32   S    
C21   H17   S    
Cu2   O2    S    
C21   C37   S    
C17   C57   S    
C16   H4    S    
C23   H11   S    
C30   H27   S    
C22   H10   S    
C10   O11   A    
C17   H5    S    
Cu1   N2    S    
C48   N2    S    
C11   O13   A    
C29   C33   S    
C19   H7    S    
C47   N1    S    
C12   O16   A    
C46   H34   S    
C24   C38   S    
O30   H55   S    
C44   Cl7   S    
C12   C36   S    
C45   H33   S    
C18   C35   S    
C15   C34   S    
C13   C53   S    
Cu1   O3    S    
C31   H30   S    
C7    H47   S    
C29   C43   S    
C50   N4    S    
C9    O10   A    
C13   C25   S    
C28   H16   S    
C15   H3    S    
C8    N4    S    
C58   O28   S    
C45   N1    S    
C6    N2    S    
C14   H2    S    
Cu3   O15   S    
C2    O3    A    
C16   C56   S    
C20   C60   S    
C30   C34   S    
C51   C52   S    
C20   C24   S    
C7    C8    S    
C42   Cl3   S    
C50   Cl14  S    
C3    O5    A    
C50   H38   S    
C1    O1    A    
Cu3   O5    S    
Cu1   Cu2   S    
C22   C37   S    
C17   C21   S    
Cu4   O14   S    
C20   H8    S    
C19   C23   S    
Cu4   N3    S    
C13   C33   S    
C1    O2    A    
C47   Cl11  S    
C15   C27   S    
C47   C48   S    
C48   Cl12  S    
C4    C39   S    
C27   C40   S    
C16   C34   S    
Cu1   O11   S    
Cu4   O8    S    
Cu2   O4    S    
C10   C34   S    
C31   C41   S    
C14   C26   S    
C8    H48   S    
C1    C38   S    
C41   Cl1   S    
C43   Cl5   S    
C5    H41   S    
C3    C40   S    
Cu2   O10   S    
C48   H36   S    
C53   O17   D    
C26   H14   S    
C31   C35   S    
C11   O14   A    
C60   O32   S    
C22   H18   S    
O18   H49   S    
C6    H42   S    
C45   Cl9   S    
C27   H15   S    
C53   O18   S    
C54   O19   D    
Cu1   O1    S    
C32   C42   S    
C46   Cl10  S    
Cu2   N1    S    
C21   H9    S    
C18   C22   S    
C47   H35   S    
C4    O8    A    
C42   Cl4   S    
C23   H19   S    
C3    O6    A    
C39   C43   S    
O24   H52   S    
C32   C36   S    
C5    H43   S    
C23   C38   S    
C44   Cl8   S    
C56   O23   D    
Cu3   N4    S    
C57   O26   S    
C29   H26   S    
C57   O25   D    
C25   C39   S    
C49   Cl13  S    
C32   H31   S    
C2    C37   S    
C55   O21   D    
C12   O15   A    
Cu3   O7    S    
C46   N2    S    
C51   Cl15  S    
C19   C59   S    
C52   H40   S    
C7    N3    S    
C30   H28   S    
C28   H24   S    
C10   O12   A    
C24   H12   S    
C24   H20   S    
C41   Cl2   S    
C20   C36   S    
C43   Cl6   S    
C40   C44   S    
C25   H13   S    
C52   N4    S    
C51   N3    S    
C49   C50   S    
C7    H45   S    
C51   H39   S    
O32   H56   S    
C55   O22   S    
Cu4   O6    S    
C18   H6    S    
C17   C35   S    
C49   H37   S    
C60   O31   D    
C59   O29   D    
C8    H46   S    
O20   H50   S    
C6    H44   S    
C15   C55   S    
C54   O20   S    
C14   C54   S    
