data_mof_unit_53358.cif
_audit_creation_date              2012-12-11T14:07:48-0500
_audit_creation_method            fapswitch 2.2
_symmetry_space_group_name_H-M    P1
_symmetry_Int_Tables_number       1
_space_group_crystal_system       triclinic
_cell_length_a                    19.711038
_cell_length_b                    17.011366
_cell_length_c                    15.349505
_cell_angle_alpha                 89.811748
_cell_angle_beta                  53.370786
_cell_angle_gamma                 90.250386
_cell_volume                      4130.27983721

loop_
_atom_site_label
_atom_site_type_symbol
_atom_type_description
_atom_site_fract_x
_atom_site_fract_y
_atom_site_fract_z
_atom_type_partial_charge
C1    C     C_R   0.374865 0.197463 0.995726 -0.122938
C2    C     C_R   0.710275 0.853258 0.981885 0.153766
C3    C     C_R   0.150752 0.683936 0.073621 0.155909
C4    C     C_R   0.210275 0.353258 0.981885 0.153766
C5    C     C_R   0.611133 0.816321 0.695956 -0.004551
C6    C     C_R   0.693462 0.136771 0.678875 0.096746
C7    C     C_R   0.111133 0.316321 0.695957 -0.004552
C8    C     C_R   0.193462 0.636771 0.678874 0.096738
C9    C     C_3   0.232477 0.136925 0.524496 -0.407102
C10   C     C_3   0.252406 0.780219 0.456580 -0.373610
C11   C     C_3   0.732478 0.636925 0.524496 -0.407103
C12   C     C_R   0.339533 0.825319 0.051167 -0.112799
C13   C     C_3   0.752405 0.280207 0.456569 -0.373619
C14   C     C_3   0.176761 0.185610 0.626753 -0.416244
C15   C     C_3   0.198742 0.736416 0.564203 -0.433708
C16   C     C_3   0.676762 0.685611 0.626752 -0.416249
C17   C     C_3   0.698740 0.236406 0.564194 -0.433705
C18   C     C_3   0.297627 0.261556 0.413505 -0.366679
C19   C     C_3   0.370520 0.781958 0.477519 -0.411074
C20   C     C_3   0.797627 0.761556 0.413505 -0.366683
C21   C     C_3   0.870505 0.281973 0.477531 -0.411093
C22   C     C_3   0.668245 0.700767 0.441566 -0.473783
C23   C     C_R   0.874865 0.697463 0.995726 -0.122938
C24   C     C_3   0.864180 0.174221 0.371235 -0.454494
C25   C     C_3   0.168245 0.200767 0.441566 -0.473780
C26   C     C_3   0.364167 0.674219 0.371230 -0.454499
C27   C     C_3   0.252580 0.183220 0.423991 0.367497
C28   C     C_3   0.347062 0.762923 0.399245 0.353794
C29   C     C_3   0.752580 0.683220 0.423990 0.367503
C30   C     C_3   0.847061 0.262925 0.399247 0.353798
C31   C     C_3   0.657756 0.766620 0.598599 0.262945
C32   C     C_3   0.754103 0.179502 0.576455 0.266668
C33   C     C_3   0.157756 0.266620 0.598599 0.262942
C34   C     C_R   0.839533 0.325319 0.051167 -0.112798
C35   C     C_3   0.254103 0.679500 0.576453 0.266667
C36   C     C_3   0.743380 0.809152 0.516572 -0.340578
C37   C     C_3   0.819175 0.229219 0.579379 -0.338628
C38   C     C_3   0.243381 0.309151 0.516572 -0.340569
C39   C     C_3   0.319186 0.729205 0.579368 -0.338623
C40   C     C_R   0.399684 0.800172 0.208442 -0.149609
C41   C     C_R   0.350277 0.171824 0.219979 -0.137001
C42   C     C_R   0.899683 0.300173 0.208444 -0.149609
C43   C     C_R   0.850277 0.671824 0.219979 -0.137002
C44   C     C_3   0.610127 0.749604 0.546905 -0.179254
C45   C     C_R   0.669309 0.917391 0.050860 -0.139882
C46   C     C_3   0.802948 0.124197 0.474646 -0.201244
C47   C     C_3   0.110127 0.249605 0.546904 -0.179259
C48   C     C_3   0.302935 0.624196 0.474642 -0.201241
C49   C     C_2   0.190873 0.740506 0.100394 -0.203228
C50   C     C_2   0.283749 0.314649 0.961399 -0.196256
C51   C     C_2   0.690872 0.240506 0.100395 -0.203229
C52   C     C_2   0.783749 0.814649 0.961399 -0.196257
C53   C     C_2   0.710567 0.312833 0.055801 -0.179768
C54   C     C_2   0.810657 0.747206 0.905956 -0.208687
C55   C     C_2   0.210567 0.812833 0.055801 -0.179766
C56   C     C_R   0.633567 0.105147 0.105339 -0.161117
C57   C     C_2   0.310657 0.247206 0.905956 -0.208688
C58   C     C_R   0.328882 0.913350 0.953235 -0.125853
C59   C     C_R   0.365656 0.111372 0.896384 -0.166086
C60   C     C_R   0.828882 0.413350 0.953235 -0.125853
C61   C     C_R   0.865656 0.611372 0.896384 -0.166087
C62   C     C_R   0.359695 0.078185 0.315042 -0.138834
C63   C     C_R   0.409002 0.891815 0.302999 -0.150141
C64   C     C_R   0.859695 0.578185 0.315042 -0.138835
C65   C     C_R   0.909001 0.391816 0.303000 -0.150143
C66   C     C_R   0.347288 0.187547 0.933109 0.155355
C67   C     C_R   0.169309 0.417391 0.050860 -0.139882
C68   C     C_R   0.286653 0.852136 0.027335 0.139981
C69   C     C_R   0.847288 0.687546 0.933108 0.155354
C70   C     C_R   0.786653 0.352136 0.027335 0.139980
C71   C     C_R   0.392888 0.813437 0.302033 0.020754
C72   C     C_R   0.311147 0.139810 0.323152 0.008450
C73   C     C_R   0.892886 0.313439 0.302034 0.020755
C74   C     C_R   0.811147 0.639810 0.323152 0.008448
C75   C     C_R   0.623473 0.200114 0.011474 -0.116788
C76   C     C_R   0.659967 0.822128 0.954825 -0.114811
C77   C     C_R   0.123473 0.700114 0.011474 -0.116790
C78   C     C_R   0.133567 0.605147 0.105339 -0.161117
C79   C     C_R   0.159967 0.322128 0.954825 -0.114810
C80   C     C_R   0.600430 0.801228 0.791952 -0.131516
C81   C     C_R   0.651254 0.170722 0.781031 -0.135587
C82   C     C_R   0.100430 0.301228 0.791952 -0.131517
C83   C     C_R   0.151255 0.670722 0.781030 -0.135598
C84   C     C_R   0.642659 0.076901 0.685684 -0.139252
C85   C     C_R   0.592885 0.894231 0.695992 -0.127272
C86   C     C_R   0.142658 0.576901 0.685684 -0.139235
C87   C     C_R   0.092885 0.394231 0.695992 -0.127269
C88   C     C_2   0.577302 0.821175 0.524454 0.965998
C89   C     C_R   0.650751 0.183936 0.073622 0.155910
C90   C     C_2   0.848386 0.055665 0.482212 0.983615
C91   C     C_2   0.077304 0.321177 0.524452 0.965993
C92   C     C_2   0.348369 0.555655 0.482198 0.983609
H1    H     H_    0.383482 0.252390 0.023166 0.084476
H2    H     H_    0.647667 0.203885 0.568364 0.163309
H3    H     H_    0.116864 0.153045 0.686346 0.158348
H4    H     H_    0.147663 0.703903 0.568376 0.163310
H5    H     H_    0.210907 0.193332 0.663498 0.159232
H6    H     H_    0.167401 0.779802 0.631538 0.167955
H7    H     H_    0.710908 0.693334 0.663497 0.159235
H8    H     H_    0.667392 0.279794 0.631527 0.167958
H9    H     H_    0.359765 0.249632 0.397270 0.159669
H10   H     H_    0.355777 0.844106 0.504425 0.155832
H11   H     H_    0.859765 0.749632 0.397271 0.159671
H12   H     H_    0.329948 0.776537 0.102339 0.088419
H13   H     H_    0.855748 0.344119 0.504439 0.155833
H14   H     H_    0.777811 0.817258 0.552917 0.163503
H15   H     H_    0.787280 0.267678 0.651739 0.150497
H16   H     H_    0.277812 0.317256 0.552918 0.163498
H17   H     H_    0.287299 0.767665 0.651729 0.150504
H18   H     H_    0.681301 0.732034 0.369123 0.174101
H19   H     H_    0.931441 0.161743 0.335709 0.169110
H20   H     H_    0.181301 0.232034 0.369122 0.174101
H21   H     H_    0.431428 0.661730 0.335692 0.169109
H22   H     H_    0.635965 0.644578 0.448983 0.159665
H23   H     H_    0.883482 0.752390 0.023166 0.084475
H24   H     H_    0.854359 0.157516 0.309611 0.156713
H25   H     H_    0.135964 0.144578 0.448984 0.159667
H26   H     H_    0.354333 0.657522 0.309615 0.156713
H27   H     H_    0.553732 0.712677 0.606119 0.123247
H28   H     H_    0.756141 0.097951 0.464724 0.098534
H29   H     H_    0.053731 0.212678 0.606118 0.123249
H30   H     H_    0.256120 0.597959 0.464728 0.098534
H31   H     H_    0.310207 0.297672 0.344617 0.175495
H32   H     H_    0.439375 0.773343 0.435765 0.175363
H33   H     H_    0.810208 0.797672 0.344616 0.175488
H34   H     H_    0.829948 0.276537 0.102339 0.088419
H35   H     H_    0.939360 0.273371 0.435786 0.175370
H36   H     H_    0.397617 0.744105 0.177345 0.089164
H37   H     H_    0.331092 0.223175 0.198522 0.098422
H38   H     H_    0.897614 0.244105 0.177349 0.089162
H39   H     H_    0.831092 0.723175 0.198522 0.098421
H40   H     H_    0.734272 0.868890 0.495642 0.194400
H41   H     H_    0.862546 0.190833 0.583583 0.209424
H42   H     H_    0.234273 0.368891 0.495643 0.194410
H43   H     H_    0.362553 0.690812 0.583568 0.209418
H44   H     H_    0.217590 0.717164 0.139511 0.124243
H45   H     H_    0.200417 0.080149 0.533653 0.157516
H46   H     H_    0.303704 0.333689 0.010259 0.127724
H47   H     H_    0.717590 0.217164 0.139512 0.124243
H48   H     H_    0.803704 0.833689 0.010259 0.127724
H49   H     H_    0.681933 0.337213 0.019698 0.124457
H50   H     H_    0.793059 0.729319 0.854183 0.125214
H51   H     H_    0.181933 0.837213 0.019698 0.124456
H52   H     H_    0.293059 0.229319 0.854183 0.125214
H53   H     H_    0.307487 0.947601 0.914523 0.098745
H54   H     H_    0.361917 0.085857 0.834883 0.095131
H55   H     H_    0.807487 0.447601 0.914523 0.098745
H56   H     H_    0.233498 0.761729 0.404225 0.159861
H57   H     H_    0.861917 0.585857 0.834883 0.095131
H58   H     H_    0.350069 0.040584 0.378260 0.091747
H59   H     H_    0.416109 0.921806 0.359039 0.089434
H60   H     H_    0.850069 0.540584 0.378260 0.091748
H61   H     H_    0.916111 0.421807 0.359037 0.089437
H62   H     H_    0.616728 0.256607 0.985294 0.081958
H63   H     H_    0.670204 0.771065 0.906984 0.086523
H64   H     H_    0.116728 0.756607 0.985293 0.081958
H65   H     H_    0.170204 0.271065 0.906984 0.086523
H66   H     H_    0.600858 0.744919 0.824420 0.087028
H67   H     H_    0.700417 0.580149 0.533653 0.157516
H68   H     H_    0.669668 0.221885 0.803855 0.092137
H69   H     H_    0.100857 0.244919 0.824420 0.087028
H70   H     H_    0.169669 0.721885 0.803852 0.092139
H71   H     H_    0.652954 0.041631 0.620706 0.088416
H72   H     H_    0.588926 0.925046 0.637731 0.117668
H73   H     H_    0.152952 0.541630 0.620707 0.088412
H74   H     H_    0.088925 0.425046 0.637732 0.117667
H75   H     H_    0.690543 0.951195 0.089998 0.103862
H76   H     H_    0.637710 0.077819 0.165719 0.098089
H77   H     H_    0.190543 0.451195 0.089998 0.103863
H78   H     H_    0.733506 0.261705 0.404209 0.159860
H79   H     H_    0.137710 0.577820 0.165719 0.098090
H80   H     H_    0.291617 0.123924 0.515601 0.152691
H81   H     H_    0.239742 0.844372 0.471703 0.157195
H82   H     H_    0.791617 0.623924 0.515600 0.152692
H83   H     H_    0.739730 0.344358 0.471687 0.157199
H84   H     H_    0.475350 0.881064 0.560885 0.311419
H85   H     H_    0.880677 0.997091 0.566942 0.322727
H86   H     H_    0.975353 0.381068 0.560880 0.311419
H87   H     H_    0.380663 0.497065 0.566915 0.322723
H88   H     H_    0.616866 0.653046 0.686347 0.158348
N1    N     N_R   0.408680 0.130160 0.995800 -0.043743
N2    N     N_R   0.403730 0.078230 0.935950 -0.041199
N3    N     N_R   0.903730 0.421770 0.935950 -0.041420
N4    N     N_R   0.903730 0.578230 0.935950 -0.041199
N5    N     N_R   0.426630 0.075970 0.212960 -0.036641
N6    N     N_R   0.426630 0.924030 0.212960 -0.033431
N7    N     N_R   0.926630 0.575970 0.212960 -0.036641
N8    N     N_R   0.926630 0.424030 0.212960 -0.033431
N9    N     N_R   0.591320 0.134600 0.004200 -0.043546
N10   N     N_R   0.591320 0.865400 0.004200 -0.046880
N11   N     N_R   0.091320 0.634600 0.004200 -0.043545
N12   N     N_R   0.408680 0.869840 0.995800 -0.046816
N13   N     N_R   0.091320 0.365400 0.004200 -0.046880
N14   N     N_R   0.578320 0.867660 0.846880 -0.034753
N15   N     N_R   0.578320 0.132340 0.846880 -0.043188
N16   N     N_R   0.078320 0.367660 0.846880 -0.034753
N17   N     N_R   0.078320 0.632340 0.846880 -0.043186
N18   N     N_R   0.573370 0.074390 0.787040 -0.041507
N19   N     N_R   0.573370 0.925610 0.787040 -0.033566
N20   N     N_R   0.073370 0.574390 0.787040 -0.041509
N21   N     N_R   0.073370 0.425610 0.787040 -0.033567
N22   N     N_R   0.596270 0.927870 0.064040 -0.040689
N23   N     N_R   0.908680 0.630160 0.995800 -0.043743
N24   N     N_R   0.596270 0.072130 0.064040 -0.038325
N25   N     N_R   0.096270 0.427870 0.064040 -0.040690
N26   N     N_R   0.096270 0.572130 0.064040 -0.038326
N27   N     N_R   0.908680 0.369840 0.995800 -0.046816
N28   N     N_R   0.421680 0.867580 0.153120 -0.036365
N29   N     N_R   0.421680 0.132420 0.153120 -0.038346
N30   N     N_R   0.921680 0.367580 0.153120 -0.036365
N31   N     N_R   0.921680 0.632420 0.153120 -0.038345
N32   N     N_R   0.403730 0.921770 0.935950 -0.041420
Ni1   Ni    Ni4+2 0.500000 0.131190 0.000000 0.210545
Ni2   Ni    Ni4+2 0.500000 0.868810 0.000000 0.213428
Ni3   Ni    Ni4+2 1.000000 0.631190 0.000000 0.210544
Ni4   Ni    Ni4+2 0.000000 0.368810 0.000000 0.213428
Ni5   Ni    Ni4+2 0.488650 0.000000 0.862740 0.223218
Ni6   Ni    Ni4+2 0.988650 0.500000 0.862740 0.223218
Ni7   Ni    Ni4+2 0.511350 0.000000 0.137260 0.216633
Ni8   Ni    Ni4+2 0.011350 0.500000 0.137260 0.216632
O1    O     O_2   0.626322 0.868986 0.454536 -0.672780
O2    O     O_R   0.490073 0.831635 0.583226 -0.821999
O3    O     O_2   0.883691 0.007577 0.408915 -0.651263
O4    O     O_R   0.848862 0.045727 0.572331 -0.819128
O5    O     O_2   0.126325 0.368988 0.454532 -0.672775
O6    O     O_R   0.990075 0.331639 0.583223 -0.821997
O7    O     O_2   0.383662 0.507567 0.408900 -0.651265
O8    O     O_R   0.348854 0.545708 0.572309 -0.819126

loop_
_geom_bond_atom_site_label_1
_geom_bond_atom_site_label_2
_ccdc_geom_bond_type
N5    N29   A    
N31   Ni3   S    
C40   N28   A    
N25   Ni8   S    
N5    Ni7   S    
H85   O4    S    
C85   H72   S    
C40   C71   A    
C90   O3    D    
C59   N2    A    
C8    C83   A    
N3    N27   A    
C23   C69   A    
C6    C32   S    
N19   Ni5   S    
C57   C66   S    
C8    C86   A    
C14   C33   S    
C55   C68   S    
C3    C49   S    
C58   H53   S    
C11   H67   S    
C20   H11   S    
C39   H43   S    
N1    N2    A    
C67   H77   S    
C16   C31   S    
C47   C91   S    
C12   C68   A    
H84   O2    S    
C64   H60   S    
N23   Ni3   S    
C22   C29   S    
N21   Ni6   S    
C37   H15   S    
C10   C15   S    
C36   H40   S    
C77   H64   S    
C48   H30   S    
N16   Ni4   S    
C19   H10   S    
C47   H29   S    
C87   H74   S    
N32   Ni5   S    
C53   C70   S    
C61   C69   A    
C40   H36   S    
C92   O8    S    
N20   Ni6   S    
C15   C35   S    
H87   O8    S    
C86   H73   S    
N12   N32   A    
C65   H61   S    
C25   H20   S    
N11   Ni3   S    
C52   H48   S    
C9    H45   S    
C85   N19   A    
C7    C87   A    
C92   O7    D    
C45   N22   A    
C22   H18   S    
N9    Ni1   S    
C60   H55   S    
C21   H35   S    
C43   N31   A    
C34   C70   A    
C82   N16   A    
C67   N25   A    
C26   C48   S    
C18   H31   S    
C20   C29   S    
N15   N18   A    
C41   N29   A    
C60   N3    A    
N4    Ni6   S    
C65   N8    A    
N9    N24   A    
C81   H68   S    
C91   O5    D    
C7    C33   S    
C86   N20   A    
C24   H19   S    
N8    N30   A    
C35   C48   S    
N4    N23   A    
N12   Ni2   S    
C52   C54   D    
C18   H9    S    
C39   H17   S    
N7    Ni8   S    
N8    Ni8   S    
C2    C45   A    
C12   N12   A    
C22   C44   S    
C19   H32   S    
C55   H51   S    
C31   C44   S    
N24   Ni7   S    
C36   H14   S    
C77   N11   A    
C13   C30   S    
C6    C84   A    
C4    C79   A    
C65   C73   A    
C15   H4    S    
C30   C73   S    
C1    N1    A    
N10   N22   A    
C29   C74   S    
C44   H27   S    
N26   Ni8   S    
C49   C55   D    
C14   H5    S    
N29   Ni1   S    
C23   N23   A    
C51   C53   D    
C8    C35   S    
C20   C36   S    
N22   Ni7   S    
N17   N20   A    
C35   C39   S    
C9    C14   S    
C78   N26   A    
C90   O4    S    
C2    C52   S    
C81   N15   A    
N10   Ni2   S    
C11   C16   S    
C4    C50   S    
C80   H66   S    
N14   N19   A    
C60   C70   A    
C34   H34   S    
C63   N6    A    
N27   Ni4   S    
C56   H76   S    
C1    C66   A    
C46   H28   S    
C42   H38   S    
C32   C37   S    
C5    C80   A    
C19   C28   S    
C45   H75   S    
C63   H59   S    
C84   H71   S    
C19   C39   S    
N2    Ni5   S    
C62   N5    A    
C46   C90   S    
C58   C68   A    
C56   C89   A    
C54   H50   S    
C83   H70   S    
N7    N31   A    
C24   H24   S    
N3    Ni6   S    
C41   C72   A    
C91   O6    S    
C33   C47   S    
C37   H41   S    
C28   C71   S    
C83   N17   A    
C15   H6    S    
C3    C77   A    
C14   H3    S    
C88   O2    S    
C2    C76   A    
C9    C27   S    
N13   Ni4   S    
N6    Ni7   S    
C10   C28   S    
C13   H83   S    
C25   C47   S    
C13   H78   S    
C11   H82   S    
N28   Ni2   S    
C62   H58   S    
C57   H52   S    
C75   N9    A    
C31   C36   S    
C50   C57   D    
C32   C46   S    
C49   H44   S    
C18   C27   S    
C26   H26   S    
C63   C71   A    
N17   Ni3   S    
C79   H65   S    
C4    C67   A    
C50   H46   S    
C16   H7    S    
C12   H12   S    
C56   N24   A    
C82   H69   S    
C58   N32   A    
C34   N27   A    
C25   C27   S    
C80   N14   A    
C21   C30   S    
C76   H63   S    
C26   C28   S    
C33   C38   S    
C79   N13   A    
N6    N28   A    
C62   C72   A    
C84   N18   A    
C43   H39   S    
C42   N30   A    
C18   C38   S    
C26   H21   S    
C5    C85   A    
C20   H33   S    
C59   C66   A    
C51   C89   S    
C41   H37   S    
C75   H62   S    
C54   C69   S    
C43   C74   A    
N30   Ni4   S    
C78   H79   S    
C42   C73   A    
C87   N21   A    
C53   H49   S    
C38   H42   S    
C10   H81   S    
C38   H16   S    
C61   N4    A    
C17   H8    S    
C24   C30   S    
H86   O6    S    
C64   N7    A    
C76   N10   A    
C75   C89   A    
C23   H23   S    
C13   C17   S    
N18   Ni5   S    
C59   H54   S    
C22   H22   S    
C7    C82   A    
C21   C37   S    
C11   C29   S    
N13   N25   A    
C1    H1    S    
N14   Ni2   S    
C48   C92   S    
C25   H25   S    
C6    C81   A    
C17   C32   S    
C64   C74   A    
C88   O1    D    
C9    H80   S    
N1    Ni1   S    
C17   H2    S    
N16   N21   A    
C44   C88   S    
C3    C78   A    
C61   H57   S    
N11   N26   A    
C21   H13   S    
C27   C72   S    
C16   H88   S    
N15   Ni1   S    
C10   H56   S    
C24   C46   S    
C5    C31   S    
C51   H47   S    
