data_mof_unit_22530.cif
_audit_creation_date              2012-12-11T14:44:00-0500
_audit_creation_method            fapswitch 2.2
_symmetry_space_group_name_H-M    P1
_symmetry_Int_Tables_number       1
_space_group_crystal_system       triclinic
_cell_length_a                    18.927041
_cell_length_b                    10.908909
_cell_length_c                    18.88567
_cell_angle_alpha                 90.011584
_cell_angle_beta                  89.919759
_cell_angle_gamma                 89.997031
_cell_volume                      3899.38398115

loop_
_atom_site_label
_atom_site_type_symbol
_atom_type_description
_atom_site_fract_x
_atom_site_fract_y
_atom_site_fract_z
_atom_type_partial_charge
C1    C     C_R   0.730159 0.376993 0.145792 0.548353
C2    C     C_R   0.269843 0.377002 0.854208 0.551100
C3    C     C_R   0.230158 0.876991 0.145791 0.548354
C4    C     C_R   0.769842 0.877003 0.854208 0.551097
C5    C     C_R   0.512105 0.389236 0.927392 -0.140117
C6    C     C_R   0.487860 0.389241 0.072698 -0.139993
C7    C     C_R   0.012083 0.889248 0.927400 -0.140124
C8    C     C_R   0.987839 0.889229 0.072706 -0.139985
C9    C     C_R   0.006542 0.002557 0.963524 0.292261
C10   C     C_R   0.993389 0.002545 0.036624 0.292448
C11   C     C_R   0.506574 0.502548 0.963511 0.292256
C12   C     C_R   0.493421 0.502553 0.036610 0.292437
C13   C     C_R   0.697573 0.865936 0.037901 -0.130839
C14   C     C_R   0.302399 0.865883 0.962076 -0.130855
C15   C     C_R   0.197572 0.365937 0.037902 -0.130838
C16   C     C_R   0.802405 0.365896 0.962079 -0.130854
C17   C     C_R   0.699898 0.853142 0.964589 -0.131704
C18   C     C_R   0.300073 0.853056 0.035385 -0.131518
C19   C     C_R   0.199897 0.353145 0.964590 -0.131710
C20   C     C_R   0.800079 0.353068 0.035388 -0.131519
C21   C     C_R   0.751853 0.915531 0.925469 0.023332
C22   C     C_R   0.248154 0.915512 0.074534 0.023616
C23   C     C_R   0.251857 0.415525 0.925472 0.023341
C24   C     C_R   0.748157 0.415520 0.074537 0.023609
C25   C     C_R   0.798593 0.995243 0.959561 -0.129447
C26   C     C_R   0.201449 0.995317 0.040474 -0.129385
C27   C     C_R   0.298605 0.495221 0.959567 -0.129441
C28   C     C_R   0.701453 0.495327 0.040476 -0.129389
C29   C     C_R   0.798053 0.004090 0.031926 -0.127514
C30   C     C_R   0.201994 0.004208 0.968109 -0.127695
C31   C     C_R   0.298066 0.504062 0.031931 -0.127525
C32   C     C_R   0.701999 0.504221 0.968111 -0.127693
C33   C     C_R   0.747776 0.939735 0.071956 0.026110
C34   C     C_R   0.252232 0.939782 0.928050 0.025620
C35   C     C_R   0.247781 0.439723 0.071959 0.026115
C36   C     C_R   0.752236 0.439792 0.928052 0.025612
C37   C     C_R   0.473429 0.063798 0.455136 -0.136727
C38   C     C_R   0.464395 0.059940 0.527391 -0.125746
C39   C     C_R   0.973593 0.563670 0.455180 -0.136717
C40   C     C_R   0.964602 0.559824 0.527435 -0.125784
C41   C     C_R   0.481246 0.162262 0.569368 0.035128
C42   C     C_R   0.501453 0.168758 0.423594 0.029221
C43   C     C_R   0.981290 0.662258 0.569378 0.035136
C44   C     C_R   0.001449 0.668719 0.423595 0.029236
C45   C     C_R   0.531157 0.155460 0.146669 0.542186
C46   C     C_R   0.468828 0.155467 0.853344 0.544967
C47   C     C_R   0.031157 0.655459 0.146669 0.542187
C48   C     C_R   0.968828 0.655468 0.853344 0.544962
C49   C     C_R   0.503898 0.271099 0.537467 -0.146413
C50   C     C_R   0.514423 0.274221 0.464546 -0.136826
C51   C     C_R   0.003768 0.771162 0.537437 -0.146315
C52   C     C_R   0.014273 0.774268 0.464510 -0.136811
C53   C     C_R   0.816377 0.937451 0.457448 -0.137263
C54   C     C_R   0.210418 0.023664 0.527217 -0.127252
C55   C     C_R   0.316378 0.437345 0.457437 -0.137352
C56   C     C_R   0.710167 0.523299 0.527276 -0.127341
C57   C     C_R   0.821536 0.927735 0.529817 -0.126582
C58   C     C_R   0.209085 0.010313 0.454805 -0.136903
C59   C     C_R   0.321548 0.427611 0.529806 -0.126612
C60   C     C_R   0.708853 0.510051 0.454862 -0.136883
C61   C     C_R   0.761871 0.897661 0.570711 0.035640
C62   C     C_R   0.249472 0.918621 0.422824 0.029810
C63   C     C_R   0.261871 0.397671 0.570715 0.035607
C64   C     C_R   0.749455 0.418695 0.422816 0.029862
C65   C     C_R   0.697440 0.872208 0.537733 -0.145852
C66   C     C_R   0.296112 0.847260 0.463593 -0.137666
C67   C     C_R   0.197412 0.372369 0.537756 -0.146034
C68   C     C_R   0.796296 0.347634 0.463527 -0.137611
C69   C     C_R   0.691875 0.884413 0.464726 -0.136786
C70   C     C_R   0.298462 0.862411 0.536603 -0.146849
C71   C     C_R   0.191841 0.384572 0.464750 -0.136866
C72   C     C_R   0.798644 0.362720 0.536545 -0.146644
C73   C     C_R   0.751002 0.921211 0.424757 0.030012
C74   C     C_R   0.253900 0.948172 0.568826 0.035001
C75   C     C_R   0.250985 0.421233 0.424764 0.029982
C76   C     C_R   0.753876 0.448108 0.568832 0.035035
C77   C     C_R   0.740712 0.972493 0.146107 0.546103
C78   C     C_R   0.259292 0.972519 0.853898 0.548720
C79   C     C_R   0.240713 0.472489 0.146109 0.546108
C80   C     C_R   0.759294 0.472523 0.853900 0.548716
C81   C     C_R   0.730170 0.379041 0.352196 0.548301
C82   C     C_R   0.272478 0.373661 0.645393 0.548994
C83   C     C_R   0.230169 0.879023 0.352201 0.548298
C84   C     C_R   0.772480 0.873654 0.645390 0.549030
C85   C     C_R   0.531726 0.157723 0.353263 0.547930
C86   C     C_R   0.464087 0.156450 0.644218 0.548196
C87   C     C_R   0.031722 0.657719 0.353261 0.547930
C88   C     C_R   0.964100 0.656451 0.644223 0.548212
C89   C     C_R   0.741468 0.970108 0.354118 0.549178
C90   C     C_R   0.259845 0.976494 0.643547 0.548871
C91   C     C_R   0.241465 0.470115 0.354121 0.549154
C92   C     C_R   0.759840 0.476477 0.643550 0.548900
C93   C     C_R   0.497047 0.163553 0.925742 0.010962
C94   C     C_R   0.502899 0.163546 0.074291 0.011271
C95   C     C_R   0.997046 0.663558 0.925742 0.010961
C96   C     C_R   0.002898 0.663542 0.074292 0.011274
C97   C     C_R   0.502222 0.276757 0.962714 -0.019439
C98   C     C_R   0.497724 0.276756 0.037346 -0.019120
C99   C     C_R   0.002212 0.776762 0.962719 -0.019429
C100  C     C_R   0.997714 0.776752 0.037350 -0.019129
C101  C     C_R   0.501029 0.053432 0.036279 -0.137714
C102  C     C_R   0.498896 0.053436 0.963734 -0.137780
C103  C     C_R   0.001036 0.553430 0.036277 -0.137707
C104  C     C_R   0.998903 0.553438 0.963732 -0.137792
Cr1   Cr    Cr6+3 0.772000 0.169640 0.250110 1.002110
Cr2   Cr    Cr6+3 0.228000 0.169640 0.749890 1.002798
Cr3   Cr    Cr6+3 0.272000 0.669640 0.250110 1.002079
Cr4   Cr    Cr6+3 0.728000 0.669640 0.749890 1.002836
Cr5   Cr    Cr6+3 0.614960 0.323350 0.249260 0.994323
Cr6   Cr    Cr6+3 0.385040 0.323350 0.750740 0.994763
Cr7   Cr    Cr6+3 0.114960 0.823350 0.249260 0.994343
Cr8   Cr    Cr6+3 0.885040 0.823350 0.750740 0.994790
Cr9   Cr    Cr6+3 0.616670 0.010620 0.250840 0.997779
Cr10  Cr    Cr6+3 0.383330 0.010620 0.749160 0.998160
Cr11  Cr    Cr6+3 0.116670 0.510620 0.250840 0.997747
Cr12  Cr    Cr6+3 0.883330 0.510620 0.749160 0.998161
H1    H     H_    0.862787 0.964481 0.427609 0.125765
H2    H     H_    0.177695 0.094633 0.550378 0.135785
H3    H     H_    0.362798 0.464277 0.427584 0.125775
H4    H     H_    0.677257 0.593983 0.550472 0.135671
H5    H     H_    0.872950 0.942505 0.553464 0.136738
H6    H     H_    0.173331 0.067165 0.424338 0.125589
H7    H     H_    0.372980 0.442260 0.553442 0.136810
H8    H     H_    0.672937 0.566687 0.424449 0.125618
H9    H     H_    0.651637 0.844714 0.568303 0.118078
H10   H     H_    0.327680 0.775358 0.439785 0.133347
H11   H     H_    0.151595 0.344990 0.568340 0.118056
H12   H     H_    0.828045 0.276016 0.439666 0.133109
H13   H     H_    0.640651 0.871642 0.440301 0.133220
H14   H     H_    0.334054 0.806509 0.567780 0.117985
H15   H     H_    0.140601 0.371911 0.440340 0.133262
H16   H     H_    0.834414 0.307073 0.567674 0.117940
H17   H     H_    0.526895 0.387942 0.872244 0.117104
H18   H     H_    0.473069 0.387953 0.127846 0.116082
H19   H     H_    0.026871 0.887962 0.872252 0.117083
H20   H     H_    0.973047 0.887933 0.127855 0.116095
H21   H     H_    0.657059 0.818483 0.067711 0.127008
H22   H     H_    0.342881 0.818363 0.932245 0.127047
H23   H     H_    0.157053 0.318493 0.067710 0.126983
H24   H     H_    0.842889 0.318379 0.932248 0.127087
H25   H     H_    0.663203 0.791230 0.939040 0.144620
H26   H     H_    0.336736 0.791065 0.060907 0.144718
H27   H     H_    0.163197 0.291244 0.939039 0.144579
H28   H     H_    0.836743 0.291079 0.060910 0.144746
H29   H     H_    0.838825 0.045572 0.930812 0.142066
H30   H     H_    0.161243 0.045693 0.069247 0.141899
H31   H     H_    0.338842 0.545542 0.930819 0.142025
H32   H     H_    0.661247 0.545702 0.069250 0.141934
H33   H     H_    0.462251 0.982041 0.424505 0.125679
H34   H     H_    0.443614 0.976249 0.550192 0.137184
H35   H     H_    0.962527 0.481835 0.424583 0.125666
H36   H     H_    0.943969 0.476051 0.550259 0.137064
H37   H     H_    0.514704 0.352057 0.568864 0.116813
H38   H     H_    0.536393 0.356397 0.441022 0.133310
H39   H     H_    0.014442 0.852200 0.568804 0.116845
H40   H     H_    0.036104 0.856515 0.440953 0.133254
O1    O     O_R   0.787540 0.042690 0.170470 -0.534017
O2    O     O_R   0.212460 0.042690 0.829530 -0.532287
O3    O     O_R   0.287540 0.542690 0.170470 -0.534037
O4    O     O_R   0.712460 0.542690 0.829530 -0.532260
O5    O     O_R   0.556540 0.252920 0.323970 -0.509211
O6    O     O_R   0.443460 0.252920 0.676030 -0.509970
O7    O     O_R   0.056540 0.752920 0.323970 -0.509180
O8    O     O_R   0.943460 0.752920 0.676030 -0.509961
O9    O     O_R   0.545870 0.051100 0.330840 -0.526466
O10   O     O_R   0.454130 0.051100 0.669160 -0.529279
O11   O     O_R   0.045870 0.551100 0.330840 -0.526530
O12   O     O_R   0.954130 0.551100 0.669160 -0.529317
O13   O     O_R   0.681340 0.959300 0.325510 -0.506438
O14   O     O_R   0.318660 0.959300 0.674490 -0.507566
O15   O     O_R   0.181340 0.459300 0.325510 -0.506453
O16   O     O_R   0.818660 0.459300 0.674490 -0.507547
O17   O     O_3   0.667880 0.167870 0.250070 -0.233191
O18   O     O_3   0.332120 0.167870 0.749930 -0.239228
O19   O     O_3   0.167880 0.667870 0.250070 -0.233188
O20   O     O_3   0.832120 0.667870 0.749930 -0.239215
O21   O     O_R   0.765660 0.292160 0.175050 -0.507684
O22   O     O_R   0.234340 0.292160 0.824950 -0.506195
O23   O     O_R   0.265660 0.792160 0.175050 -0.507678
O24   O     O_R   0.734340 0.792160 0.824950 -0.506198
O25   O     O_R   0.670190 0.408980 0.168550 -0.532754
O26   O     O_R   0.329810 0.408980 0.831450 -0.531107
O27   O     O_R   0.170190 0.908980 0.168550 -0.532772
O28   O     O_R   0.829810 0.908980 0.831450 -0.531088
O29   O     O_R   0.556580 0.251450 0.175160 -0.508236
O30   O     O_R   0.443420 0.251450 0.824840 -0.506944
O31   O     O_R   0.056580 0.751450 0.175160 -0.508240
O32   O     O_R   0.943420 0.751450 0.824840 -0.506946
O33   O     O_R   0.545920 0.049510 0.170320 -0.533344
O34   O     O_R   0.454080 0.049510 0.829680 -0.531536
O35   O     O_R   0.045920 0.549510 0.170320 -0.533340
O36   O     O_R   0.954080 0.549510 0.829680 -0.531542
O37   O     O_R   0.681390 0.957840 0.176710 -0.506792
O38   O     O_R   0.318610 0.957840 0.823290 -0.505211
O39   O     O_R   0.181390 0.457840 0.176710 -0.506782
O40   O     O_R   0.818610 0.457840 0.823290 -0.505221
O41   O     O_R   0.787500 0.044280 0.330990 -0.528300
O42   O     O_R   0.212500 0.044280 0.669010 -0.530416
O43   O     O_R   0.287500 0.544280 0.330990 -0.528327
O44   O     O_R   0.712500 0.544280 0.669010 -0.530450
O45   O     O_R   0.765610 0.293630 0.323860 -0.506810
O46   O     O_R   0.234390 0.293630 0.676140 -0.507482
O47   O     O_R   0.265610 0.793630 0.323860 -0.506866
O48   O     O_R   0.734390 0.793630 0.676140 -0.507447
O49   O     O_R   0.670140 0.410570 0.329080 -0.528660
O50   O     O_R   0.329860 0.410570 0.670920 -0.531325
O51   O     O_R   0.170140 0.910570 0.329080 -0.528564
O52   O     O_R   0.829860 0.910570 0.670920 -0.531334
H41   H     H_    0.504019 0.965222 0.062362 0.149866
H42   H     H_    0.495904 0.965226 0.937634 0.149731
H43   H     H_    0.004032 0.465219 0.062358 0.149863
H44   H     H_    0.995917 0.465230 0.937630 0.149735
O53   O     O_3   0.016573 0.116868 0.931650 -0.547715
C105  C     C_3   0.004487 0.117057 0.857855 -0.040868
H45   H     H_    0.954814 0.067675 0.844093 0.139122
H46   H     H_    0.050363 0.075763 0.829762 0.135701
C106  C     C_3   0.997221 0.248735 0.832550 -0.338525
H47   H     H_    0.045818 0.301279 0.845429 0.155752
H48   H     H_    0.989080 0.250391 0.774337 0.090924
H49   H     H_    0.951153 0.292678 0.858632 0.164433
O54   O     O_3   0.983350 0.116839 0.068542 -0.547515
C107  C     C_3   0.995548 0.117030 0.142318 -0.040685
H50   H     H_    0.045242 0.067643 0.155995 0.138679
H51   H     H_    0.949718 0.075738 0.170471 0.134673
C108  C     C_3   0.002845 0.248710 0.167640 -0.339462
H52   H     H_    0.954224 0.301253 0.154854 0.155316
H53   H     H_    0.011082 0.250371 0.225839 0.088426
H54   H     H_    0.048864 0.292657 0.141491 0.164720
O55   O     O_3   0.516629 0.616844 0.931628 -0.547720
C109  C     C_3   0.504448 0.617044 0.857846 -0.040828
H55   H     H_    0.454752 0.567681 0.844143 0.139125
H56   H     H_    0.550285 0.575735 0.829692 0.135657
C110  C     C_3   0.497167 0.748726 0.832554 -0.338509
H57   H     H_    0.545794 0.801246 0.845363 0.155757
H58   H     H_    0.488940 0.750390 0.774351 0.090945
H59   H     H_    0.451143 0.792691 0.858705 0.164418
O56   O     O_3   0.483400 0.616861 0.068519 -0.547506
C111  C     C_3   0.495529 0.617042 0.142308 -0.040720
H60   H     H_    0.545205 0.567638 0.156030 0.138676
H61   H     H_    0.449665 0.575765 0.170419 0.134694
C112  C     C_3   0.502819 0.748719 0.167641 -0.339465
H62   H     H_    0.454216 0.801281 0.154805 0.155314
H63   H     H_    0.510996 0.750374 0.225849 0.088430
H64   H     H_    0.548871 0.792650 0.141538 0.164733
H65   H     H_    0.836315 0.064717 0.056112 0.164519
H66   H     H_    0.163761 0.064907 0.943944 0.164270
H67   H     H_    0.336335 0.564675 0.056119 0.164467
H68   H     H_    0.663767 0.564921 0.943947 0.164333

loop_
_geom_bond_atom_site_label_1
_geom_bond_atom_site_label_2
_ccdc_geom_bond_type
C58   C62   A    
C87   O7    A    
C62   C83   S    
C15   C19   A    
C101  C102  A    
C56   C76   A    
C48   C95   S    
C55   C59   A    
C8    H20   S    
C85   O5    A    
C14   C18   A    
Cr5   O17   S    
C86   O10   A    
C72   C76   A    
C45   O29   A    
C3    O27   A    
C97   C98   A    
Cr6   O6    S    
Cr8   O28   S    
C71   C75   A    
C55   H3    S    
O53   C105  S    
Cr5   O49   S    
C106  H49   S    
C5    H17   S    
C41   C86   S    
C111  C112  S    
C51   H39   S    
C37   C38   A    
C57   C61   A    
C7    C99   A    
C32   H68   S    
Cr10  O34   S    
C43   C88   S    
C32   C36   A    
C49   H37   S    
C69   C73   A    
C46   O34   A    
C48   O32   A    
C64   C68   A    
C79   O3    A    
C105  H46   S    
C80   O4    A    
C94   C98   A    
C95   C99   A    
C29   C33   A    
C70   H14   S    
C108  H54   S    
C79   O39   A    
Cr12  O16   S    
C109  C110  S    
C17   H25   S    
C112  H62   S    
C2    O26   A    
C81   O49   A    
C41   C49   A    
C37   C42   A    
C26   H30   S    
C77   O37   A    
Cr10  O14   S    
Cr11  O19   S    
C103  C104  A    
C10   O54   S    
C54   C74   A    
C1    O21   A    
Cr9   O33   S    
C78   O2    A    
C40   C43   A    
C87   O11   A    
C20   C24   A    
C94   C101  A    
C88   O12   A    
C70   C74   A    
C83   O51   A    
C47   C96   S    
Cr10  O10   S    
C86   O6    A    
C23   C27   A    
C44   C87   S    
Cr10  O38   S    
C9    C10   A    
C68   H12   S    
C67   C71   A    
C75   C91   S    
Cr2   O42   S    
Cr11  O35   S    
C44   C52   A    
Cr1   O41   S    
Cr12  O36   S    
C11   O55   S    
Cr1   O17   S    
O56   C111  S    
C101  H41   S    
C25   C29   A    
C56   H4    S    
C31   H67   S    
C16   H24   S    
C29   H65   S    
C4    O24   A    
Cr8   O8    S    
C45   C94   S    
C6    C12   A    
C15   C35   A    
C110  H59   S    
C72   H16   S    
C15   H23   S    
Cr6   O18   S    
C59   H7    S    
C80   O40   A    
C111  H61   S    
C58   H6    S    
C28   H32   S    
C30   C34   A    
C63   C82   S    
C27   C31   A    
C51   C52   A    
C6    C98   A    
C14   H22   S    
C18   H26   S    
C62   C66   A    
Cr7   O7    S    
Cr8   O52   S    
C38   C41   A    
C83   O47   A    
C36   C80   S    
C110  H57   S    
C103  H43   S    
C39   C40   A    
C82   O46   A    
C1    O25   A    
C105  H45   S    
C102  H42   S    
C81   O45   A    
C89   O13   A    
C107  C108  S    
C9    O53   S    
C106  H47   S    
Cr2   O2    S    
C71   H15   S    
C61   C84   S    
C4    O28   A    
C3    O23   A    
C68   C72   A    
C112  H63   S    
C13   H21   S    
Cr4   O44   S    
C19   C23   A    
C73   C89   S    
C63   C67   A    
Cr3   O47   S    
O55   C109  S    
C67   H11   S    
C64   C81   S    
Cr2   O46   S    
O54   C107  S    
C84   O52   A    
C93   C97   A    
Cr1   O45   S    
C99   C100  A    
C28   C32   A    
C16   C20   A    
Cr1   O1    S    
C90   O14   A    
Cr7   O27   S    
C108  H52   S    
Cr2   O18   S    
Cr6   O50   S    
C42   C85   S    
Cr1   O21   S    
C46   O30   A    
C109  H56   S    
C110  H58   S    
Cr6   O30   S    
C76   C92   S    
C90   O42   A    
Cr12  O20   S    
C45   O33   A    
C12   O56   S    
Cr8   O20   S    
C40   H36   S    
C42   C50   A    
C26   C30   A    
C25   H29   S    
C54   H2    S    
C78   O38   A    
C92   O16   A    
C49   C50   A    
Cr7   O19   S    
C59   C63   A    
Cr11  O15   S    
C52   H40   S    
C104  H44   S    
Cr11  O11   S    
Cr7   O51   S    
C82   O50   A    
C89   O41   A    
C95   C104  A    
Cr4   O24   S    
Cr9   O17   S    
Cr8   O32   S    
C54   C58   A    
Cr5   O25   S    
C91   O43   A    
C7    C9    A    
C21   C25   A    
C111  H60   S    
C107  H51   S    
Cr9   O13   S    
C53   C57   A    
C30   H66   S    
Cr3   O23   S    
C18   C22   A    
Cr9   O37   S    
C8    C10   A    
C53   C73   A    
C24   C28   A    
Cr9   O9    S    
C37   H33   S    
C105  C106  S    
C93   C102  A    
C14   C34   A    
Cr3   O3    S    
C20   H28   S    
C47   O35   A    
C5    C11   A    
C39   C44   A    
Cr4   O4    S    
C91   O15   A    
C106  H48   S    
Cr5   O29   S    
C96   C100  A    
Cr7   O31   S    
C13   C17   A    
C33   C77   S    
C60   C64   A    
C112  H64   S    
C85   O9    A    
C74   C90   S    
C8    C100  A    
C66   H10   S    
C55   C75   A    
C6    H18   S    
C88   O8    A    
C34   C78   S    
Cr3   O43   S    
C4    C21   S    
C43   C51   A    
C66   C70   A    
C46   C93   S    
Cr3   O19   S    
C50   H38   S    
C69   H13   S    
C65   C69   A    
Cr4   O20   S    
C31   C35   A    
C35   C79   S    
C108  H53   S    
C38   H34   S    
C5    C97   A    
C53   H1    S    
C61   C65   A    
Cr11  O39   S    
C109  H55   S    
C39   H35   S    
C19   H27   S    
Cr4   O48   S    
C48   O36   A    
C7    H19   S    
C57   H5    S    
Cr12  O40   S    
C56   C60   A    
Cr10  O18   S    
Cr6   O26   S    
C1    C24   S    
C27   H31   S    
C13   C33   A    
C22   C26   A    
C96   C103  A    
C77   O1    A    
C2    C23   S    
C60   H8    S    
Cr12  O12   S    
C3    C22   S    
Cr5   O5    S    
C2    O22   A    
C84   O48   A    
C92   O44   A    
C47   O31   A    
C107  H50   S    
Cr2   O22   S    
C16   C36   A    
C11   C12   A    
C65   H9    S    
C17   C21   A    
