data_mof_unit_18928.cif
_audit_creation_date              2012-12-10T17:05:43-0500
_audit_creation_method            fapswitch 2.2
_symmetry_space_group_name_H-M    P1
_symmetry_Int_Tables_number       1
_space_group_crystal_system       triclinic
_cell_length_a                    15.889796
_cell_length_b                    11.032832
_cell_length_c                    9.868927
_cell_angle_alpha                 111.089222
_cell_angle_beta                  99.066232
_cell_angle_gamma                 90.887558
_cell_volume                      1589.16786856

loop_
_atom_site_label
_atom_site_type_symbol
_atom_type_description
_atom_site_fract_x
_atom_site_fract_y
_atom_site_fract_z
_atom_type_partial_charge
C1    C     C_R   0.492222 0.254246 0.440695 0.759560
C2    C     C_3   0.965765 0.403000 0.604113 0.057643
C3    C     C_3   0.918663 0.486214 0.512788 0.266596
C4    C     C_3   0.959541 0.629454 0.585507 -0.396816
C5    C     C_3   0.057208 0.631332 0.585910 -0.370297
C6    C     C_1   0.825751 0.486849 0.508012 -0.107610
C7    C     C_1   0.174976 0.496900 0.498641 -0.086879
C8    C     C_1   0.250543 0.499100 0.499266 -0.146878
C9    C     C_2   0.482563 0.115220 0.407580 0.387555
C10   C     C_2   0.508432 0.068940 0.513402 -0.190139
C11   C     C_2   0.513428 0.885400 0.593140 0.441797
C12   C     C_R   0.340241 0.500263 0.500101 0.840128
C13   C     C_2   0.498530 0.930322 0.483662 -0.245140
C14   C     C_2   0.508114 0.510972 0.083652 -0.166924
C15   C     C_2   0.494629 0.488148 0.920491 0.662684
C16   C     C_R   0.506696 0.745907 0.559433 0.731197
C17   C     C_R   0.659847 0.497778 0.499801 0.810725
C18   C     C_3   0.060827 0.395621 0.574416 -0.398502
C19   C     C_3   0.030832 0.443049 0.343288 -0.389971
C20   C     C_3   0.934138 0.442746 0.350064 -0.394093
C21   C     C_1   0.749699 0.491163 0.501659 -0.182943
C22   C     C_3   0.083203 0.492688 0.501537 0.274335
Cu1   Cu    Cu3+1 0.514650 0.521810 0.644910 1.020808
Cu2   Cu    Cu3+1 0.485350 0.478190 0.355090 0.981895
H1    H     H_    0.108980 0.402400 0.671090 0.155284
H2    H     H_    0.930569 0.689671 0.523455 0.161107
H3    H     H_    0.479080 0.863797 0.370039 0.189114
H4    H     H_    0.537748 0.134287 0.623464 0.209431
H5    H     H_    0.557471 0.583235 0.159221 0.136788
H6    H     H_    0.071396 0.296950 0.498122 0.161369
H7    H     H_    0.416778 0.376541 0.064868 0.260794
H8    H     H_    0.047083 0.507009 0.284471 0.179409
H9    H     H_    0.046722 0.343206 0.278769 0.166948
H10   H     H_    0.898253 0.349750 0.276589 0.161539
H11   H     H_    0.906425 0.512639 0.300736 0.168852
H12   H     H_    0.092944 0.670968 0.700686 0.170395
H13   H     H_    0.074740 0.698936 0.532198 0.169411
H14   H     H_    0.946743 0.678152 0.699392 0.181614
N1    N     N_2   0.463320 0.445430 0.137380 -0.259594
N2    N     N_2   0.536720 0.554500 0.862620 -0.262603
O1    O     O_R   0.507820 0.332330 0.577400 -0.563615
O2    O     O_R   0.483070 0.295500 0.332660 -0.531124
O3    O     O_R   0.391820 0.518430 0.622420 -0.528192
O4    O     O_R   0.367070 0.481600 0.377680 -0.572992
O5    O     O_R   0.516930 0.704500 0.667340 -0.525898
O6    O     O_R   0.492180 0.667670 0.422600 -0.621964
O7    O     O_R   0.632930 0.518400 0.622320 -0.592596
O8    O     O_R   0.608180 0.481570 0.377580 -0.571000
C23   C     C_R   0.927469 0.257942 0.553365 0.092788
C24   C     C_R   0.908086 0.201609 0.655064 -0.155314
C25   C     C_R   0.875524 0.071894 0.608352 -0.127278
C26   C     C_R   0.865852 0.991617 0.460506 -0.111733
C27   C     C_R   0.891292 0.039975 0.360063 -0.150984
C28   C     C_R   0.922504 0.170107 0.405735 -0.147759
H15   H     H_    0.920505 0.253944 0.772625 0.142318
H16   H     H_    0.859909 0.032638 0.688109 0.131235
H17   H     H_    0.841940 0.890627 0.424844 0.119330
H18   H     H_    0.889077 0.975525 0.246786 0.122499
H19   H     H_    0.949015 0.196473 0.325971 0.122566
C29   C     C_R   0.962349 0.478101 0.772535 0.094805
C30   C     C_R   0.034196 0.549427 0.879447 -0.139558
C31   C     C_R   0.027335 0.615655 0.026930 -0.137738
C32   C     C_R   0.949606 0.612435 0.073519 -0.134382
C33   C     C_R   0.878134 0.543972 0.972402 -0.153611
C34   C     C_R   0.883258 0.482453 0.823154 -0.176381
H20   H     H_    0.096381 0.560180 0.853566 0.126512
H21   H     H_    0.082880 0.669723 0.105638 0.135011
H22   H     H_    0.944833 0.663059 0.188154 0.116413
H23   H     H_    0.818781 0.537821 0.010697 0.124577
H24   H     H_    0.825836 0.430987 0.748567 0.142750
F1    F     F_    0.535853 0.967948 0.736218 -0.640661
F2    F     F_    0.443318 0.035180 0.270585 -0.675494
F3    F     F_    0.437081 0.389364 0.828169 -0.642757
C35   C     C_R   0.589193 0.669203 0.954855 0.151154
C36   C     C_R   0.676495 0.675758 0.948961 -0.115127
C37   C     C_R   0.727686 0.791795 0.026549 -0.176269
C38   C     C_R   0.691476 0.902867 0.109096 -0.127016
C39   C     C_R   0.604349 0.897693 0.114660 -0.056355
C40   C     C_R   0.552982 0.781458 0.037687 -0.130215
H25   H     H_    0.704397 0.591035 0.882634 0.142408
H26   H     H_    0.795054 0.796097 0.020819 0.139929
H27   H     H_    0.730465 0.993534 0.167174 0.139631
H28   H     H_    0.576858 0.984799 0.176534 0.192378
H29   H     H_    0.485075 0.779323 0.039822 0.161122

loop_
_geom_bond_atom_site_label_1
_geom_bond_atom_site_label_2
_ccdc_geom_bond_type
Cu1   O5    S    
C5    H13   S    
C2    C18   S    
Cu2   O2    S    
C19   C20   S    
C17   O8    A    
C3    C6    S    
C7    C8    T    
C38   C39   A    
C31   H21   S    
C12   O3    A    
C40   H29   S    
C2    C29   S    
C23   C28   A    
C5    H12   S    
Cu2   N1    S    
Cu1   O3    S    
C25   H16   S    
C14   N1    D    
C20   H11   S    
C30   H20   S    
C5    C22   S    
N2    C35   S    
Cu1   N2    S    
Cu1   Cu2   S    
C9    F2    S    
C18   H6    S    
C36   H25   S    
C20   H10   S    
C18   H1    S    
C19   H8    S    
C39   H28   S    
C28   H19   S    
Cu1   O7    S    
C35   C36   A    
C25   C26   A    
Cu2   O8    S    
C19   C22   S    
C1    C9    S    
C37   C38   A    
C19   H9    S    
C16   O6    A    
C39   C40   A    
C27   C28   A    
C6    C21   T    
C17   C21   S    
C29   C30   A    
C16   O5    A    
C36   C37   A    
C31   C32   A    
C2    C23   S    
C11   C16   S    
C8    C12   S    
C24   C25   A    
C3    C20   S    
C33   H23   S    
C1    O1    A    
C15   F3    S    
C4    H14   S    
C29   C34   A    
C35   C40   A    
Cu2   O4    S    
C14   H5    S    
C3    C4    S    
C26   C27   A    
C9    C10   D    
C10   H4    S    
C32   H22   S    
C18   C22   S    
C17   O7    A    
C4    C5    S    
C10   C13   S    
C37   H26   S    
C4    H2    S    
C27   H18   S    
C7    C22   S    
C24   H15   S    
Cu1   O1    S    
Cu2   O6    S    
C33   C34   A    
C2    C3    S    
C12   O4    A    
C11   C13   D    
C38   H27   S    
H7    N1    S    
C11   F1    S    
C30   C31   A    
C15   N2    D    
C26   H17   S    
C32   C33   A    
C1    O2    A    
C23   C24   A    
C14   C15   S    
C13   H3    S    
C34   H24   S    
