data_mof_unit_17379.cif
_audit_creation_date              2012-10-26T19:52:51-0400
_audit_creation_method            fapswitch 2.2
_symmetry_space_group_name_H-M    P1
_symmetry_Int_Tables_number       1
_space_group_crystal_system       triclinic
_cell_length_a                    15.000496
_cell_length_b                    10.865538
_cell_length_c                    9.605063
_cell_angle_alpha                 89.723452
_cell_angle_beta                  89.796749
_cell_angle_gamma                 90.750398
_cell_volume                      1565.35171658

loop_
_atom_site_label
_atom_site_type_symbol
_atom_type_description
_atom_site_fract_x
_atom_site_fract_y
_atom_site_fract_z
_atom_type_partial_charge
C1    C     C_R   0.504929 0.262624 0.499758 0.581089
C2    C     C_R   0.186241 0.412487 0.420509 -0.118079
C3    C     C_R   0.232661 0.499246 0.499982 0.024999
C4    C     C_R   0.329091 0.499367 0.500159 0.545758
C5    C     C_R   0.187682 0.587330 0.576806 -0.099891
C6    C     C_R   0.494389 0.062998 0.621699 0.005661
C7    C     C_R   0.509414 0.128642 0.498005 0.001371
C8    C     C_R   0.522482 0.062319 0.373049 0.223217
C9    C     C_R   0.514810 0.934588 0.373578 -0.064266
C10   C     C_R   0.499673 0.870246 0.498278 -0.048773
C11   C     C_R   0.488342 0.935544 0.621507 -0.027008
C12   C     C_R   0.908147 0.599459 0.567276 0.039945
C13   C     C_3   0.539693 0.921472 0.753174 0.171572
C14   C     C_3   0.550651 0.060928 0.750850 0.469242
C15   C     C_R   0.557319 0.574956 0.073302 0.205024
C16   C     C_R   0.500475 0.737217 0.499669 0.576819
C17   C     C_R   0.437383 0.436573 0.076101 0.085680
C18   C     C_R   0.436302 0.437332 0.928268 0.382385
C19   C     C_R   0.559344 0.571690 0.926632 0.157720
C20   C     C_3   0.659683 0.568449 0.926915 -0.134744
C21   C     C_3   0.656199 0.577901 0.084793 0.091845
C22   C     C_R   0.670898 0.502463 0.499472 0.593646
C23   C     C_R   0.949588 0.324340 0.346618 -0.060797
C24   C     C_R   0.814546 0.602631 0.563066 0.202726
C25   C     C_R   0.767468 0.506733 0.497412 0.023990
C26   C     C_R   0.812299 0.414870 0.425578 -0.141400
C27   C     C_R   0.905058 0.414449 0.422198 -0.014969
C28   C     C_R   0.953417 0.505208 0.495114 0.028630
C29   C     C_2   0.699663 0.448533 0.880831 0.261988
C30   C     C_2   0.085817 0.228041 0.251243 0.256661
C31   C     C_R   0.043026 0.322566 0.340335 0.011209
C32   C     C_R   0.092608 0.411579 0.417027 -0.009846
C33   C     C_R   0.047041 0.502409 0.494913 0.059739
C34   C     C_R   0.095114 0.591016 0.572997 0.022059
C35   C     C_R   0.050145 0.682672 0.645624 -0.118241
C36   C     C_R   0.957661 0.687873 0.641562 -0.071610
Cl1   Cl    Cl    0.756075 0.731354 0.626618 -0.603239
Cl2   Cl    Cl    0.470269 0.858335 0.888524 -0.493557
Cl3   Cl    Cl    0.500863 0.140839 0.891390 -0.316901
Cl4   Cl    Cl    0.663630 0.109603 0.721073 -0.458995
Cl5   Cl    Cl    0.351316 0.349829 0.849336 -0.504481
Cl6   Cl    Cl    0.695052 0.723071 0.148296 -0.492919
Cl7   Cl    Cl    0.560726 0.130944 0.217195 -0.407302
Cu1   Cu    Cu3+1 0.500000 0.499980 0.640670 1.136214
Cu2   Cu    Cu3+1 0.500000 0.500020 0.359330 1.059990
H1    H     H_    0.526250 0.885524 0.277310 0.229449
H2    H     H_    0.086674 0.751094 0.705107 0.146035
H3    H     H_    0.925596 0.760376 0.699134 0.203970
H4    H     H_    0.759490 0.449970 0.817071 0.134487
H5    H     H_    0.154267 0.237664 0.216729 0.123951
H6    H     H_    0.602778 0.870525 0.738776 0.190805
H7    H     H_    0.388190 0.382596 0.133107 0.157335
H8    H     H_    0.690107 0.650510 0.875973 0.196111
H9    H     H_    0.683970 0.497481 0.140975 0.175582
H10   H     H_    0.774494 0.343523 0.372342 0.155631
H11   H     H_    0.910853 0.256453 0.289603 0.189577
H12   H     H_    0.224820 0.344903 0.365630 0.105096
H13   H     H_    0.225109 0.654667 0.636777 0.137224
N1    N     N_R   0.500570 0.500930 0.147930 -0.279845
N2    N     N_R   0.500570 0.500890 0.852020 -0.216359
O1    O     O_R   0.500000 0.319640 0.618810 -0.430251
O2    O     O_2   0.043828 0.137486 0.212513 -0.448997
O3    O     O_R   0.500010 0.319680 0.381230 -0.471827
O4    O     O_R   0.370250 0.499950 0.618800 -0.453885
O5    O     O_R   0.370260 0.499990 0.381220 -0.530339
O6    O     O_R   0.499990 0.680320 0.618770 -0.480670
O7    O     O_R   0.500000 0.680360 0.381190 -0.486763
O8    O     O_R   0.629740 0.500010 0.618780 -0.495263
O9    O     O_R   0.629750 0.500050 0.381200 -0.496801
O10   O     O_2   0.667218 0.349806 0.917259 -0.386416

loop_
_geom_bond_atom_site_label_1
_geom_bond_atom_site_label_2
_ccdc_geom_bond_type
C17   C18   A    
Cu2   O7    S    
C5    C34   A    
C36   H3    S    
C6    C7    A    
C23   C27   A    
Cu1   O1    S    
C6    C14   S    
C9    C10   A    
C12   C24   A    
C22   O9    A    
Cu1   O6    S    
C19   C20   S    
C8    Cl7   S    
C35   H2    S    
C32   C33   A    
C3    C4    S    
C30   O2    D    
C33   C34   A    
C26   C27   A    
C2    H12   S    
C9    H1    S    
C16   O7    A    
C10   C16   S    
C13   C14   S    
C20   C21   S    
C15   C19   A    
C11   C13   S    
C22   O8    A    
C13   Cl2   S    
C21   H9    S    
C5    H13   S    
C17   N1    A    
C1    O3    A    
C17   H7    S    
C18   N2    A    
C26   H10   S    
Cu1   N2    S    
C28   C33   A    
C34   C35   A    
C23   C31   A    
C2    C3    A    
C20   C29   S    
C6    C11   A    
Cu2   O9    S    
Cu2   O5    S    
C30   C31   S    
C30   H5    S    
C7    C8    A    
Cu1   O8    S    
C12   C36   A    
C10   C11   A    
C14   Cl4   S    
C21   Cl6   S    
C15   C21   S    
C16   O6    A    
C24   C25   A    
C12   C28   A    
C8    C9    A    
C2    C32   A    
C29   O10   D    
C18   Cl5   S    
C23   H11   S    
C27   C28   A    
C24   Cl1   S    
C4    O4    A    
C4    O5    A    
Cu2   N1    S    
C19   N2    A    
C29   H4    S    
C1    C7    S    
C25   C26   A    
C13   H6    S    
C22   C25   S    
C15   N1    A    
Cu2   O3    S    
Cu1   O4    S    
Cu1   Cu2   S    
C31   C32   A    
C14   Cl3   S    
C20   H8    S    
C3    C5    A    
C35   C36   A    
C1    O1    A    
