data_mof_unit_64748.cif
_audit_creation_date              2012-12-10T17:34:45-0500
_audit_creation_method            fapswitch 2.2
_symmetry_space_group_name_H-M    P1
_symmetry_Int_Tables_number       1
_space_group_crystal_system       triclinic
_cell_length_a                    15.624433
_cell_length_b                    15.563172
_cell_length_c                    19.402202
_cell_angle_alpha                 77.846634
_cell_angle_beta                  98.283786
_cell_angle_gamma                 112.08198
_cell_volume                      4262.89706101

loop_
_atom_site_label
_atom_site_type_symbol
_atom_type_description
_atom_site_fract_x
_atom_site_fract_y
_atom_site_fract_z
_atom_type_partial_charge
Br1   Br    Br    0.254724 0.122033 0.574636 -0.445076
Br2   Br    Br    0.685584 0.546042 0.772395 -0.430896
Br3   Br    Br    0.282903 0.411065 0.732084 -0.424362
Br4   Br    Br    0.435851 0.336637 0.042570 -0.395788
Br5   Br    Br    0.717216 0.594553 0.249914 -0.412401
Br6   Br    Br    0.547256 0.662497 0.954184 -0.426256
C1    C     C_R   0.746432 0.542084 0.527882 0.796108
C2    C     C_2   0.505136 0.539753 0.012181 0.137828
C3    C     C_2   0.474978 0.459741 0.984877 0.257095
C4    C     C_R   0.253107 0.460663 0.470631 0.824705
C5    C     C_R   0.482591 0.479200 0.763788 -0.184673
C6    C     C_R   0.996097 0.641898 0.583107 -0.098655
C7    C     C_R   0.843795 0.555981 0.536172 -0.116388
C8    C     C_R   0.094881 0.354510 0.441277 -0.202114
C9    C     C_R   0.001049 0.318024 0.451497 -0.261157
C10   C     C_R   0.960740 0.367191 0.481238 0.564631
C11   C     C_R   0.013649 0.460943 0.492058 0.056982
C12   C     C_R   0.507775 0.536540 0.088209 0.087755
C13   C     C_R   0.110725 0.496135 0.484920 -0.035964
C14   C     C_R   0.974569 0.518844 0.514789 -0.022344
C15   C     C_R   0.033757 0.595092 0.548609 0.020383
C16   C     C_R   0.454170 0.249563 0.527677 0.876810
C17   C     C_R   0.129236 0.627315 0.543510 0.449365
C18   C     C_R   0.164290 0.585070 0.503447 -0.261774
C19   C     C_R   0.880017 0.507653 0.501065 0.486093
C20   C     C_R   0.901249 0.619815 0.578889 -0.250864
C21   C     C_R   0.151865 0.439987 0.462265 -0.056881
C22   C     C_R   0.320093 0.996451 0.529342 -0.191693
C23   C     C_R   0.593099 0.566657 0.127015 -0.133326
C24   C     C_R   0.437222 0.150006 0.533585 -0.177579
C25   C     C_R   0.669332 0.905131 0.470864 -0.155375
C26   C     C_R   0.702503 0.994445 0.488307 -0.173598
C27   C     C_R   0.641344 0.033249 0.502445 -0.091744
C28   C     C_R   0.544922 0.750699 0.471579 0.772656
C29   C     C_R   0.544206 0.987146 0.492664 0.122500
C30   C     C_R   0.510756 0.895352 0.474920 0.074590
C31   C     C_R   0.479080 0.025863 0.504821 0.047477
C32   C     C_R   0.384085 0.967226 0.506903 0.042476
C33   C     C_R   0.352695 0.881011 0.483896 -0.174738
C34   C     C_R   0.596816 0.558658 0.200277 0.265445
C35   C     C_R   0.414752 0.846935 0.465803 -0.191133
C36   C     C_R   0.503679 0.121196 0.512018 0.326465
C37   C     C_R   0.346919 0.086134 0.545014 0.225858
C38   C     C_R   0.574102 0.852898 0.468076 -0.063940
C39   C     C_R   0.487720 0.486884 0.688055 0.926943
C40   C     C_R   0.512710 0.512040 0.311369 0.844084
C41   C     C_R   0.513572 0.520683 0.234844 -0.080141
C42   C     C_R   0.428295 0.491877 0.195103 -0.214998
C43   C     C_R   0.425390 0.500352 0.122199 -0.082966
C44   C     C_R   0.560747 0.491236 0.880165 -0.216084
C45   C     C_R   0.564898 0.500191 0.808016 0.250405
C46   C     C_R   0.395748 0.448708 0.792643 0.102919
C47   C     C_R   0.392543 0.441626 0.866280 0.478239
C48   C     C_R   0.475720 0.463312 0.909045 0.011045
H1    H     H_    0.363627 0.463508 0.220446 0.178450
H2    H     H_    0.672600 0.097022 0.524389 0.205148
H3    H     H_    0.776456 0.031655 0.495029 0.158972
H4    H     H_    0.386507 0.781188 0.445839 0.149636
H5    H     H_    0.656808 0.593967 0.100470 0.191003
H6    H     H_    0.624337 0.508096 0.913975 0.209836
H7    H     H_    0.359058 0.477575 0.092269 0.185420
H8    H     H_    0.258566 0.410743 0.862640 0.383402
H9    H     H_    0.251749 0.708903 0.573398 0.348086
H10   H     H_    0.764516 0.457391 0.442238 0.337666
H11   H     H_    0.847744 0.256381 0.495783 0.333685
H12   H     H_    0.873005 0.656668 0.605655 0.181855
H13   H     H_    0.604003 0.244535 0.506808 0.349419
H14   H     H_    0.039790 0.697271 0.611987 0.217553
H15   H     H_    0.124122 0.311148 0.422803 0.201660
H16   H     H_    0.960860 0.247887 0.440659 0.156633
H17   H     H_    0.234043 0.623301 0.488249 0.166587
H18   H     H_    0.279336 0.840457 0.478545 0.179170
H19   H     H_    0.248434 0.949963 0.533488 0.197983
H20   H     H_    0.718851 0.873897 0.465422 0.172996
O1    O     O_3   0.500000 0.500000 0.500000 -0.516915
O2    O     O_R   0.533750 0.444440 0.667550 -0.604732
O3    O     O_R   0.573150 0.573190 0.344350 -0.601681
O4    O     O_R   0.446010 0.535260 0.643730 -0.601152
O5    O     O_R   0.447090 0.447110 0.344370 -0.646736
O6    O     O_3   0.310877 0.414714 0.898557 -0.704959
O7    O     O_3   0.186577 0.703403 0.574348 -0.775750
O8    O     O_3   0.828909 0.458964 0.447651 -0.700750
O9    O     O_3   0.873913 0.321143 0.506782 -0.715280
O10   O     O_3   0.585550 0.186716 0.486237 -0.771626
O11   O     O_R   0.412670 0.287020 0.475980 -0.607639
O12   O     O_R   0.592640 0.718300 0.442410 -0.636738
O13   O     O_R   0.691640 0.476740 0.569450 -0.610787
O14   O     O_R   0.303050 0.517940 0.512160 -0.635850
O15   O     O_R   0.716100 0.590510 0.475920 -0.626698
O16   O     O_R   0.289200 0.414810 0.442470 -0.639798
O17   O     O_R   0.514260 0.299330 0.569480 -0.639970
O18   O     O_R   0.480430 0.695350 0.512130 -0.645037
Zn1   Zn    Zn3+2 0.413740 0.413730 0.441720 1.019975
Zn2   Zn    Zn3+2 0.558890 0.431320 0.575310 1.052345
Zn3   Zn    Zn3+2 0.433530 0.561080 0.541290 1.011281
Zn4   Zn    Zn3+2 0.593840 0.593870 0.441680 1.017386

loop_
_geom_bond_atom_site_label_1
_geom_bond_atom_site_label_2
_ccdc_geom_bond_type
C4    C21   S    
C42   H1    S    
C34   C41   A    
C29   C30   A    
O1    Zn3   S    
C33   C35   A    
C47   C48   A    
C6    H14   S    
C4    O14   A    
C44   C48   A    
H9    O7    S    
C39   O2    A    
H8    O6    S    
C29   C31   A    
C35   H4    S    
O5    Zn1   S    
C40   O5    A    
H11   O9    S    
C14   C19   A    
C9    C10   A    
C1    O15   A    
O13   Zn2   S    
C11   C14   A    
C28   O12   A    
C16   O11   A    
C31   C36   A    
C5    C46   A    
O2    Zn2   S    
O11   Zn1   S    
Br1   C37   S    
C1    O13   A    
C41   C42   A    
C2    C3    D    
C33   H18   S    
C39   O4    A    
C8    C21   A    
C13   C21   A    
C27   H2    S    
C12   C43   A    
O14   Zn3   S    
H13   O10   S    
C7    C19   A    
C30   C35   A    
C26   H3    S    
C22   H19   S    
O1    Zn4   S    
C43   H7    S    
C25   C38   A    
C20   H12   S    
C23   H5    S    
C47   O6    S    
C36   O10   S    
C10   C11   A    
C25   H20   S    
Br6   C2    S    
C6    C15   A    
O18   Zn3   S    
C2    C12   S    
C6    C20   A    
C31   C32   A    
C22   C37   A    
C25   C26   A    
C22   C32   A    
O4    Zn3   S    
C16   O17   A    
C44   C45   A    
C28   C38   S    
C12   C23   A    
H10   O8    S    
O12   Zn4   S    
C42   C43   A    
O1    Zn2   S    
C15   C17   A    
C19   O8    S    
C8    H15   S    
C7    C20   A    
C5    C39   S    
C11   C13   A    
C46   C47   A    
O1    Zn1   S    
O16   Zn1   S    
C9    H16   S    
C40   C41   S    
C17   O7    S    
C40   O3    A    
Br3   C46   S    
O3    Zn4   S    
C44   H6    S    
C26   C27   A    
O15   Zn4   S    
C13   C18   A    
C16   C24   S    
O17   Zn2   S    
C32   C33   A    
C23   C34   A    
C27   C29   A    
C10   O9    S    
C5    C45   A    
C24   C37   A    
C28   O18   A    
C30   C38   A    
Br2   C45   S    
C17   C18   A    
C1    C7    S    
C14   C15   A    
C4    O16   A    
Br5   C34   S    
C8    C9    A    
C24   C36   A    
C3    C48   S    
Br4   C3    S    
C18   H17   S    
