data_mof_unit_5837.cif
_audit_creation_date              2012-10-26T17:13:00-0400
_audit_creation_method            fapswitch 2.2
_symmetry_space_group_name_H-M    P1
_symmetry_Int_Tables_number       1
_space_group_crystal_system       triclinic
_cell_length_a                    16.817291
_cell_length_b                    16.85331
_cell_length_c                    16.804302
_cell_angle_alpha                 67.947171
_cell_angle_beta                  68.024096
_cell_angle_gamma                 68.038816
_cell_volume                      3939.67274441

loop_
_atom_site_label
_atom_site_type_symbol
_atom_type_description
_atom_site_fract_x
_atom_site_fract_y
_atom_site_fract_z
_atom_type_partial_charge
C1    C     C_R   0.323172 0.954446 0.451541 -0.003414
C2    C     C_R   0.696380 0.984722 0.565306 -0.002187
C3    C     C_R   0.976042 0.443366 0.320134 -0.005152
C4    C     C_R   0.054200 0.546920 0.675796 -0.002498
C5    C     C_R   0.456549 0.325012 0.940787 -0.006505
C6    C     C_R   0.570376 0.692814 0.984399 -0.009985
C7    C     C_R   0.558370 0.027122 0.677456 -0.005601
C8    C     C_R   0.454637 0.944500 0.324127 -0.000057
C9    C     C_R   0.683007 0.552820 0.020446 0.002719
C10   C     C_R   0.327703 0.455460 0.937968 -0.002979
C11   C     C_R   0.051047 0.676909 0.546149 -0.002937
C12   C     C_R   0.007730 0.306743 0.438177 0.000039
C13   C     C_R   0.461461 0.966926 0.456682 0.018550
C14   C     C_R   0.555730 0.993672 0.548040 0.018201
C15   C     C_R   0.005705 0.447188 0.450929 0.018482
C16   C     C_R   0.034919 0.540436 0.541494 0.017997
C17   C     C_R   0.467868 0.464988 0.942575 0.019479
C18   C     C_R   0.560096 0.556328 0.972619 0.020153
C19   C     C_R   0.030820 0.828087 0.563810 0.792014
C20   C     C_R   0.989161 0.167103 0.430135 0.854655
C21   C     C_R   0.828180 0.564666 0.026893 0.823390
C22   C     C_R   0.171626 0.434724 0.974221 0.803231
C23   C     C_R   0.567560 0.020410 0.829433 0.805147
C24   C     C_R   0.436326 0.968573 0.172067 0.817553
C25   C     C_R   0.434961 0.171288 0.974076 0.822898
C26   C     C_R   0.568372 0.830186 0.017629 0.805901
C27   C     C_R   0.979878 0.432535 0.170348 0.817467
C28   C     C_R   0.031140 0.563927 0.827952 0.815736
C29   C     C_R   0.171989 0.970232 0.435814 0.795878
C30   C     C_R   0.834082 0.007969 0.570897 0.849048
C31   C     C_R   0.412741 0.956020 0.410320 0.068261
C32   C     C_R   0.603351 0.002800 0.596518 0.071263
C33   C     C_R   0.995624 0.399166 0.403321 0.069392
C34   C     C_R   0.046244 0.588453 0.588092 0.068002
C35   C     C_R   0.417296 0.415234 0.940255 0.074702
C36   C     C_R   0.604054 0.600579 0.993427 0.067484
C37   C     C_R   0.271912 0.950344 0.402443 -0.126265
C38   C     C_R   0.743612 0.994942 0.613442 -0.137199
C39   C     C_R   0.982717 0.391806 0.265098 -0.122317
C40   C     C_R   0.053211 0.597522 0.727579 -0.136952
C41   C     C_R   0.400380 0.269462 0.962187 -0.124589
C42   C     C_R   0.608108 0.734875 0.016519 -0.121182
C43   C     C_R   0.609232 0.017230 0.734653 -0.123804
C44   C     C_R   0.403140 0.946699 0.272328 -0.139699
C45   C     C_R   0.729598 0.598960 0.036300 -0.132576
C46   C     C_R   0.270676 0.399695 0.961514 -0.126895
C47   C     C_R   0.052183 0.728260 0.596690 -0.127092
C48   C     C_R   0.000006 0.258469 0.388893 -0.133085
C49   C     C_R   0.464409 0.053093 0.701195 -0.216509
C50   C     C_R   0.548166 0.924746 0.294615 -0.202381
C51   C     C_R   0.059566 0.709066 0.453349 -0.212553
C52   C     C_R   0.031607 0.264992 0.519401 -0.200422
C53   C     C_R   0.712650 0.460099 0.031118 -0.198553
C54   C     C_R   0.298584 0.549397 0.916319 -0.215760
C55   C     C_R   0.289734 0.952021 0.542725 -0.212378
C56   C     C_R   0.740350 0.951456 0.490025 -0.194513
C57   C     C_R   0.550003 0.293041 0.926157 -0.211622
C58   C     C_R   0.498807 0.739180 0.944867 -0.201850
C59   C     C_R   0.957673 0.537183 0.292480 -0.208877
C60   C     C_R   0.067714 0.454252 0.707684 -0.201618
C61   C     C_R   0.315998 0.936234 0.316396 0.087859
C62   C     C_R   0.703529 0.991211 0.703785 0.076954
C63   C     C_R   0.004392 0.297754 0.298177 0.071390
C64   C     C_R   0.064616 0.684280 0.683523 0.096648
C65   C     C_R   0.307494 0.306453 0.987230 0.095706
C66   C     C_R   0.683953 0.684102 0.049221 0.089986
C67   C     C_R   0.694394 0.952354 0.435175 0.039004
C68   C     C_R   0.330379 0.978788 0.583749 0.039059
C69   C     C_R   0.049920 0.406875 0.666440 0.037475
C70   C     C_R   0.984392 0.582287 0.329353 0.042089
C71   C     C_R   0.445514 0.695050 0.938560 0.041306
C72   C     C_R   0.597245 0.335777 0.943042 0.040982
C73   C     C_R   0.598454 0.934187 0.339579 0.038812
C74   C     C_R   0.416874 0.033265 0.660877 0.041765
C75   C     C_R   0.347318 0.600398 0.919918 0.043764
C76   C     C_R   0.677184 0.417830 0.999727 0.033891
C77   C     C_R   0.026214 0.313200 0.573816 0.035630
C78   C     C_R   0.039184 0.666577 0.408650 0.038466
C79   C     C_R   0.739918 0.933025 0.351473 0.179191
C80   C     C_R   0.285734 0.998006 0.667389 0.185584
C81   C     C_R   0.046333 0.317395 0.708937 0.174779
C82   C     C_R   0.994898 0.669481 0.284099 0.180250
C83   C     C_R   0.360797 0.740896 0.920885 0.178379
C84   C     C_R   0.684600 0.292762 0.953554 0.180817
C85   C     C_R   0.692214 0.920245 0.305136 0.177563
C86   C     C_R   0.324911 0.037463 0.699186 0.169767
C87   C     C_R   0.312731 0.693709 0.909158 0.178004
C88   C     C_R   0.719337 0.328973 0.993250 0.177556
C89   C     C_R   0.030216 0.271600 0.663446 0.181682
C90   C     C_R   0.033948 0.706169 0.319095 0.168324
C91   C     C_R   0.553517 0.958965 0.419892 -0.019736
C92   C     C_R   0.463422 0.004225 0.583060 -0.019103
C93   C     C_R   0.020565 0.404058 0.536222 -0.019209
C94   C     C_R   0.024575 0.582193 0.454458 -0.018199
C95   C     C_R   0.430734 0.556100 0.938280 -0.020862
C96   C     C_R   0.597991 0.465817 0.973920 -0.019713
C97   C     C_R   0.601148 0.969436 0.466961 -0.022361
C98   C     C_R   0.417743 0.985557 0.540177 -0.020409
C99   C     C_R   0.478511 0.602643 0.949883 -0.022632
C100  C     C_R   0.554356 0.422061 0.953549 -0.019465
C101  C     C_R   0.033053 0.450943 0.582303 -0.018941
C102  C     C_R   0.005228 0.537179 0.411373 -0.020570
Cu1   Cu    Cu3+1 0.995180 0.995180 0.424630 0.902550
Cu2   Cu    Cu3+1 0.004820 0.004820 0.575370 0.901464
Cu3   Cu    Cu3+1 0.995180 0.424630 0.995180 0.907617
Cu4   Cu    Cu3+1 0.004820 0.575370 0.004820 0.913953
Cu5   Cu    Cu3+1 0.424630 0.995180 0.995180 0.908137
Cu6   Cu    Cu3+1 0.575370 0.004820 0.004820 0.910919
H1    H     H_    0.427705 0.086187 0.752849 0.186091
H2    H     H_    0.582437 0.896519 0.239088 0.177370
H3    H     H_    0.084899 0.765724 0.414330 0.186686
H4    H     H_    0.064425 0.195060 0.537500 0.186521
H5    H     H_    0.761205 0.419267 0.067391 0.184667
H6    H     H_    0.238087 0.583211 0.896372 0.179379
H7    H     H_    0.234515 0.925190 0.583998 0.187746
H8    H     H_    0.810139 0.916638 0.478737 0.179923
H9    H     H_    0.586000 0.233303 0.905786 0.188170
H10   H     H_    0.487385 0.809443 0.913973 0.182609
H11   H     H_    0.923688 0.576001 0.241813 0.183221
H12   H     H_    0.096995 0.417496 0.762396 0.180319
O1    O     O_R   0.124540 0.978640 0.385460 -0.587440
O2    O     O_R   0.875460 0.021360 0.614540 -0.570937
O3    O     O_R   0.978640 0.385460 0.124540 -0.583166
O4    O     O_R   0.021360 0.614540 0.875460 -0.576697
O5    O     O_R   0.385460 0.124540 0.978640 -0.571415
O6    O     O_R   0.614540 0.875460 0.021360 -0.586196
O7    O     O_R   0.614540 0.021360 0.875460 -0.582306
O8    O     O_R   0.385460 0.978640 0.124540 -0.575343
O9    O     O_R   0.875460 0.614540 0.021360 -0.570727
O10   O     O_R   0.124540 0.385460 0.978640 -0.584178
O11   O     O_R   0.021360 0.875460 0.614540 -0.587133
O12   O     O_R   0.978640 0.124540 0.385460 -0.572619
O13   O     O_R   0.013780 0.867370 0.487190 -0.611515
O14   O     O_R   0.986220 0.132630 0.512810 -0.600983
O15   O     O_R   0.867370 0.487190 0.013780 -0.594009
O16   O     O_R   0.132630 0.512810 0.986220 -0.597064
O17   O     O_R   0.487190 0.013780 0.867370 -0.606469
O18   O     O_R   0.512810 0.986220 0.132630 -0.588388
O19   O     O_R   0.512810 0.132630 0.986220 -0.593004
O20   O     O_R   0.487190 0.867370 0.013780 -0.602833
O21   O     O_R   0.986220 0.512810 0.132630 -0.599076
O22   O     O_R   0.013780 0.487190 0.867370 -0.591843
O23   O     O_R   0.132630 0.986220 0.512810 -0.610763
O24   O     O_R   0.867370 0.013780 0.487190 -0.593746
C103  C     C_3   0.275667 0.897777 0.277094 -0.757973
H13   H     H_    0.328323 0.854273 0.236103 0.221900
H14   H     H_    0.236017 0.853269 0.330534 0.213086
H15   H     H_    0.233175 0.951881 0.235765 0.250175
C104  C     C_3   0.761793 0.942843 0.767892 -0.738181
H16   H     H_    0.730083 0.895769 0.827298 0.221031
H17   H     H_    0.826298 0.899688 0.738086 0.216963
H18   H     H_    0.775167 0.991180 0.788155 0.247740
C105  C     C_3   0.043403 0.236860 0.236880 -0.750312
H19   H     H_    0.092417 0.175021 0.262249 0.219599
H20   H     H_    0.989556 0.221069 0.227530 0.249739
H21   H     H_    0.084153 0.265314 0.171667 0.228803
C106  C     C_3   0.102497 0.724299 0.723680 -0.770098
H22   H     H_    0.146655 0.764650 0.670792 0.215254
H23   H     H_    0.048010 0.765978 0.765434 0.253825
H24   H     H_    0.146330 0.671462 0.764382 0.210195
C107  C     C_3   0.250731 0.250422 0.063054 -0.779098
H25   H     H_    0.290012 0.189318 0.101815 0.224720
H26   H     H_    0.210028 0.289163 0.112179 0.204579
H27   H     H_    0.209287 0.231653 0.038626 0.250676
C108  C     C_3   0.711882 0.716085 0.105425 -0.781869
H28   H     H_    0.750849 0.659831 0.148800 0.211947
H29   H     H_    0.752589 0.763346 0.062075 0.254409
H30   H     H_    0.652464 0.748096 0.152152 0.213377
C109  C     C_3   0.270485 0.083052 0.772888 -0.885836
H31   H     H_    0.197879 0.099019 0.783988 0.242271
H32   H     H_    0.288253 0.041469 0.836122 0.235164
H33   H     H_    0.283236 0.148722 0.753696 0.226765
C110  C     C_3   0.739808 0.892771 0.218765 -0.884021
H34   H     H_    0.812570 0.882493 0.197150 0.241024
H35   H     H_    0.729575 0.828413 0.227101 0.222391
H36   H     H_    0.713145 0.944612 0.163604 0.234807
C111  C     C_3   0.074595 0.783009 0.261046 -0.889975
H37   H     H_    0.086488 0.794401 0.188755 0.243179
H38   H     H_    0.032477 0.845051 0.280402 0.231887
H39   H     H_    0.142019 0.767303 0.268823 0.226792
C112  C     C_3   0.007956 0.183428 0.713786 -0.883470
H40   H     H_    0.951075 0.191518 0.773724 0.235045
H41   H     H_    0.986486 0.157780 0.675672 0.241348
H42   H     H_    0.066181 0.133098 0.734941 0.232514
C113  C     C_3   0.799952 0.273922 0.029020 -0.869232
H43   H     H_    0.819772 0.202686 0.031964 0.236685
H44   H     H_    0.857493 0.301952 0.987921 0.233186
H45   H     H_    0.784129 0.273777 0.099385 0.221608
C114  C     C_3   0.223385 0.741069 0.887781 -0.889966
H46   H     H_    0.201497 0.813446 0.879088 0.242691
H47   H     H_    0.227201 0.732133 0.824154 0.222026
H48   H     H_    0.170476 0.713186 0.942468 0.234347
C115  C     C_3   0.199193 0.973283 0.721990 -0.916498
H49   H     H_    0.174680 0.980791 0.790378 0.235603
H50   H     H_    0.147054 0.012305 0.686241 0.241030
H51   H     H_    0.209942 0.901755 0.731019 0.227604
C116  C     C_3   0.837334 0.931610 0.308156 -0.884206
H52   H     H_    0.846391 0.973890 0.238155 0.232625
H53   H     H_    0.863921 0.960262 0.338936 0.235326
H54   H     H_    0.877844 0.862177 0.309914 0.249315
C117  C     C_3   0.739244 0.209291 0.923224 -0.874192
H55   H     H_    0.811790 0.198005 0.909497 0.233171
H56   H     H_    0.718180 0.150556 0.973783 0.234804
H57   H     H_    0.731351 0.216229 0.858049 0.223768
C118  C     C_3   0.316894 0.837447 0.922397 -0.875982
H58   H     H_    0.248427 0.844417 0.967963 0.230477
H59   H     H_    0.349168 0.864242 0.949136 0.234754
H60   H     H_    0.314546 0.879744 0.854004 0.250089
C119  C     C_3   0.967458 0.720573 0.198246 -0.884692
H61   H     H_    0.966529 0.791473 0.175803 0.231038
H62   H     H_    0.012541 0.688584 0.144339 0.243190
H63   H     H_    0.897869 0.721856 0.208740 0.221649
C120  C     C_3   0.055871 0.273659 0.803582 -0.874858
H64   H     H_    0.046530 0.206054 0.833659 0.232563
H65   H     H_    0.123759 0.267438 0.804133 0.223312
H66   H     H_    0.005624 0.314737 0.848206 0.239782

loop_
_geom_bond_atom_site_label_1
_geom_bond_atom_site_label_2
_ccdc_geom_bond_type
C84   C117  S    
C68   C80   A    
Cu4   O9    S    
C83   C87   A    
C9    C45   A    
C108  H28   S    
C79   C116  S    
C62   C104  S    
C116  H54   S    
C86   C109  S    
C18   C96   A    
C109  H31   S    
C6    C58   A    
C11   C47   A    
C52   H4    S    
C50   H2    S    
C12   C48   A    
Cu1   O24   S    
C103  H15   S    
C103  H13   S    
C113  H43   S    
C75   C95   A    
C5    C57   A    
C59   H11   S    
C110  H34   S    
C78   C90   A    
C80   C115  S    
C120  H66   S    
C77   C89   A    
C106  H22   S    
Cu2   O14   S    
Cu4   O21   S    
C27   O21   A    
C57   H9    S    
C25   O19   A    
Cu5   O8    S    
C26   O20   A    
C104  H17   S    
C12   C33   A    
C19   C47   S    
C58   C71   A    
C113  H44   S    
Cu2   O2    S    
C3    C33   A    
C29   O23   A    
C96   C100  A    
C1    C31   A    
C119  H63   S    
C30   O24   A    
Cu3   O3    S    
C2    C32   A    
C26   O6    A    
C74   C92   A    
Cu5   O20   S    
C114  H47   S    
C58   H10   S    
C25   O5    A    
C80   C86   A    
Cu1   Cu2   S    
C107  H26   S    
C54   H6    S    
C81   C120  S    
C24   O8    A    
C30   O2    A    
C27   C39   S    
C111  H38   S    
Cu2   O11   S    
C29   O1    A    
C64   C106  S    
C10   C46   A    
C9    C36   A    
C85   C110  S    
Cu5   Cu6   S    
C5    C41   A    
C10   C35   A    
C17   C95   A    
C7    C43   A    
C105  H20   S    
Cu1   O12   S    
C76   C88   A    
C71   C83   A    
C1    C37   A    
Cu3   O15   S    
C82   C119  S    
C81   C89   A    
C111  H39   S    
C118  H59   S    
C21   O9    A    
C90   C111  S    
C3    C39   A    
C108  H29   S    
C13   C91   A    
C117  H56   S    
C116  H52   S    
C20   O12   A    
C10   C54   A    
C11   C51   A    
C12   C52   A    
C53   H5    S    
C107  H25   S    
C21   C45   S    
C120  H65   S    
C19   O11   A    
C4    C34   A    
C21   O15   A    
C27   O3    A    
C103  H14   S    
C92   C98   A    
C4    C40   A    
C67   C79   A    
C7    C49   A    
C46   C65   A    
C50   C73   A    
C25   C41   S    
Cu3   O22   S    
C55   C68   A    
C57   C72   A    
C113  H45   S    
C41   C65   A    
C24   O18   A    
C112  H40   S    
C71   C99   A    
C91   C97   A    
C22   O16   A    
C29   C37   S    
C89   C112  S    
Cu5   O17   S    
C114  H48   S    
C8    C44   A    
C2    C38   A    
C120  H64   S    
C115  H51   S    
C16   C34   A    
C4    C60   A    
C115  H50   S    
C119  H61   S    
C56   H8    S    
Cu2   O23   S    
C20   C48   S    
C74   C86   A    
C105  H21   S    
C73   C91   A    
C72   C84   A    
C110  H35   S    
C19   O13   A    
C75   C87   A    
C88   C113  S    
C22   C46   S    
C14   C92   A    
C111  H37   S    
C106  H24   S    
Cu5   O5    S    
C24   C44   S    
C117  H57   S    
C104  H18   S    
C53   C76   A    
C28   O22   A    
C18   C99   A    
C93   C101  A    
C52   C77   A    
Cu1   O1    S    
C8    C50   A    
C47   C64   A    
C107  H27   S    
C77   C93   A    
C14   C97   A    
C23   O7    A    
C72   C100  A    
C118  H60   S    
C26   C42   S    
C118  H58   S    
C51   H3    S    
C7    C32   A    
C112  H42   S    
C66   C108  S    
C8    C31   A    
C23   O17   A    
C11   C34   A    
C15   C102  A    
C84   C88   A    
C14   C32   A    
C48   C63   A    
C40   C64   A    
C15   C93   A    
Cu6   O19   S    
C37   C61   A    
C28   O4    A    
C110  H36   S    
Cu3   O10   S    
C69   C101  A    
C44   C61   A    
C108  H30   S    
C56   C67   A    
C39   C63   A    
Cu3   Cu4   S    
C16   C94   A    
C82   C90   A    
C117  H55   S    
C87   C114  S    
C20   O14   A    
C116  H53   S    
Cu1   O13   S    
C49   H1    S    
C73   C85   A    
C83   C118  S    
C2    C56   A    
C104  H16   S    
C76   C96   A    
Cu6   O18   S    
C13   C31   A    
C70   C102  A    
C13   C98   A    
C55   H7    S    
C60   C69   A    
C78   C94   A    
C5    C35   A    
C61   C103  S    
C119  H62   S    
C79   C85   A    
C6    C36   A    
C60   H12   S    
C95   C99   A    
Cu6   O7    S    
C1    C55   A    
C114  H46   S    
C70   C82   A    
C17   C100  A    
C68   C98   A    
C51   C78   A    
C69   C81   A    
C67   C97   A    
C59   C70   A    
C54   C75   A    
C16   C101  A    
C112  H41   S    
C9    C53   A    
C94   C102  A    
C106  H23   S    
C115  H49   S    
C6    C42   A    
C65   C107  S    
C45   C66   A    
C42   C66   A    
Cu4   O4    S    
C28   C40   S    
C49   C74   A    
C109  H33   S    
C17   C35   A    
C30   C38   S    
Cu6   O6    S    
C105  H19   S    
C23   C43   S    
C63   C105  S    
C18   C36   A    
C15   C33   A    
C22   O10   A    
C43   C62   A    
Cu4   O16   S    
C38   C62   A    
C109  H32   S    
C3    C59   A    
