data_mof_unit_57245.cif
_audit_creation_date              2012-12-10T18:50:01-0500
_audit_creation_method            fapswitch 2.2
_symmetry_space_group_name_H-M    P1
_symmetry_Int_Tables_number       1
_space_group_crystal_system       triclinic
_cell_length_a                    10.816277
_cell_length_b                    9.802044
_cell_length_c                    10.655961
_cell_angle_alpha                 90.009953
_cell_angle_beta                  89.700111
_cell_angle_gamma                 91.095037
_cell_volume                      1129.54047825

loop_
_atom_site_label
_atom_site_type_symbol
_atom_type_description
_atom_site_fract_x
_atom_site_fract_y
_atom_site_fract_z
_atom_type_partial_charge
C1    C     C_R   0.259610 0.498453 0.503548 0.948287
C2    C     C_R   0.528653 0.928723 0.606199 -0.085449
C3    C     C_R   0.470251 0.927340 0.393981 -0.089682
C4    C     C_R   0.469958 0.071343 0.394061 -0.104188
C5    C     C_R   0.503690 0.500213 0.257475 0.838836
C6    C     C_R   0.740048 0.501593 0.494692 0.942371
C7    C     C_R   0.499276 0.499602 0.742501 0.850670
C8    C     C_3   0.396535 0.585428 0.073588 -0.411779
C9    C     C_3   0.487567 0.352607 0.071449 -0.457721
C10   C     C_3   0.396964 0.587798 0.930154 -0.412413
C11   C     C_3   0.485616 0.351138 0.929154 -0.415933
C12   C     C_3   0.629154 0.555767 0.922807 -0.413691
C13   C     C_3   0.632898 0.568622 0.069478 0.446474
C14   C     C_3   0.507438 0.501563 0.120827 0.084467
C15   C     C_3   0.502363 0.498672 0.878728 0.122849
C16   C     C_3   0.685504 0.823872 0.036914 -0.869042
C17   C     C_3   0.861397 0.553375 0.103670 -0.848624
C18   C     C_3   0.143239 0.160057 0.521686 -0.716209
C19   C     C_3   0.162413 0.724746 0.726286 -0.758358
C20   C     C_3   0.837331 0.159072 0.432187 -0.720264
C21   C     C_3   0.841634 0.757046 0.700187 -0.773069
C22   C     C_R   0.060813 0.379627 0.461508 0.147449
C23   C     C_R   0.065274 0.614016 0.545969 0.151299
C24   C     C_R   0.934003 0.388173 0.444362 0.125079
C25   C     C_R   0.938664 0.619485 0.535412 0.122193
C26   C     C_R   0.872583 0.504943 0.488324 -0.239967
C27   C     C_R   0.126596 0.495284 0.507573 -0.243237
C28   C     C_R   0.529333 0.072665 0.606016 -0.087521
H1    H     H_    0.400678 0.692057 0.109435 0.193427
H2    H     H_    0.561245 0.285248 0.894313 0.174517
H3    H     H_    0.649121 0.652285 0.873575 0.172202
H4    H     H_    0.702245 0.485851 0.889225 0.141028
H5    H     H_    0.669405 0.721361 0.206113 0.250032
H6    H     H_    0.699449 0.916249 0.096013 0.234472
H7    H     H_    0.615443 0.849597 0.965375 0.241235
H8    H     H_    0.775245 0.799574 0.992044 0.253660
H9    H     H_    0.737957 0.391021 0.094865 0.208786
H10   H     H_    0.931033 0.481665 0.139933 0.237157
H11   H     H_    0.870486 0.648722 0.159175 0.259016
H12   H     H_    0.559589 0.282664 0.105824 0.170079
H13   H     H_    0.882394 0.574225 0.003307 0.242456
H14   H     H_    0.092422 0.215553 0.340715 0.232015
H15   H     H_    0.055434 0.108510 0.549486 0.213715
H16   H     H_    0.183888 0.209162 0.606267 0.247129
H17   H     H_    0.207776 0.081463 0.487439 0.230033
H18   H     H_    0.102980 0.824408 0.564295 0.234153
H19   H     H_    0.104777 0.796887 0.780292 0.223747
H20   H     H_    0.260907 0.755432 0.737443 0.245049
H21   H     H_    0.147672 0.620623 0.765565 0.217440
H22   H     H_    0.806421 0.321802 0.309300 0.237487
H23   H     H_    0.446202 0.872454 0.309295 0.137884
H24   H     H_    0.739518 0.131998 0.411389 0.241904
H25   H     H_    0.847300 0.166239 0.535796 0.240951
H26   H     H_    0.895327 0.075888 0.395202 0.217360
H27   H     H_    0.833019 0.796207 0.503695 0.239587
H28   H     H_    0.878808 0.854716 0.738376 0.225464
H29   H     H_    0.874640 0.671732 0.759295 0.234574
H30   H     H_    0.739549 0.758977 0.704689 0.243407
H31   H     H_    0.553242 0.127510 0.690728 0.126760
H32   H     H_    0.550585 0.875121 0.691530 0.117312
H33   H     H_    0.445535 0.125183 0.309500 0.135941
H34   H     H_    0.307777 0.539282 0.108123 0.162384
H35   H     H_    0.397585 0.310101 0.106698 0.188625
H36   H     H_    0.306424 0.548175 0.895626 0.159835
H37   H     H_    0.396272 0.305727 0.896320 0.180758
H38   H     H_    0.409311 0.695097 0.897574 0.180660
N1    N     N_R   0.499970 0.857200 0.499970 -0.076237
N2    N     N_R   0.499970 0.142800 0.499970 -0.078173
N3    N     N_2   0.640813 0.711381 0.114331 -0.284095
N4    N     N_2   0.738551 0.493067 0.117900 -0.345311
N5    N     N_2   0.123374 0.259254 0.423052 -0.272244
N6    N     N_2   0.131180 0.730052 0.594559 -0.255857
N7    N     N_2   0.871773 0.286241 0.370591 -0.307606
N8    N     N_2   0.880720 0.743222 0.570919 -0.292671
O1    O     O_R   0.316750 0.614620 0.499990 -0.589584
O2    O     O_R   0.316750 0.385380 0.499990 -0.593029
O3    O     O_R   0.499970 0.614670 0.314790 -0.646170
O4    O     O_R   0.499970 0.385330 0.314790 -0.634722
O5    O     O_R   0.683220 0.614710 0.500010 -0.622364
O6    O     O_R   0.683220 0.385290 0.500010 -0.607112
O7    O     O_R   0.500010 0.614660 0.685200 -0.642564
O8    O     O_R   0.500010 0.385340 0.685200 -0.638296
Zn1   Zn    Zn3+2 0.499980 0.653120 0.500000 0.928490
Zn2   Zn    Zn3+2 0.499980 0.346880 0.500000 0.932478

loop_
_geom_bond_atom_site_label_1
_geom_bond_atom_site_label_2
_ccdc_geom_bond_type
N1    Zn1   S    
O6    Zn2   S    
O2    Zn2   S    
C8    H1    S    
C28   N2    A    
C24   C26   A    
C10   C15   S    
C16   H7    S    
C19   H19   S    
C24   N7    S    
C13   N4    S    
O3    Zn1   S    
C25   N8    S    
C17   H11   S    
C16   H6    S    
H27   N8    S    
C11   C15   S    
C11   H2    S    
C23   C27   A    
H18   N6    S    
H5    N3    S    
C7    C15   S    
C17   N4    S    
H9    N4    S    
C12   H4    S    
C19   N6    S    
O7    Zn1   S    
C10   H38   S    
C10   H36   S    
N2    Zn2   S    
C20   H26   S    
C2    N1    A    
H22   N7    S    
C4    N2    A    
C3    H23   S    
C19   H20   S    
C25   C26   A    
C4    H33   S    
C9    H12   S    
C1    O1    A    
C9    C14   S    
C21   H29   S    
C18   H16   S    
C19   H21   S    
C6    O6    A    
C12   C15   S    
C9    C11   S    
C5    C14   S    
C7    O7    A    
O8    Zn2   S    
C22   C27   A    
C12   H3    S    
C22   C24   A    
C5    O3    A    
C3    C4    A    
C18   H17   S    
C22   N5    S    
C28   H31   S    
C18   N5    S    
C8    C14   S    
C9    H35   S    
C1    O2    A    
C23   N6    S    
C3    N1    A    
C16   N3    S    
C20   H25   S    
C21   H28   S    
C21   H30   S    
C20   H24   S    
C18   H15   S    
C16   H8    S    
O5    Zn1   S    
O1    Zn1   S    
C6    O5    A    
C6    C26   S    
C13   N3    S    
C21   N8    S    
H14   N5    S    
C20   N7    S    
C2    H32   S    
C17   H10   S    
C23   C25   A    
C17   H13   S    
O4    Zn2   S    
C7    O8    A    
C12   C13   S    
C8    C10   S    
C1    C27   S    
C2    C28   A    
C5    O4    A    
C13   C14   S    
C11   H37   S    
C8    H34   S    
