data_mof_unit_27479.cif
_audit_creation_date              2012-12-10T19:47:50-0500
_audit_creation_method            fapswitch 2.2
_symmetry_space_group_name_H-M    P1
_symmetry_Int_Tables_number       1
_space_group_crystal_system       triclinic
_cell_length_a                    18.22022
_cell_length_b                    18.220229
_cell_length_c                    21.683192
_cell_angle_alpha                 89.998985
_cell_angle_beta                  89.999134
_cell_angle_gamma                 90.000252
_cell_volume                      7198.31193963

loop_
_atom_site_label
_atom_site_type_symbol
_atom_type_description
_atom_site_fract_x
_atom_site_fract_y
_atom_site_fract_z
_atom_type_partial_charge
C1    C     C_R   1.000000 0.358704 1.000000 0.918811
C2    C     C_1   0.282229 0.999999 0.999999 -0.223779
C3    C     C_R   0.741868 0.192887 0.888868 -0.113736
C4    C     C_R   0.704336 0.244940 0.853555 -0.133247
C5    C     C_R   0.743370 0.296317 0.818583 -0.130123
C6    C     C_R   0.295419 0.179448 0.818071 0.098972
C7    C     C_R   0.243139 0.142199 0.854176 -0.167101
C8    C     C_R   0.192146 0.181471 0.889319 -0.123507
C9    C     C_R   0.192886 0.258137 0.888849 -0.113730
C10   C     C_R   0.244950 0.295668 0.853545 -0.133238
C11   C     C_R   0.296328 0.256632 0.818575 -0.130113
C12   C     C_R   0.179455 0.704573 0.818070 0.098967
C13   C     C_1   0.000000 0.717771 0.000001 -0.223788
C14   C     C_R   0.142211 0.756856 0.854174 -0.167097
C15   C     C_R   0.181487 0.807842 0.889320 -0.123524
C16   C     C_R   0.258153 0.807092 0.888854 -0.113740
C17   C     C_R   0.295679 0.755025 0.853551 -0.133233
C18   C     C_R   0.256639 0.703654 0.818578 -0.130110
C19   C     C_R   0.704575 0.820551 0.818086 0.098958
C20   C     C_R   0.756859 0.857792 0.854195 -0.167084
C21   C     C_R   0.807840 0.818511 0.889348 -0.123514
C22   C     C_R   0.807084 0.741843 0.888884 -0.113738
C23   C     C_R   0.755016 0.704320 0.853576 -0.133215
C24   C     C_1   0.717771 0.000000 0.000001 -0.223750
C25   C     C_R   0.703649 0.743366 0.818597 -0.130109
C26   C     C_R   0.820541 0.704569 0.181918 0.098961
C27   C     C_R   0.857784 0.756840 0.145797 -0.167088
C28   C     C_R   0.818506 0.807815 0.110641 -0.123502
C29   C     C_R   0.741840 0.807071 0.111116 -0.113743
C30   C     C_R   0.704315 0.755019 0.146436 -0.133247
C31   C     C_R   0.743357 0.703655 0.181417 -0.130112
C32   C     C_R   0.295419 0.820550 0.181933 0.098976
C33   C     C_R   0.243135 0.857800 0.145833 -0.167102
C34   C     C_R   0.192143 0.818529 0.110689 -0.123538
C35   C     C_1   0.500000 0.782229 0.499999 -0.223786
C36   C     C_R   0.192889 0.741863 0.111152 -0.113732
C37   C     C_R   0.244957 0.704331 0.146450 -0.133230
C38   C     C_R   0.296332 0.743366 0.181421 -0.130112
C39   C     C_R   0.179441 0.295419 0.181934 0.099028
C40   C     C_R   0.142184 0.243099 0.145881 -0.167134
C41   C     C_R   0.181447 0.192085 0.110757 -0.123636
C42   C     C_R   0.258113 0.192845 0.111195 -0.113710
C43   C     C_R   0.295653 0.244951 0.146443 -0.133211
C44   C     C_R   0.256625 0.296349 0.181395 -0.130107
C45   C     C_R   0.704562 0.179449 0.181913 0.098996
C46   C     C_1   0.782229 0.500000 0.499999 -0.223786
C47   C     C_R   0.756930 0.142209 0.145897 -0.167172
C48   C     C_R   0.807905 0.181488 0.110739 -0.123648
C49   C     C_R   0.807052 0.258149 0.111099 -0.113743
C50   C     C_R   0.754902 0.295668 0.146317 -0.133187
C51   C     C_R   0.703549 0.256625 0.181310 -0.130074
C52   C     C_R   0.320547 0.795425 0.318085 0.098971
C53   C     C_R   0.357792 0.743142 0.354189 -0.167093
C54   C     C_R   0.318516 0.692156 0.389339 -0.123530
C55   C     C_R   0.241850 0.692908 0.388877 -0.113741
C56   C     C_R   0.204323 0.744975 0.353575 -0.133231
C57   C     C_1   0.500000 0.217771 0.500001 -0.223787
C58   C     C_R   0.243363 0.796345 0.318598 -0.130111
C59   C     C_R   0.795424 0.679452 0.318075 0.098964
C60   C     C_R   0.743146 0.642204 0.354184 -0.167095
C61   C     C_R   0.692158 0.681477 0.389331 -0.123525
C62   C     C_R   0.692900 0.758143 0.388861 -0.113738
C63   C     C_R   0.744962 0.795673 0.353554 -0.133233
C64   C     C_R   0.796335 0.756636 0.318580 -0.130120
C65   C     C_R   0.679422 0.204608 0.318049 0.099038
C66   C     C_R   0.642161 0.256882 0.354152 -0.167072
C67   C     C_R   0.681422 0.307888 0.389289 -0.123540
C68   C     C_1   0.217771 0.500000 0.500001 -0.223774
C69   C     C_R   0.758088 0.307169 0.388815 -0.113731
C70   C     C_R   0.795630 0.255113 0.353513 -0.133216
C71   C     C_R   0.756606 0.203723 0.318549 -0.130106
C72   C     C_R   0.204592 0.320573 0.318071 0.099004
C73   C     C_R   0.256895 0.357831 0.354143 -0.167113
C74   C     C_R   0.307891 0.318568 0.389289 -0.123582
C75   C     C_R   0.307129 0.241903 0.388857 -0.113742
C76   C     C_R   0.255042 0.204364 0.353586 -0.133212
C77   C     C_R   0.203664 0.243391 0.318611 -0.130093
C78   C     C_R   0.320547 0.204571 0.681918 0.098968
C79   C     C_R   0.000000 0.500000 0.879827 0.874667
C80   C     C_R   0.357795 0.256856 0.645815 -0.167100
C81   C     C_R   0.318521 0.307842 0.610666 -0.123516
C82   C     C_R   0.241855 0.307091 0.611127 -0.113737
C83   C     C_R   0.204326 0.255023 0.646429 -0.133234
C84   C     C_R   0.243363 0.203652 0.681404 -0.130111
C85   C     C_R   0.795430 0.320543 0.681928 0.098962
C86   C     C_R   0.743146 0.357789 0.645826 -0.167099
C87   C     C_R   0.692158 0.318515 0.610680 -0.123522
C88   C     C_R   0.692908 0.241849 0.611144 -0.113736
C89   C     C_R   0.744976 0.204320 0.646445 -0.133233
C90   C     C_R   0.499998 0.000001 0.879828 0.874664
C91   C     C_R   0.796349 0.243359 0.681417 -0.130114
C92   C     C_R   0.679460 0.795432 0.681930 0.098973
C93   C     C_R   0.642213 0.743156 0.645821 -0.167095
C94   C     C_R   0.681487 0.692172 0.610670 -0.123518
C95   C     C_R   0.758153 0.692918 0.611138 -0.113734
C96   C     C_R   0.795682 0.744977 0.646447 -0.133234
C97   C     C_R   0.756644 0.796346 0.681424 -0.130113
C98   C     C_R   0.204576 0.679450 0.681916 0.098970
C99   C     C_R   0.256853 0.642204 0.645806 -0.167093
C100  C     C_R   0.307836 0.681479 0.610655 -0.123516
C101  C     C_R   0.999999 0.500000 0.120172 0.874673
C102  C     C_R   0.307090 0.758145 0.611121 -0.113739
C103  C     C_R   0.255029 0.795673 0.646429 -0.133237
C104  C     C_R   0.203661 0.756633 0.681407 -0.130111
C105  C     C_R   0.358704 1.000000 1.000000 0.918799
C106  C     C_R   0.499998 0.999999 0.120172 0.874666
C107  C     C_R   0.500000 0.000001 0.379827 0.874670
C108  C     C_R   0.999999 0.500001 0.379828 0.874666
C109  C     C_R   0.500000 0.999999 0.620173 0.874666
C110  C     C_R   0.000000 0.499999 0.620172 0.874666
C111  C     C_R   0.085341 0.606427 0.812666 -0.217893
C112  C     C_R   0.606433 0.914669 0.812672 -0.217888
C113  C     C_R   0.914663 0.393569 0.812672 -0.217898
C114  C     C_R   0.393571 0.085341 0.812668 -0.217903
C115  C     C_R   0.085333 0.393570 0.187334 -0.217894
C116  C     C_R   0.000000 0.641296 0.000000 0.918807
C117  C     C_R   0.606434 0.085325 0.187327 -0.217863
C118  C     C_R   0.914657 0.606427 0.187329 -0.217893
C119  C     C_R   0.393571 0.914657 0.187335 -0.217905
C120  C     C_R   0.585333 0.106435 0.312662 -0.217910
C121  C     C_R   0.106433 0.414672 0.312669 -0.217891
C122  C     C_R   0.414662 0.893569 0.312673 -0.217891
C123  C     C_R   0.893572 0.585343 0.312669 -0.217897
C124  C     C_R   0.585349 0.893579 0.687334 -0.217898
C125  C     C_R   0.106430 0.585336 0.687328 -0.217892
C126  C     C_R   0.414661 0.106427 0.687328 -0.217891
C127  C     C_R   0.641296 0.000000 0.000000 0.918809
C128  C     C_R   0.893574 0.414657 0.687334 -0.217892
C129  C     C_R   0.137312 0.649667 0.781745 0.010095
C130  C     C_R   0.649675 0.862699 0.781755 0.010094
C131  C     C_R   0.862693 0.350327 0.781755 0.010106
C132  C     C_R   0.350329 0.137309 0.781747 0.010101
C133  C     C_R   0.137307 0.350335 0.218253 0.010079
C134  C     C_R   0.649664 0.137304 0.218242 0.010051
C135  C     C_R   0.862687 0.649668 0.218247 0.010103
C136  C     C_R   0.350330 0.862689 0.218256 0.010099
C137  C     C_R   0.637297 0.149678 0.281737 0.010092
C138  C     C_R   0.500000 0.858704 0.500000 0.918808
C139  C     C_R   0.149674 0.362703 0.281750 0.010081
C140  C     C_R   0.362690 0.850330 0.281756 0.010095
C141  C     C_R   0.850330 0.637311 0.281749 0.010103
C142  C     C_R   0.637318 0.850340 0.718255 0.010097
C143  C     C_R   0.149671 0.637307 0.718245 0.010097
C144  C     C_R   0.362688 0.149666 0.718246 0.010094
C145  C     C_R   0.850335 0.362685 0.718254 0.010097
C146  C     C_R   0.140928 1.000000 1.000000 0.904113
C147  C     C_R   0.000000 0.859072 0.000000 0.904100
C148  C     C_R   0.859072 0.000000 0.000000 0.904117
C149  C     C_R   0.858704 0.500000 0.500000 0.918805
C150  C     C_R   0.000000 0.140928 1.000000 0.904113
C151  C     C_R   0.640928 0.500000 0.500000 0.904102
C152  C     C_R   0.500000 0.359072 0.500000 0.904093
C153  C     C_R   0.359072 0.500000 0.500000 0.904094
C154  C     C_R   0.500000 0.640928 0.499999 0.904097
C155  C     C_R   0.050709 0.545190 0.718003 0.058273
C156  C     C_R   0.545198 0.949298 0.718006 0.058273
C157  C     C_R   0.949294 0.454805 0.718006 0.058269
C158  C     C_R   0.454808 0.050708 0.718004 0.058272
C159  C     C_R   0.050708 0.454813 0.281996 0.058269
C160  C     C_R   0.500000 0.141296 0.500000 0.918806
C161  C     C_R   0.545192 0.050706 0.281993 0.058278
C162  C     C_R   0.949292 0.545195 0.281995 0.058274
C163  C     C_R   0.454809 0.949289 0.281997 0.058275
C164  C     C_R   0.550710 0.045185 0.218003 0.058260
C165  C     C_R   0.045190 0.449293 0.218006 0.058272
C166  C     C_R   0.449293 0.954804 0.218007 0.058271
C167  C     C_R   0.954806 0.550709 0.218004 0.058280
C168  C     C_R   0.550712 0.954814 0.781996 0.058272
C169  C     C_R   0.045194 0.550706 0.781994 0.058269
C170  C     C_R   0.449293 0.045195 0.781995 0.058269
C171  C     C_R   0.141296 0.500000 0.500000 0.918806
C172  C     C_R   0.954809 0.449290 0.781997 0.058275
C173  C     C_R   0.000001 0.499998 0.686307 -0.180500
C174  C     C_R   0.500001 0.000001 0.686307 -0.180503
C175  C     C_R   0.000000 0.500003 0.313693 -0.180502
C176  C     C_R   0.500001 0.999999 0.313693 -0.180502
C177  C     C_R   0.500001 0.999995 0.186307 -0.180500
C178  C     C_R   0.999998 0.500000 0.186307 -0.180494
C179  C     C_R   0.500001 0.000003 0.813693 -0.180499
C180  C     C_R   0.000001 0.499999 0.813693 -0.180501
C181  C     C_1   1.000000 0.217399 0.999999 -0.225511
C182  C     C_1   1.000000 0.282229 0.999999 -0.223772
C183  C     C_1   0.217399 0.999999 0.999999 -0.225526
C184  C     C_1   0.000000 0.782601 0.000001 -0.225535
C185  C     C_1   0.782601 0.000000 0.000001 -0.225473
C186  C     C_1   0.500000 0.717399 0.499999 -0.225527
C187  C     C_1   0.717399 0.500000 0.499999 -0.225523
C188  C     C_1   0.500000 0.282601 0.500001 -0.225524
C189  C     C_1   0.282601 0.500000 0.500001 -0.225511
C190  C     C_R   0.820554 0.295417 0.818083 0.098966
C191  C     C_R   0.857804 0.243149 0.854199 -0.167094
C192  C     C_R   0.818533 0.192157 0.889345 -0.123504
H1    H     H_    0.077113 0.616986 0.861238 0.160887
H2    H     H_    0.116996 0.422905 0.361240 0.160887
H3    H     H_    0.422891 0.883012 0.361246 0.160889
H4    H     H_    0.883016 0.577117 0.361243 0.160888
H5    H     H_    0.577123 0.883020 0.638762 0.160893
H6    H     H_    0.116988 0.577107 0.638755 0.160885
H7    H     H_    0.422890 0.116986 0.638756 0.160890
H8    H     H_    0.883016 0.422885 0.638761 0.160890
H9    H     H_    0.917235 0.241667 0.854914 0.137230
H10   H     H_    0.847537 0.152076 0.916966 0.150681
H11   H     H_    0.711562 0.153300 0.916030 0.147392
H12   H     H_    0.616989 0.922898 0.861245 0.160886
H13   H     H_    0.644936 0.245714 0.853513 0.135740
H14   H     H_    0.713446 0.336975 0.792229 0.132242
H15   H     H_    0.241648 0.082767 0.854884 0.137233
H16   H     H_    0.152056 0.152467 0.916931 0.150696
H17   H     H_    0.153299 0.288444 0.916008 0.147383
H18   H     H_    0.245731 0.355068 0.853507 0.135733
H19   H     H_    0.336993 0.286555 0.792228 0.132235
H20   H     H_    0.082779 0.758353 0.854880 0.137233
H21   H     H_    0.152489 0.847932 0.916932 0.150679
H22   H     H_    0.288464 0.846673 0.916015 0.147386
H23   H     H_    0.922891 0.383013 0.861245 0.160882
H24   H     H_    0.355079 0.754236 0.853517 0.135729
H25   H     H_    0.286558 0.662986 0.792232 0.132232
H26   H     H_    0.758363 0.917225 0.854899 0.137228
H27   H     H_    0.847934 0.847509 0.916963 0.150656
H28   H     H_    0.846663 0.711529 0.916050 0.147389
H29   H     H_    0.754222 0.644919 0.853543 0.135721
H30   H     H_    0.662979 0.713449 0.792248 0.132228
H31   H     H_    0.917215 0.758333 0.145083 0.137229
H32   H     H_    0.847505 0.847895 0.083015 0.150642
H33   H     H_    0.711528 0.846645 0.083947 0.147395
H34   H     H_    0.383015 0.077115 0.861241 0.160889
H35   H     H_    0.644915 0.754233 0.146477 0.135732
H36   H     H_    0.713438 0.662996 0.207774 0.132240
H37   H     H_    0.241642 0.917232 0.145129 0.137224
H38   H     H_    0.152050 0.847534 0.083082 0.150696
H39   H     H_    0.153303 0.711557 0.083992 0.147381
H40   H     H_    0.245742 0.644931 0.146482 0.135727
H41   H     H_    0.337001 0.713443 0.207764 0.132229
H42   H     H_    0.082751 0.241589 0.145201 0.137236
H43   H     H_    0.152436 0.151959 0.083192 0.150779
H44   H     H_    0.288413 0.153236 0.084054 0.147365
H45   H     H_    0.077101 0.383008 0.138762 0.160891
H46   H     H_    0.355053 0.245746 0.146455 0.135718
H47   H     H_    0.286552 0.337043 0.207706 0.132210
H48   H     H_    0.758502 0.082780 0.145270 0.137267
H49   H     H_    0.848067 0.152493 0.083198 0.150770
H50   H     H_    0.846620 0.288462 0.083923 0.147396
H51   H     H_    0.754033 0.355063 0.146269 0.135698
H52   H     H_    0.662819 0.286533 0.207594 0.132182
H53   H     H_    0.417224 0.741643 0.354892 0.137233
H54   H     H_    0.347517 0.652063 0.416950 0.150673
H55   H     H_    0.211540 0.653327 0.416041 0.147392
H56   H     H_    0.616999 0.077089 0.138756 0.160907
H57   H     H_    0.144923 0.745765 0.353544 0.135729
H58   H     H_    0.213443 0.837013 0.292251 0.132232
H59   H     H_    0.741654 0.582772 0.354893 0.137233
H60   H     H_    0.652069 0.652474 0.416946 0.150676
H61   H     H_    0.653317 0.788451 0.416023 0.147386
H62   H     H_    0.745745 0.855073 0.353517 0.135730
H63   H     H_    0.836999 0.786558 0.292230 0.132234
H64   H     H_    0.582729 0.258356 0.354865 0.137218
H65   H     H_    0.652410 0.347972 0.416900 0.150724
H66   H     H_    0.788385 0.346766 0.415971 0.147367
H67   H     H_    0.922884 0.616983 0.138755 0.160886
H68   H     H_    0.855030 0.254347 0.353473 0.135735
H69   H     H_    0.786539 0.163062 0.292206 0.132220
H70   H     H_    0.258399 0.417262 0.354823 0.137239
H71   H     H_    0.347999 0.347577 0.416875 0.150745
H72   H     H_    0.346717 0.211603 0.416020 0.147379
H73   H     H_    0.254243 0.144965 0.353579 0.135724
H74   H     H_    0.162981 0.213464 0.292288 0.132217
H75   H     H_    0.417227 0.258354 0.645113 0.137233
H76   H     H_    0.347524 0.347936 0.583056 0.150682
H77   H     H_    0.211547 0.346673 0.583963 0.147390
H78   H     H_    0.383013 0.922886 0.138762 0.160884
H79   H     H_    0.144926 0.254233 0.646459 0.135730
H80   H     H_    0.213442 0.162983 0.707750 0.132233
H81   H     H_    0.741648 0.417221 0.645122 0.137233
H82   H     H_    0.652064 0.347516 0.583071 0.150681
H83   H     H_    0.653324 0.211540 0.583983 0.147385
H84   H     H_    0.745765 0.144921 0.646477 0.135730
H85   H     H_    0.837017 0.213439 0.707762 0.132236
H86   H     H_    0.582781 0.741662 0.645113 0.137228
H87   H     H_    0.652485 0.652086 0.583054 0.150666
H88   H     H_    0.788462 0.653338 0.583972 0.147387
H89   H     H_    0.577101 0.116998 0.361234 0.160869
H90   H     H_    0.855082 0.745763 0.646481 0.135730
H91   H     H_    0.786565 0.837009 0.707774 0.132232
H92   H     H_    0.258348 0.582772 0.645101 0.137230
H93   H     H_    0.347924 0.652478 0.583040 0.150668
H94   H     H_    0.346670 0.788454 0.583955 0.147393
H95   H     H_    0.254242 0.855072 0.646463 0.135731
H96   H     H_    0.162996 0.786554 0.707757 0.132234
O1    O     O_R   0.939380 0.392670 0.000020 -0.626350
O2    O     O_R   0.892670 0.560620 0.500020 -0.626341
O3    O     O_R   0.560620 0.107330 0.500020 -0.626336
O4    O     O_R   0.107330 0.439380 0.500020 -0.626335
O5    O     O_R   0.439380 0.107330 0.499980 -0.626332
O6    O     O_R   0.892670 0.439380 0.499980 -0.626325
O7    O     O_R   0.560620 0.892670 0.499980 -0.626338
O8    O     O_R   0.107330 0.560620 0.499980 -0.626344
O9    O     O_R   0.939380 0.500000 0.908420 -0.624893
O10   O     O_R   0.500000 0.060620 0.908420 -0.624897
O11   O     O_R   0.060620 0.500000 0.908420 -0.624895
O12   O     O_R   0.392670 0.060620 0.000020 -0.626328
O13   O     O_R   0.500000 0.939380 0.908420 -0.624893
O14   O     O_R   0.939380 0.500000 0.091580 -0.624888
O15   O     O_R   0.500000 0.939380 0.091580 -0.624893
O16   O     O_R   0.060620 0.500000 0.091580 -0.624894
O17   O     O_R   0.500000 0.060620 0.091580 -0.624891
O18   O     O_R   0.439380 0.000000 0.408420 -0.624893
O19   O     O_R   0.000000 0.560620 0.408420 -0.624896
O20   O     O_R   0.560620 0.000000 0.408420 -0.624888
O21   O     O_R   0.000000 0.439380 0.408420 -0.624889
O22   O     O_R   0.439380 1.000000 0.591580 -0.624891
O23   O     O_R   0.060620 0.607330 0.000020 -0.626332
O24   O     O_R   0.000000 0.439380 0.591580 -0.624895
O25   O     O_R   0.560620 1.000000 0.591580 -0.624897
O26   O     O_R   0.000000 0.560620 0.591580 -0.624891
O27   O     O_R   0.107300 0.999970 0.948290 -0.628425
O28   O     O_R   0.999970 0.892700 0.948290 -0.628422
O29   O     O_R   0.892700 0.000030 0.948290 -0.628433
O30   O     O_R   0.000030 0.107300 0.948290 -0.628428
O31   O     O_R   0.107300 0.000030 0.051710 -0.628467
O32   O     O_R   0.999970 0.107300 0.051710 -0.628487
O33   O     O_R   0.892700 0.999970 0.051710 -0.628434
O34   O     O_R   0.607330 0.939380 0.000020 -0.626347
O35   O     O_R   0.000030 0.892700 0.051710 -0.628425
O36   O     O_R   0.607300 0.499970 0.448290 -0.628442
O37   O     O_R   0.499970 0.392700 0.448290 -0.628465
O38   O     O_R   0.392700 0.500030 0.448290 -0.628445
O39   O     O_R   0.500030 0.607300 0.448290 -0.628426
O40   O     O_R   0.607300 0.500030 0.551710 -0.628421
O41   O     O_R   0.499970 0.607300 0.551710 -0.628421
O42   O     O_R   0.392700 0.499970 0.551710 -0.628428
O43   O     O_R   0.500030 0.392700 0.551710 -0.628425
O44   O     O_R   0.939380 0.607330 0.999980 -0.626346
O45   O     O_R   0.392670 0.939380 0.999980 -0.626338
O46   O     O_R   0.060620 0.392670 0.999980 -0.626330
O47   O     O_R   0.607330 0.060620 0.999980 -0.626328
O48   O     O_R   0.439380 0.892670 0.500020 -0.626341
Zn1   Zn    Zn3+2 0.919060 0.500000 0.000000 0.939719
Zn2   Zn    Zn3+2 0.000000 1.000000 0.069040 0.920010
Zn3   Zn    Zn3+2 0.500000 0.500000 0.430960 0.920048
Zn4   Zn    Zn3+2 0.500000 0.500000 0.569040 0.920082
Zn5   Zn    Zn3+2 0.500000 0.080940 0.000000 0.939744
Zn6   Zn    Zn3+2 0.080940 0.500000 0.000000 0.939740
Zn7   Zn    Zn3+2 0.500000 0.919060 0.000000 0.939732
Zn8   Zn    Zn3+2 0.419060 1.000000 0.500000 0.939738
Zn9   Zn    Zn3+2 0.000000 0.580940 0.500000 0.939732
Zn10  Zn    Zn3+2 0.580940 1.000000 0.500000 0.939735
Zn11  Zn    Zn3+2 0.000000 0.419060 0.500000 0.939747
Zn12  Zn    Zn3+2 1.000000 0.000000 0.930960 0.920083

loop_
_geom_bond_atom_site_label_1
_geom_bond_atom_site_label_2
_ccdc_geom_bond_type
C132  C144  A    
C37   H40   S    
C80   H75   S    
O20   Zn10  S    
C19   C20   A    
C136  C140  A    
C34   H38   S    
C146  C183  S    
C128  C145  A    
C73   C74   A    
C127  O34   A    
C158  C174  A    
C72   C139  S    
C51   H52   S    
O30   Zn12  S    
C92   C97   A    
C24   C127  S    
C87   H82   S    
C115  C165  A    
C106  C177  S    
O29   Zn12  S    
C65   C137  S    
C74   H71   S    
O28   Zn12  S    
C59   C60   A    
O41   Zn4   S    
C21   C22   A    
C150  C181  S    
C45   C47   A    
C191  C192  A    
O17   Zn5   S    
C6    C132  S    
C153  O42   A    
C148  O29   A    
C72   C73   A    
C124  H5    S    
C149  O6    A    
C24   C185  T    
C75   C76   A    
C37   C38   A    
O14   Zn1   S    
C155  C169  A    
C13   C184  T    
C56   H57   S    
C123  C141  A    
C1    O1    A    
O10   Zn5   S    
C154  O39   A    
C103  H95   S    
C52   C58   A    
C120  H89   S    
C133  C139  A    
C123  H4    S    
C112  H12   S    
C121  H2    S    
O13   Zn7   S    
O11   Zn6   S    
C4    C5    A    
C6    C7    A    
C107  O20   A    
C27   H31   S    
C119  C136  A    
O19   Zn9   S    
C90   O13   A    
C68   C189  T    
C61   H60   S    
O6    Zn11  S    
C2    C183  T    
C69   C70   A    
O3    Zn10  S    
C167  C178  A    
C20   C21   A    
C98   C99   A    
C127  O47   A    
C22   C23   A    
C191  H9    S    
C151  O40   A    
C190  C191  A    
C15   H21   S    
C38   H41   S    
C7    C8    A    
C153  C189  S    
C171  O8    A    
C154  C186  S    
C36   C37   A    
C85   C145  S    
C68   C171  S    
C78   C80   A    
C107  C176  S    
C156  C168  A    
C108  C175  S    
C118  C167  A    
C77   H74   S    
C101  C178  S    
C10   H18   S    
C47   C48   A    
C89   C91   A    
C9    C10   A    
O18   Zn8   S    
O27   Zn12  S    
O46   Zn6   S    
C66   C67   A    
C31   H36   S    
C33   H37   S    
C128  C157  A    
C113  C172  A    
C107  O18   A    
O25   Zn10  S    
C86   H81   S    
C7    H15   S    
C50   H51   S    
C79   O11   A    
C39   C40   A    
C115  H45   S    
C161  C176  A    
C158  C170  A    
C162  C175  A    
C41   H43   S    
C159  C165  A    
C147  O35   A    
C29   C30   A    
O37   Zn3   S    
C78   C144  S    
C81   H76   S    
C83   C84   A    
C28   H32   S    
C17   C18   A    
C25   H30   S    
C88   C89   A    
C16   H22   S    
C101  O14   A    
O40   Zn4   S    
C104  H96   S    
C66   H64   S    
C125  H6    S    
O8    Zn9   S    
C3    C4    A    
C148  O33   A    
O47   Zn5   S    
C52   C53   A    
C117  H56   S    
C54   C55   A    
C149  O2    A    
C169  C180  A    
C138  O7    A    
O44   Zn1   S    
C53   C54   A    
C39   C44   A    
O7    Zn10  S    
C170  C179  A    
C102  H94   S    
O23   Zn6   S    
C122  C140  A    
O48   Zn8   S    
C3    C192  A    
C171  O4    A    
O22   Zn8   S    
O33   Zn2   S    
C125  C143  A    
C35   C186  T    
C126  C144  A    
C56   C58   A    
C131  C145  A    
C34   C36   A    
C61   C62   A    
C130  C142  A    
C10   C11   A    
C63   C64   A    
C116  O23   A    
C135  C141  A    
C46   C149  S    
C59   C141  S    
O35   Zn2   S    
C49   C50   A    
C21   H27   S    
C14   C15   A    
C112  C130  A    
O1    Zn1   S    
C147  C184  S    
C62   H61   S    
C55   C56   A    
C160  O3    A    
C105  O45   A    
C3    H11   S    
C41   C42   A    
C122  H3    S    
C152  C188  S    
C79   O9    A    
C134  C137  A    
C4    H13   S    
C181  C182  T    
C151  C187  S    
C156  C174  A    
C26   C27   A    
C82   H77   S    
C28   C29   A    
C116  O44   A    
C88   H83   S    
C97   H91   S    
C30   C31   A    
C147  O28   A    
C63   H62   S    
O32   Zn2   S    
C146  O27   A    
C91   H85   S    
C101  O16   A    
C5    H14   S    
C111  C129  A    
C23   H29   S    
C16   C17   A    
C109  O22   A    
C60   H59   S    
C70   C71   A    
C95   H88   S    
C105  O12   A    
C46   C187  T    
C17   H24   S    
C64   H63   S    
C99   H92   S    
C172  C180  A    
C19   C130  S    
C70   H68   S    
C117  C134  A    
C49   H50   S    
O39   Zn3   S    
C117  C164  A    
C12   C129  S    
O31   Zn2   S    
C154  O41   A    
C40   H42   S    
C32   C136  S    
C109  C174  S    
C48   H49   S    
C118  H67   S    
C115  C133  A    
C148  C185  S    
C85   C86   A    
C60   C61   A    
C111  C169  A    
O15   Zn7   S    
C128  H8    S    
C62   C63   A    
C114  H34   S    
C163  C166  A    
C50   C51   A    
C59   C64   A    
C83   H79   S    
C93   H86   S    
C67   H65   S    
C111  H1    S    
O4    Zn11  S    
C48   C49   A    
C57   C160  S    
O16   Zn6   S    
C42   C43   A    
C6    C11   A    
C161  C164  A    
C39   C133  S    
C131  C190  S    
C22   H28   S    
C75   H72   S    
C109  O25   A    
C86   C87   A    
O36   Zn3   S    
C20   H26   S    
C30   H35   S    
O42   Zn4   S    
C1    C182  S    
O34   Zn7   S    
C129  C143  A    
C168  C179  A    
C14   H20   S    
C32   C33   A    
C157  C172  A    
C121  C139  A    
C36   H39   S    
C92   C93   A    
C52   C140  S    
C54   H54   S    
C94   C95   A    
O26   Zn9   S    
C13   C116  S    
C87   C88   A    
C82   C83   A    
C103  C104  A    
C79   C180  S    
C120  C137  A    
C160  O5    A    
C118  C135  A    
C157  C173  A    
C126  H7    S    
C71   H69   S    
C152  O43   A    
C93   C94   A    
C98   C143  S    
O5    Zn8   S    
C95   C96   A    
C29   H33   S    
C43   C44   A    
C81   C82   A    
C85   C91   A    
C45   C134  S    
C5    C190  A    
C35   C138  S    
O43   Zn4   S    
C45   C51   A    
C150  O32   A    
C15   C16   A    
C112  C168  A    
C8    H16   S    
C57   C188  T    
C153  O38   A    
C11   H19   S    
C94   H87   S    
C42   H44   S    
O24   Zn11  S    
C108  O19   A    
C9    H17   S    
C8    C9    A    
O21   Zn11  S    
C89   H84   S    
C26   C135  S    
C32   C38   A    
C92   C142  S    
C155  C173  A    
C26   C31   A    
C55   H55   S    
C76   H73   S    
C165  C178  A    
C124  C142  A    
C102  C103  A    
C163  C176  A    
C126  C158  A    
C146  O31   A    
C74   C75   A    
C84   H80   S    
C110  O24   A    
C76   C77   A    
C166  C177  A    
C123  C162  A    
C65   C71   A    
C100  H93   S    
C96   H90   S    
C122  C163  A    
C162  C167  A    
C67   C69   A    
C106  O15   A    
C72   C77   A    
O38   Zn3   S    
C43   H46   S    
C106  O17   A    
C99   C100  A    
O9    Zn1   S    
C96   C97   A    
C100  C102  A    
C33   C34   A    
C119  C166  A    
C120  C161  A    
C40   C41   A    
C12   C14   A    
C152  O37   A    
C124  C156  A    
C58   H58   S    
C113  H23   S    
O12   Zn5   S    
C44   H47   S    
C73   H70   S    
C110  C173  S    
C114  C170  A    
C119  H78   S    
C138  O48   A    
C90   C179  S    
C113  C131  A    
C114  C132  A    
C80   C81   A    
C151  O36   A    
C150  O30   A    
C2    C105  S    
O2    Zn9   S    
C1    O46   A    
C90   O10   A    
C108  O21   A    
C98   C104  A    
C23   C25   A    
C19   C25   A    
C53   H53   S    
C47   H48   S    
C78   C84   A    
O45   Zn7   S    
C65   C66   A    
C121  C159  A    
C12   C18   A    
C27   C28   A    
C192  H10   S    
C110  O26   A    
C159  C175  A    
C18   H25   S    
C164  C177  A    
C125  C155  A    
C69   H66   S    
