data_mof_unit_24794.cif
_audit_creation_date              2012-12-11T15:22:32-0500
_audit_creation_method            fapswitch 2.2
_symmetry_space_group_name_H-M    P1
_symmetry_Int_Tables_number       1
_space_group_crystal_system       triclinic
_cell_length_a                    22.352684
_cell_length_b                    13.007725
_cell_length_c                    26.830781
_cell_angle_alpha                 89.699186
_cell_angle_beta                  90.682624
_cell_angle_gamma                 89.857549
_cell_volume                      7800.56607248

loop_
_atom_site_label
_atom_site_type_symbol
_atom_type_description
_atom_site_fract_x
_atom_site_fract_y
_atom_site_fract_z
_atom_type_partial_charge
C1    C     C_R   0.720791 0.346406 0.178350 0.579550
C2    C     C_R   0.279975 0.343376 0.822354 0.585433
C3    C     C_R   0.220790 0.846401 0.178349 0.587699
C4    C     C_R   0.779976 0.843376 0.822355 0.585526
C5    C     C_R   0.471774 0.160639 0.873058 0.000865
C6    C     C_R   0.521092 0.165253 0.130192 -0.004138
C7    C     C_R   0.971755 0.660638 0.873067 0.000678
C8    C     C_R   0.021071 0.665256 0.130202 -0.004156
C9    C     C_R   0.519022 0.259083 0.103977 -0.133800
C10   C     C_R   0.481725 0.254880 0.897012 -0.141464
C11   C     C_R   0.018996 0.759087 0.103989 -0.134043
C12   C     C_R   0.981705 0.754879 0.897023 -0.141443
C13   C     C_R   0.506192 0.260091 0.052853 0.010609
C14   C     C_R   0.490601 0.257392 0.948728 0.008290
C15   C     C_R   0.006160 0.760095 0.052866 0.010549
C16   C     C_R   0.990573 0.757394 0.948740 0.008295
C17   C     C_R   0.495433 0.166229 0.028268 0.059811
C18   C     C_R   0.488997 0.164650 0.976277 0.058662
C19   C     C_R   0.995400 0.666233 0.028281 0.059825
C20   C     C_R   0.988964 0.664653 0.976290 0.058629
C21   C     C_R   0.507512 0.352113 0.025351 -0.134281
C22   C     C_R   0.499201 0.350859 0.973628 -0.130795
C23   C     C_R   0.007480 0.852116 0.025363 -0.134450
C24   C     C_R   0.999172 0.850860 0.973640 -0.130764
C25   C     C_R   0.742724 0.949016 0.132306 -0.038937
C26   C     C_R   0.280944 0.028002 0.879640 -0.039289
C27   C     C_R   0.242721 0.449026 0.132303 -0.038350
C28   C     C_R   0.780946 0.528011 0.879642 -0.039243
C29   C     C_R   0.794803 0.971698 0.105908 -0.135268
C30   C     C_R   0.248355 0.094149 0.910055 -0.150316
C31   C     C_R   0.294798 0.471715 0.105904 -0.134730
C32   C     C_R   0.748351 0.594153 0.910056 -0.150290
C33   C     C_R   0.799674 0.942994 0.056433 -0.161307
C34   C     C_R   0.248719 0.080028 0.961494 -0.170880
C35   C     C_R   0.299669 0.443011 0.056428 -0.161215
C36   C     C_R   0.748715 0.580039 0.961495 -0.171016
C37   C     C_R   0.752985 0.889719 0.032548 0.041094
C38   C     C_R   0.279824 0.996817 0.983395 0.036563
C39   C     C_R   0.252981 0.389731 0.032545 0.041029
C40   C     C_R   0.779827 0.496840 0.983400 0.036529
C41   C     C_R   0.702786 0.859656 0.059986 0.369188
C42   C     C_R   0.314304 0.932431 0.952958 0.374670
C43   C     C_R   0.202783 0.359666 0.059983 0.369340
C44   C     C_R   0.814313 0.432458 0.952965 0.374736
C45   C     C_R   0.552599 0.157711 0.178180 0.561634
C46   C     C_R   0.446086 0.156754 0.822658 0.539542
C47   C     C_R   0.052595 0.657712 0.178182 0.553935
C48   C     C_R   0.946080 0.656753 0.822662 0.540263
C49   C     C_R   0.697706 0.889443 0.109621 -0.082665
C50   C     C_R   0.315561 0.949199 0.901616 -0.079775
C51   C     C_R   0.197703 0.389453 0.109618 -0.081790
C52   C     C_R   0.815570 0.449221 0.901621 -0.079850
C53   C     C_R   0.707898 0.893199 0.946450 -0.030959
C54   C     C_R   0.313699 0.929534 0.067678 -0.021843
C55   C     C_R   0.207896 0.393204 0.946447 -0.031006
C56   C     C_R   0.813704 0.429574 0.067688 -0.022030
C57   C     C_R   0.714432 0.885838 0.894780 0.353842
C58   C     C_R   0.299498 0.890857 0.114928 0.365838
C59   C     C_R   0.214431 0.385842 0.894778 0.353892
C60   C     C_R   0.799503 0.390896 0.114938 0.364861
C61   C     C_R   0.818352 0.837184 0.907601 -0.185066
C62   C     C_R   0.195775 0.938405 0.100286 -0.173908
C63   C     C_R   0.318351 0.337188 0.907600 -0.185123
C64   C     C_R   0.695777 0.438414 0.100289 -0.173948
C65   C     C_R   0.811462 0.841468 0.958657 -0.156598
C66   C     C_R   0.209710 0.974664 0.053285 -0.133161
C67   C     C_R   0.311460 0.341475 0.958656 -0.156548
C68   C     C_R   0.709713 0.474675 0.053289 -0.133449
C69   C     C_R   0.756667 0.871575 0.978627 -0.002918
C70   C     C_R   0.268496 0.969221 0.035977 0.001102
C71   C     C_R   0.256664 0.371583 0.978624 -0.002936
C72   C     C_R   0.768500 0.469246 0.035983 0.001090
C73   C     C_R   0.770339 0.860239 0.875293 0.034887
C74   C     C_R   0.239979 0.893831 0.131238 0.029773
C75   C     C_R   0.270339 0.360241 0.875292 0.034893
C76   C     C_R   0.739981 0.393849 0.131244 0.030094
C77   C     C_R   0.560798 0.164614 0.379740 0.019980
C78   C     C_R   0.482412 0.168538 0.633357 0.021996
C79   C     C_R   0.022016 0.667647 0.368694 0.017209
C80   C     C_R   0.971418 0.670729 0.628637 0.023517
C81   C     C_R   0.583256 0.246357 0.408318 -0.128081
C82   C     C_R   0.483161 0.261603 0.606525 -0.127742
C83   C     C_R   0.020855 0.762453 0.393419 -0.133705
C84   C     C_R   0.956783 0.758693 0.600367 -0.126876
C85   C     C_R   0.573057 0.250117 0.459490 -0.111161
C86   C     C_R   0.505913 0.264678 0.558321 -0.119950
C87   C     C_R   0.010408 0.765811 0.444408 -0.125460
C88   C     C_R   0.966649 0.760926 0.549390 -0.123180
C89   C     C_R   0.731699 0.000832 0.179770 0.558070
C90   C     C_R   0.281386 0.046284 0.825591 0.557840
C91   C     C_R   0.231697 0.500836 0.179768 0.558628
C92   C     C_R   0.781387 0.546286 0.825591 0.557685
C93   C     C_R   0.540329 0.171884 0.482704 0.034594
C94   C     C_R   0.528182 0.174810 0.536490 0.034019
C95   C     C_R   0.998321 0.675002 0.471007 0.033211
C96   C     C_R   0.992866 0.676374 0.525815 0.031861
C97   C     C_R   0.516759 0.091447 0.453896 -0.128073
C98   C     C_R   0.532416 0.084309 0.564983 -0.117203
C99   C     C_R   0.992219 0.582286 0.444856 -0.121484
C100  C     C_R   0.012248 0.591932 0.554894 -0.120048
C101  C     C_R   0.526878 0.087752 0.402894 -0.131004
C102  C     C_R   0.509646 0.081119 0.613010 -0.120575
C103  C     C_R   0.004267 0.578511 0.394168 -0.129456
C104  C     C_R   0.000852 0.588529 0.605857 -0.123544
C105  C     C_R   0.721085 0.028243 0.382264 0.016737
C106  C     C_R   0.254999 0.942142 0.631771 0.023393
C107  C     C_R   0.219632 0.533797 0.382475 0.012134
C108  C     C_R   0.758064 0.449510 0.630012 0.024569
C109  C     C_R   0.669838 0.992800 0.406539 -0.131054
C110  C     C_R   0.301407 0.888829 0.608130 -0.128027
C111  C     C_R   0.167491 0.503180 0.407122 -0.136448
C112  C     C_R   0.807904 0.411064 0.604765 -0.127417
C113  C     C_R   0.669483 0.982715 0.458150 -0.111709
C114  C     C_R   0.292677 0.849402 0.560528 -0.132082
C115  C     C_R   0.167452 0.492663 0.458851 -0.122420
C116  C     C_R   0.803992 0.391280 0.554327 -0.125566
C117  C     C_R   0.721130 0.004817 0.486288 0.039473
C118  C     C_R   0.237310 0.861662 0.536255 0.030288
C119  C     C_R   0.219836 0.511334 0.486759 0.035474
C120  C     C_R   0.749643 0.406027 0.528730 0.036751
C121  C     C_R   0.772386 0.040635 0.461947 -0.119661
C122  C     C_R   0.189409 0.906872 0.561438 -0.114819
C123  C     C_R   0.271200 0.546014 0.462162 -0.109383
C124  C     C_R   0.698009 0.432172 0.555289 -0.119558
C125  C     C_R   0.772222 0.052874 0.410486 -0.124972
C126  C     C_R   0.198262 0.947357 0.608897 -0.124467
C127  C     C_R   0.270936 0.558001 0.410644 -0.114190
C128  C     C_R   0.702339 0.455051 0.605738 -0.125236
C129  C     C_R   0.760919 0.035329 0.572349 -0.117703
C130  C     C_R   0.181892 0.786080 0.464462 -0.108720
C131  C     C_R   0.261134 0.537981 0.572827 -0.118526
C132  C     C_R   0.711501 0.468646 0.446478 -0.125231
C133  C     C_R   0.721524 0.347546 0.321658 0.528479
C134  C     C_R   0.278225 0.348710 0.678535 0.550619
C135  C     C_R   0.204553 0.804985 0.326981 0.532663
C136  C     C_R   0.778186 0.848726 0.678702 0.550136
C137  C     C_R   0.776214 0.995742 0.619104 -0.124892
C138  C     C_R   0.173866 0.774975 0.413307 -0.140161
C139  C     C_R   0.276706 0.496772 0.619255 -0.121932
C140  C     C_R   0.707013 0.458832 0.395075 -0.133187
C141  C     C_R   0.713024 0.847795 0.603572 -0.126675
C142  C     C_R   0.264979 0.870217 0.398429 -0.109853
C143  C     C_R   0.212194 0.350797 0.603427 -0.127259
C144  C     C_R   0.781455 0.322914 0.398093 -0.125103
C145  C     C_R   0.698748 0.886169 0.556529 -0.122721
C146  C     C_R   0.273520 0.880668 0.449647 -0.123027
C147  C     C_R   0.197482 0.390997 0.556677 -0.120295
C148  C     C_R   0.784359 0.330085 0.449446 -0.119722
C149  C     C_R   0.724650 0.978047 0.539654 0.035019
C150  C     C_R   0.231522 0.839902 0.482893 0.025663
C151  C     C_R   0.223850 0.482755 0.540063 0.032138
C152  C     C_R   0.748097 0.400928 0.474214 0.037011
C153  C     C_R   0.754165 0.899785 0.634087 0.025446
C154  C     C_R   0.214410 0.818848 0.380203 0.024871
C155  C     C_R   0.254119 0.400939 0.634002 0.024986
C156  C     C_R   0.739912 0.382418 0.370976 0.024487
C157  C     C_R   0.578117 0.155521 0.327280 0.528283
C158  C     C_R   0.447009 0.158931 0.679064 0.548504
C159  C     C_R   0.052924 0.658711 0.320863 0.519207
C160  C     C_R   0.945735 0.659171 0.678388 0.548351
C161  C     C_R   0.719461 0.046500 0.328255 0.539999
C162  C     C_R   0.267842 0.000999 0.677191 0.553438
C163  C     C_R   0.219012 0.548050 0.328055 0.536706
C164  C     C_R   0.767851 0.500715 0.677535 0.554652
C165  C     C_R   0.503861 0.074036 0.106478 -0.115466
C166  C     C_R   0.474656 0.068440 0.900505 -0.107262
C167  C     C_R   0.003834 0.574041 0.106491 -0.115909
C168  C     C_R   0.974626 0.568441 0.900517 -0.107307
C169  C     C_R   0.493004 0.073252 0.055473 0.000747
C170  C     C_R   0.481301 0.069935 0.951873 0.002977
C171  C     C_R   0.992971 0.573257 0.055487 0.000796
C172  C     C_R   0.981268 0.569938 0.951886 0.002972
C173  C     C_R   0.478318 0.978173 0.979254 -0.095821
C174  C     C_R   0.483694 0.979914 0.030882 -0.110721
C175  C     C_R   0.978284 0.478177 0.979268 -0.095782
C176  C     C_R   0.983661 0.479919 0.030896 -0.110811
Cr1   Cr    Cr6+3 0.756570 0.170940 0.251190 1.065112
Cr2   Cr    Cr6+3 0.243430 0.170940 0.748810 1.052673
Cr3   Cr    Cr6+3 0.256570 0.670940 0.251190 1.074088
Cr4   Cr    Cr6+3 0.743430 0.670940 0.748810 1.052008
Cr5   Cr    Cr6+3 0.623740 0.299110 0.249580 1.019338
Cr6   Cr    Cr6+3 0.376260 0.299110 0.750420 1.017444
Cr7   Cr    Cr6+3 0.123740 0.799110 0.249580 1.014338
Cr8   Cr    Cr6+3 0.876260 0.799110 0.750420 1.016851
Cr9   Cr    Cr6+3 0.625990 0.036240 0.250480 1.024819
Cr10  Cr    Cr6+3 0.374010 0.036240 0.749520 1.024004
Cr11  Cr    Cr6+3 0.125990 0.536240 0.250480 1.022206
Cr12  Cr    Cr6+3 0.874010 0.536240 0.749520 1.024498
H1    H     H_    0.467167 0.995074 0.882489 0.149469
H2    H     H_    0.504275 0.001674 0.126758 0.155187
H3    H     H_    0.967136 0.495075 0.882501 0.149509
H4    H     H_    0.004250 0.501679 0.126772 0.154746
H5    H     H_    0.861089 0.812871 0.893210 0.143395
H6    H     H_    0.149338 0.941116 0.111348 0.147954
H7    H     H_    0.361089 0.312875 0.893211 0.143447
H8    H     H_    0.649339 0.441111 0.111349 0.148009
H9    H     H_    0.657311 0.870060 0.129453 0.154863
H10   H     H_    0.341977 0.897965 0.878977 0.157266
H11   H     H_    0.157309 0.370068 0.129451 0.155346
H12   H     H_    0.841992 0.397991 0.878985 0.157296
H13   H     H_    0.610084 0.305739 0.391279 0.133093
H14   H     H_    0.462712 0.330300 0.621409 0.130196
H15   H     H_    0.033913 0.832632 0.374610 0.135582
H16   H     H_    0.933428 0.822995 0.616799 0.137883
H17   H     H_    0.550776 0.014724 0.549172 0.101472
H18   H     H_    0.490232 0.031434 0.470867 0.103890
H19   H     H_    0.034644 0.527134 0.538072 0.097698
H20   H     H_    0.980169 0.511811 0.463842 0.102157
H21   H     H_    0.510624 0.008775 0.633179 0.132728
H22   H     H_    0.509012 0.023787 0.381827 0.135593
H23   H     H_    0.012795 0.520160 0.626980 0.128576
H24   H     H_    0.003420 0.504618 0.375759 0.131610
H25   H     H_    0.591578 0.312869 0.481036 0.105072
H26   H     H_    0.502349 0.335375 0.536973 0.104523
H27   H     H_    0.015384 0.838662 0.463280 0.101756
H28   H     H_    0.950729 0.826786 0.528235 0.105396
H29   H     H_    0.629934 0.972826 0.385614 0.132543
H30   H     H_    0.345491 0.882751 0.625097 0.130441
H31   H     H_    0.126766 0.487154 0.386434 0.139028
H32   H     H_    0.851469 0.405268 0.622708 0.135922
H33   H     H_    0.780034 0.107938 0.560761 0.107769
H34   H     H_    0.149570 0.752780 0.489587 0.122738
H35   H     H_    0.280734 0.610369 0.561531 0.109657
H36   H     H_    0.685056 0.527146 0.464550 0.104868
H37   H     H_    0.807103 0.038011 0.642652 0.128971
H38   H     H_    0.136860 0.730157 0.399446 0.106562
H39   H     H_    0.308189 0.537847 0.642761 0.129404
H40   H     H_    0.675218 0.506475 0.374686 0.132198
H41   H     H_    0.471686 0.905157 0.960743 0.165621
H42   H     H_    0.481967 0.908089 0.051468 0.152365
H43   H     H_    0.971653 0.405160 0.960756 0.165705
H44   H     H_    0.981935 0.408094 0.051482 0.152326
H45   H     H_    0.629153 0.955801 0.475899 0.100814
H46   H     H_    0.329843 0.813438 0.541731 0.098868
H47   H     H_    0.126820 0.467974 0.476886 0.099237
H48   H     H_    0.844662 0.371661 0.535022 0.100836
H49   H     H_    0.671111 0.839618 0.532179 0.101086
H50   H     H_    0.311826 0.923439 0.463276 0.111315
H51   H     H_    0.168977 0.346091 0.532273 0.105665
H52   H     H_    0.813018 0.276790 0.469690 0.095565
H53   H     H_    0.695292 0.773667 0.614463 0.130858
H54   H     H_    0.297183 0.903171 0.373115 0.133196
H55   H     H_    0.193967 0.276896 0.614087 0.129569
H56   H     H_    0.808049 0.264412 0.380225 0.125800
H57   H     H_    0.813483 0.055700 0.482345 0.097212
H58   H     H_    0.146327 0.917045 0.543120 0.107719
H59   H     H_    0.312558 0.559915 0.482385 0.102104
H60   H     H_    0.655004 0.439938 0.536639 0.094822
H61   H     H_    0.812522 0.080154 0.392844 0.125061
H62   H     H_    0.161610 0.987143 0.626547 0.129408
H63   H     H_    0.311338 0.584632 0.392892 0.136844
H64   H     H_    0.663140 0.482856 0.624877 0.127322
H65   H     H_    0.479468 0.326150 0.875934 0.129982
H66   H     H_    0.531668 0.329944 0.122362 0.127573
H67   H     H_    0.979454 0.826148 0.875943 0.130129
H68   H     H_    0.031645 0.829948 0.122373 0.127365
H69   H     H_    0.500148 0.422733 0.953064 0.128448
H70   H     H_    0.515646 0.424783 0.043758 0.121271
H71   H     H_    0.000122 0.922734 0.953075 0.128523
H72   H     H_    0.015615 0.924786 0.043770 0.121217
H73   H     H_    0.830303 0.017220 0.122419 0.167845
H74   H     H_    0.222468 0.156713 0.893972 0.158701
H75   H     H_    0.330297 0.517240 0.122414 0.168189
H76   H     H_    0.722458 0.656707 0.893970 0.158711
H77   H     H_    0.665403 0.918179 0.961162 0.187669
H78   H     H_    0.359659 0.926618 0.055576 0.178056
H79   H     H_    0.165401 0.418185 0.961158 0.187665
H80   H     H_    0.859665 0.426670 0.055589 0.177998
H81   H     H_    0.838801 0.967375 0.036117 0.138863
H82   H     H_    0.222762 0.132125 0.984063 0.174103
H83   H     H_    0.338794 0.467395 0.036112 0.138881
H84   H     H_    0.722753 0.632132 0.984062 0.174011
H85   H     H_    0.849290 0.822223 0.982596 0.135511
H86   H     H_    0.173563 0.002668 0.029605 0.145174
H87   H     H_    0.349288 0.322231 0.982596 0.135673
H88   H     H_    0.673564 0.502668 0.029607 0.145137
O1    O     O_R   0.769900 0.064540 0.196060 -0.492527
O2    O     O_R   0.230100 0.064540 0.803940 -0.491684
O3    O     O_R   0.269900 0.564540 0.196060 -0.493029
O4    O     O_R   0.730100 0.564540 0.803940 -0.492164
O5    O     O_R   0.574760 0.239320 0.300850 -0.488215
O6    O     O_R   0.425240 0.239320 0.699150 -0.497999
O7    O     O_R   0.074760 0.739320 0.300850 -0.523085
O8    O     O_R   0.925240 0.739320 0.699150 -0.500447
O9    O     O_R   0.566290 0.069580 0.305400 -0.521739
O10   O     O_R   0.433710 0.069580 0.694600 -0.515516
O11   O     O_R   0.066290 0.569580 0.305400 -0.529302
O12   O     O_R   0.933710 0.569580 0.694600 -0.513011
O13   O     O_R   0.680760 0.993330 0.302620 -0.507315
O14   O     O_R   0.319240 0.993330 0.697380 -0.497868
O15   O     O_R   0.180760 0.493330 0.302620 -0.492977
O16   O     O_R   0.819240 0.493330 0.697380 -0.500433
O17   O     O_3   0.668770 0.168760 0.250420 -0.290354
O18   O     O_3   0.331230 0.168760 0.749580 -0.275736
O19   O     O_3   0.168770 0.668760 0.250420 -0.297496
O20   O     O_3   0.831230 0.668760 0.749580 -0.276245
O21   O     O_R   0.750800 0.274080 0.199250 -0.429929
O22   O     O_R   0.249200 0.274080 0.800750 -0.485439
O23   O     O_R   0.250800 0.774080 0.199250 -0.427527
O24   O     O_R   0.749200 0.774080 0.800750 -0.485442
O25   O     O_R   0.669990 0.371670 0.194150 -0.533840
O26   O     O_R   0.330010 0.371670 0.805850 -0.522248
O27   O     O_R   0.169990 0.871670 0.194150 -0.529890
O28   O     O_R   0.830010 0.871670 0.805850 -0.521881
O29   O     O_R   0.574600 0.238480 0.197800 -0.496895
O30   O     O_R   0.425400 0.238480 0.802200 -0.510284
O31   O     O_R   0.074600 0.738480 0.197800 -0.501079
O32   O     O_R   0.925400 0.738480 0.802200 -0.509509
O33   O     O_R   0.566130 0.068680 0.194240 -0.507313
O34   O     O_R   0.433870 0.068680 0.805760 -0.521122
O35   O     O_R   0.066130 0.568680 0.194240 -0.509494
O36   O     O_R   0.933870 0.568680 0.805760 -0.520581
O37   O     O_R   0.680610 0.992490 0.199570 -0.499373
O38   O     O_R   0.319390 0.992490 0.800430 -0.503501
O39   O     O_R   0.180610 0.492490 0.199570 -0.497541
O40   O     O_R   0.819390 0.492490 0.800430 -0.503716
O41   O     O_R   0.770060 0.065440 0.307230 -0.513663
O42   O     O_R   0.229940 0.065440 0.692770 -0.517081
O43   O     O_R   0.270060 0.565440 0.307230 -0.514853
O44   O     O_R   0.729940 0.565440 0.692770 -0.516616
O45   O     O_R   0.750960 0.274920 0.302300 -0.520548
O46   O     O_R   0.249040 0.274920 0.697700 -0.497389
O47   O     O_R   0.250960 0.774920 0.302300 -0.509656
O48   O     O_R   0.749040 0.774920 0.697700 -0.497469
O49   O     O_R   0.670160 0.372580 0.305320 -0.528960
O50   O     O_R   0.329840 0.372580 0.694680 -0.516348
O51   O     O_R   0.170160 0.872580 0.305320 -0.496096
O52   O     O_R   0.829840 0.872580 0.694680 -0.519691
F1    F     F_    0.658274 0.803676 0.038634 -0.661061
F2    F     F_    0.343475 0.849205 0.972036 -0.655040
F3    F     F_    0.158272 0.303683 0.038632 -0.660872
F4    F     F_    0.843492 0.349243 0.972046 -0.654944
F5    F     F_    0.667057 0.905495 0.864071 -0.623529
F6    F     F_    0.343526 0.850013 0.144184 -0.625279
F7    F     F_    0.167057 0.405497 0.864067 -0.623403
F8    F     F_    0.843533 0.350072 0.144200 -0.627383

loop_
_geom_bond_atom_site_label_1
_geom_bond_atom_site_label_2
_ccdc_geom_bond_type
C99   C103  A    
C7    C168  A    
C92   O40   A    
C55   C59   A    
C142  C146  A    
C131  C151  A    
C19   C20   A    
C45   O29   A    
C53   C69   A    
C38   C70   S    
C50   H10   S    
C114  H46   S    
C108  C164  S    
C37   C69   S    
C26   C50   A    
C95   C99   A    
C176  H44   S    
C29   C33   A    
C100  C104  A    
C31   H75   S    
C32   H76   S    
C3    C74   S    
C9    C13   A    
C163  O43   A    
C146  C150  A    
C11   C15   A    
Cr7   O51   S    
C12   C16   A    
C56   C72   A    
C169  C174  A    
Cr2   O2    S    
C172  C175  A    
C141  C145  A    
C122  H58   S    
C84   H16   S    
C6    C165  A    
C148  H52   S    
C21   C22   A    
C135  O51   A    
C41   C49   A    
Cr12  O16   S    
C18   C170  A    
C22   H69   S    
C25   C29   A    
C58   F6    S    
C27   C31   A    
C28   C32   A    
Cr9   O13   S    
Cr10  O10   S    
C82   H14   S    
C62   C66   A    
C167  C171  A    
C98   C102  A    
C60   C76   A    
Cr6   O30   S    
C30   H74   S    
C15   C19   A    
C78   C82   A    
C134  C155  S    
C54   C70   A    
C36   C40   A    
C68   C72   A    
C165  H2    S    
C137  C153  A    
C2    O26   A    
C3    O23   A    
Cr8   O28   S    
C20   C172  A    
C132  C152  A    
C62   H6    S    
C130  C138  A    
C160  O8    A    
C84   C88   A    
C92   O4    A    
Cr6   O6    S    
C119  C123  A    
C26   C90   S    
C5    C46   S    
C105  C125  A    
C7    C48   S    
Cr6   O26   S    
Cr3   O23   S    
C8    C47   S    
C107  C127  A    
C136  C153  S    
C66   C70   A    
C53   H77   S    
C144  H56   S    
C31   C35   A    
C125  H61   S    
C61   C65   A    
C158  O6    A    
C129  C137  A    
C39   C71   S    
C34   H82   S    
C47   O31   A    
C4    O24   A    
C89   O37   A    
C55   C71   A    
C2    C75   S    
C124  H60   S    
Cr10  O38   S    
C10   H65   S    
C161  O13   A    
C134  O46   A    
Cr4   O4    S    
C46   O34   A    
C6    C9    A    
C49   H9    S    
C129  C149  A    
C64   C68   A    
Cr5   O17   S    
C48   O36   A    
Cr8   O32   S    
C57   C73   A    
C137  H37   S    
C123  C127  A    
C78   C158  S    
C146  H50   S    
C87   C95   A    
C130  C150  A    
C23   C24   A    
C27   C91   S    
C52   H12   S    
C97   H18   S    
C110  C114  A    
C44   C52   A    
C157  O5    A    
C164  O44   A    
C79   C103  A    
C111  H31   S    
C27   C51   A    
C112  H32   S    
C7    C12   A    
C140  H40   S    
C30   C34   A    
C65   H85   S    
Cr2   O22   S    
C10   C14   A    
C164  O16   A    
C133  O49   A    
C142  H54   S    
C108  C128  A    
C116  C120  A    
C144  C156  A    
C147  C151  A    
C86   H26   S    
C121  C125  A    
C57   F5    S    
C143  C155  A    
C139  C155  A    
C89   O1    A    
C17   C18   A    
C36   H84   S    
C5    C166  A    
C142  C154  A    
C91   O3    A    
C174  H42   S    
C4    C73   S    
Cr12  O20   S    
C51   H11   S    
C42   C50   A    
C113  C117  A    
C107  C163  S    
C23   H72   S    
C166  C170  A    
C115  C119  A    
C105  C161  S    
Cr9   O17   S    
Cr10  O14   S    
C93   C97   A    
C112  C116  A    
Cr11  O19   S    
C58   C74   A    
Cr4   O44   S    
C105  C109  A    
C40   C72   S    
C1    C76   S    
Cr7   O31   S    
C148  C152  A    
C117  C149  S    
C102  H21   S    
C26   C30   A    
C147  H51   S    
C171  C176  A    
C13   C17   A    
C166  H1    S    
C14   C22   A    
Cr3   O47   S    
C141  C153  A    
C63   C75   A    
C64   H8    S    
C143  H55   S    
C37   C41   A    
C56   H80   S    
C145  C149  A    
C131  C139  A    
C40   C44   A    
C131  H35   S    
C138  C154  A    
C81   C85   A    
C83   C87   A    
C88   C96   A    
Cr1   O17   S    
C6    C45   S    
C61   H5    S    
C78   C102  A    
C133  C156  S    
Cr3   O19   S    
Cr7   O19   S    
C80   C84   A    
C115  H47   S    
C113  H45   S    
C135  C154  S    
C80   C104  A    
C1    O21   A    
C79   C159  S    
C80   C160  S    
C94   C98   A    
C135  O47   A    
C139  H39   S    
C4    O28   A    
C118  C150  S    
C90   O38   A    
Cr1   O21   S    
Cr12  O12   S    
C159  O7    A    
Cr11  O39   S    
C46   O30   A    
C124  C128  A    
C121  H57   S    
C12   H67   S    
Cr4   O20   S    
C165  C169  A    
C107  C111  A    
Cr6   O18   S    
C100  H19   S    
C162  O42   A    
C83   H15   S    
C53   C57   A    
C81   H13   S    
C61   C73   A    
C82   C86   A    
C41   F1    S    
C141  H53   S    
C56   C60   A    
Cr12  O36   S    
C35   C39   A    
C8    C167  A    
Cr4   O48   S    
C130  H34   S    
C116  H48   S    
Cr9   O33   S    
C128  H64   S    
Cr11  O35   S    
C63   H7    S    
C136  O52   A    
Cr1   O41   S    
C32   C36   A    
Cr3   O43   S    
C133  O45   A    
C44   F4    S    
C132  H36   S    
Cr8   O8    S    
C162  O14   A    
C157  O9    A    
C132  C140  A    
C106  C126  A    
C25   C89   S    
C99   H20   S    
C126  H62   S    
C45   O33   A    
Cr12  O40   S    
C55   H79   S    
C79   C83   A    
C43   C51   A    
C65   C69   A    
C77   C101  A    
C67   C71   A    
C106  C162  S    
C67   H87   S    
Cr10  O18   S    
C25   C49   A    
Cr11  O15   S    
C108  C112  A    
C168  C172  A    
C90   O2    A    
Cr7   O7    S    
C134  O50   A    
C87   H27   S    
C62   C74   A    
Cr8   O52   S    
C163  O15   A    
C170  C173  A    
C93   C94   S    
Cr2   O46   S    
C14   C18   A    
C9    H66   S    
C144  C148  A    
Cr8   O20   S    
C173  C174  A    
C143  C147  A    
C167  H4    S    
C24   H71   S    
C54   H78   S    
C168  H3    S    
C161  O41   A    
C19   C171  A    
C38   C42   A    
C118  C122  A    
C17   C169  A    
C21   H70   S    
C96   C100  A    
Cr9   O9    S    
C60   F8    S    
C117  C121  A    
C86   C94   A    
Cr11  O11   S    
C175  C176  A    
C145  H49   S    
Cr2   O18   S    
C29   H73   S    
C98   H17   S    
C77   C81   A    
C16   C20   A    
Cr5   O49   S    
C15   C23   A    
Cr3   O3    S    
C16   C24   A    
C43   F3    S    
C1    O25   A    
Cr1   O45   S    
C2    O22   A    
C110  H30   S    
C3    O27   A    
C11   H68   S    
C119  C151  S    
C63   C67   A    
C120  C152  S    
C175  H43   S    
C13   C21   A    
C48   O32   A    
C109  H29   S    
C129  H33   S    
C91   O39   A    
C39   C43   A    
C159  O11   A    
Cr5   O29   S    
C160  O12   A    
C122  C126  A    
Cr5   O5    S    
C85   H25   S    
C85   C93   A    
C68   H88   S    
Cr4   O24   S    
C138  H38   S    
C64   C76   A    
Cr5   O25   S    
C28   C92   S    
C109  C113  A    
Cr7   O27   S    
C114  C118  A    
C173  H41   S    
C140  C156  A    
C59   C75   A    
C33   C37   A    
C54   C58   A    
C158  O10   A    
C88   H28   S    
C33   H81   S    
C34   C38   A    
C35   H83   S    
C103  H24   S    
C47   O35   A    
Cr1   O1    S    
C101  H22   S    
Cr9   O37   S    
Cr6   O50   S    
Cr10  O34   S    
C5    C10   A    
C123  H59   S    
C28   C52   A    
C8    C11   A    
C136  O48   A    
C127  H63   S    
Cr2   O42   S    
C42   F2    S    
C66   H86   S    
C106  C110  A    
C59   F7    S    
C95   C96   S    
C111  C115  A    
C104  H23   S    
C97   C101  A    
C120  C124  A    
C77   C157  S    
