data_mof_unit_13704.cif
_audit_creation_date              2012-12-10T17:56:43-0500
_audit_creation_method            fapswitch 2.2
_symmetry_space_group_name_H-M    P1
_symmetry_Int_Tables_number       1
_space_group_crystal_system       triclinic
_cell_length_a                    10.830834
_cell_length_b                    9.504633
_cell_length_c                    10.908329
_cell_angle_alpha                 89.999804
_cell_angle_beta                  90.079167
_cell_angle_gamma                 89.999393
_cell_volume                      1122.93615566

loop_
_atom_site_label
_atom_site_type_symbol
_atom_type_description
_atom_site_fract_x
_atom_site_fract_y
_atom_site_fract_z
_atom_type_partial_charge
C1    C     C_R   0.262027 0.499968 0.499872 0.808319
C2    C     C_R   0.737973 0.499968 0.500127 0.808334
C3    C     C_R   0.936138 0.627896 0.500040 -0.139406
C4    C     C_R   0.063859 0.627896 0.499975 -0.139402
C5    C     C_R   0.421531 0.074425 0.425559 0.002583
C6    C     C_R   0.578466 0.074420 0.574442 0.002575
C7    C     C_R   0.421750 0.925509 0.425317 0.025654
C8    C     C_R   0.578249 0.925504 0.574683 0.025651
C9    C     C_R   0.505908 0.499947 0.262067 0.855863
C10   C     C_R   0.494082 0.499945 0.737933 0.855891
C11   C     C_R   0.573932 0.753385 0.105297 0.316879
C12   C     C_R   0.426017 0.753384 0.894704 0.316880
C13   C     C_R   0.540639 0.880094 0.049582 -0.241793
C14   C     C_R   0.459276 0.880090 0.950436 -0.241780
C15   C     C_R   0.475693 0.625479 0.940192 -0.045323
C16   C     C_R   0.524274 0.625479 0.059806 -0.045318
C17   C     C_R   0.513164 0.498631 0.127688 -0.140787
C18   C     C_R   0.486805 0.498628 0.872313 -0.140762
C19   C     C_R   0.491904 0.371233 0.063454 0.129652
C20   C     C_R   0.508027 0.371226 0.936555 0.129629
C21   C     C_R   0.063856 0.372155 0.499926 -0.175392
C22   C     C_R   0.936147 0.372154 0.500053 -0.175387
C23   C     C_R   0.871793 0.500015 0.500081 -0.019585
C24   C     C_R   0.128207 0.500016 0.499917 -0.019582
Cu1   Cu    Cu3+1 0.500000 0.640660 0.500000 1.001596
Cu2   Cu    Cu3+1 0.500000 0.359340 0.500000 0.975236
H1    H     H_    0.576148 0.978375 0.084993 0.187381
H2    H     H_    0.423741 0.978366 0.915042 0.187365
H3    H     H_    0.111900 0.272189 0.499843 0.157056
H4    H     H_    0.888105 0.272188 0.500120 0.157060
H5    H     H_    0.888077 0.727853 0.500047 0.167722
H6    H     H_    0.111918 0.727854 0.499983 0.167734
H7    H     H_    0.358401 0.130558 0.366290 0.118825
H8    H     H_    0.641589 0.130549 0.633719 0.118830
H9    H     H_    0.359163 0.869267 0.365476 0.118585
H10   H     H_    0.640839 0.869258 0.634516 0.118591
N1    N     N_R   0.500000 0.852070 0.500000 -0.146255
N2    N     N_R   0.500000 0.147940 0.500000 -0.162156
O1    O     O_R   0.319640 0.618740 0.499990 -0.569910
O2    O     O_R   0.680360 0.618740 0.500010 -0.569913
O3    O     O_R   0.319620 0.381170 0.499990 -0.598722
O4    O     O_R   0.680380 0.381170 0.500010 -0.598712
O5    O     O_R   0.500000 0.618810 0.319650 -0.564871
O6    O     O_R   0.500000 0.618810 0.680350 -0.564877
O7    O     O_R   0.499970 0.381240 0.319640 -0.564134
O8    O     O_R   0.500030 0.381240 0.680360 -0.564116
N3    N     N_3   0.448566 0.246145 0.124819 -0.563289
H11   H     H_    0.421934 0.169521 0.061692 0.212326
H12   H     H_    0.364819 0.272332 0.166639 0.213019
N4    N     N_3   0.551322 0.246114 0.875193 -0.563296
H13   H     H_    0.577832 0.169445 0.938314 0.212348
H14   H     H_    0.635109 0.272231 0.833458 0.213040
Br1   Br    Br    0.711278 0.759552 0.217367 -0.524918
Br2   Br    Br    0.288692 0.759541 0.782614 -0.524942

loop_
_geom_bond_atom_site_label_1
_geom_bond_atom_site_label_2
_ccdc_geom_bond_type
C10   O8    A    
C15   C18   A    
N4    H14   S    
C6    N2    A    
C9    O7    A    
C13   C14   A    
C11   C16   A    
C3    C23   A    
C19   C20   A    
C11   Br1   S    
C12   C15   A    
Cu1   N1    S    
Cu1   O5    S    
N4    H13   S    
C7    N1    A    
N3    H12   S    
C12   Br2   S    
C21   C22   A    
Cu1   O1    S    
C3    H5    S    
C11   C13   A    
C4    H6    S    
C21   H3    S    
C2    O4    A    
C6    C8    A    
Cu1   O6    S    
C1    O3    A    
C17   C19   A    
C10   C18   S    
C18   C20   A    
Cu1   O2    S    
C4    C24   A    
C19   N3    S    
C9    O5    A    
C8    N1    A    
Cu2   O8    S    
C10   O6    A    
C15   C16   A    
N3    H11   S    
C2    O2    A    
Cu2   O4    S    
C1    C24   S    
C8    H10   S    
C21   C24   A    
C9    C17   S    
C2    C23   S    
C5    C7    A    
C1    O1    A    
C22   C23   A    
C13   H1    S    
C20   N4    S    
C22   H4    S    
Cu2   O7    S    
C14   H2    S    
Cu1   Cu2   S    
C5    N2    A    
C7    H9    S    
Cu2   N2    S    
C3    C4    A    
C6    H8    S    
Cu2   O3    S    
C12   C14   A    
C16   C17   A    
C5    H7    S    
