data_mof_unit_39617.cif
_audit_creation_date              2012-10-26T20:32:25-0400
_audit_creation_method            fapswitch 2.2
_symmetry_space_group_name_H-M    P1
_symmetry_Int_Tables_number       1
_space_group_crystal_system       triclinic
_cell_length_a                    19.349672
_cell_length_b                    10.896609
_cell_length_c                    9.548003
_cell_angle_alpha                 89.746463
_cell_angle_beta                  90.129763
_cell_angle_gamma                 91.048979
_cell_volume                      2012.79453589

loop_
_atom_site_label
_atom_site_type_symbol
_atom_type_description
_atom_site_fract_x
_atom_site_fract_y
_atom_site_fract_z
_atom_type_partial_charge
C1    C     C_R   0.501019 0.262571 0.499982 0.558526
C2    C     C_R   0.853232 0.474257 0.506470 0.046110
C3    C     C_R   0.498821 0.062379 0.622407 -0.035130
C4    C     C_R   0.367461 0.499461 0.500067 0.540249
C5    C     C_R   0.506854 0.129956 0.498925 0.001063
C6    C     C_R   0.522833 0.066511 0.374355 0.234108
C7    C     C_R   0.518766 0.937657 0.371998 0.075240
C8    C     C_R   0.504879 0.871137 0.497229 0.018466
C9    C     C_R   0.498947 0.936319 0.622100 0.014034
C10   C     C_3   0.448779 0.926995 0.741739 0.022373
C11   C     C_3   0.448143 0.067934 0.740802 0.004426
C12   C     C_R   0.291479 0.496627 0.501635 -0.012848
C13   C     C_R   0.531488 0.593361 0.072650 0.152903
C14   C     C_R   0.461207 0.416583 0.074348 0.189980
C15   C     C_R   0.462315 0.415750 0.925167 -0.033268
C16   C     C_R   0.500339 0.737676 0.499318 0.574377
C17   C     C_R   0.529132 0.595983 0.925665 0.176003
C18   C     C_3   0.601220 0.644139 0.913107 0.128794
C19   C     C_3   0.606035 0.634391 0.072209 -0.022427
C20   C     C_R   0.632505 0.497255 0.500113 0.532255
C21   C     C_R   0.256298 0.516977 0.627274 -0.077965
C22   C     C_R   0.184323 0.511041 0.633002 0.098400
C23   C     C_R   0.929126 0.469739 0.505461 0.371186
C24   C     C_R   0.145833 0.483230 0.509777 0.042441
C25   C     C_R   0.181688 0.464743 0.383744 -0.135054
C26   C     C_R   0.253645 0.471482 0.379621 -0.134111
C27   C     C_3   0.666047 0.798750 0.807094 -0.011503
C28   C     C_3   0.676169 0.937376 0.807724 -0.379072
C29   C     C_3   0.839333 0.500623 0.858507 -0.011826
C30   C     C_3   0.889354 0.539465 0.973839 -0.338208
C31   C     C_3   0.604578 0.156141 0.234158 -0.000083
C32   C     C_3   0.617880 0.194454 0.083243 -0.373422
C33   C     C_R   0.069338 0.475626 0.507973 0.340016
C34   C     C_R   0.817922 0.520090 0.623668 0.266529
C35   C     C_R   0.745907 0.529308 0.618245 -0.128980
C36   C     C_R   0.708322 0.489074 0.501276 -0.023420
C37   C     C_R   0.743630 0.438893 0.387697 -0.156345
C38   C     C_R   0.815550 0.433073 0.389472 -0.180999
Cu1   Cu    Cu3+1 0.500000 0.499980 0.640670 0.923120
Cu2   Cu    Cu3+1 0.500000 0.500020 0.359330 1.024331
H1    H     H_    0.284753 0.538228 0.722302 0.148104
H2    H     H_    0.715742 0.402409 0.298481 0.147533
H3    H     H_    0.841745 0.394530 0.300226 0.125267
H4    H     H_    0.485451 0.905766 0.174142 0.254071
H5    H     H_    0.572072 0.902416 0.194921 0.229285
H6    H     H_    0.348031 0.883036 0.783539 0.229645
H7    H     H_    0.389158 0.775097 0.696412 0.244216
H8    H     H_    0.347764 0.107862 0.782299 0.222686
H9    H     H_    0.387760 0.212495 0.682756 0.238671
H10   H     H_    0.367758 0.341735 0.116959 0.189390
H11   H     H_    0.432843 0.241170 0.114289 0.240941
H12   H     H_    0.471625 0.886778 0.838304 0.144058
H13   H     H_    0.666713 0.766739 0.696708 0.149827
H14   H     H_    0.710190 0.758403 0.865817 0.124485
H15   H     H_    0.679998 0.970280 0.917327 0.141928
H16   H     H_    0.724681 0.962883 0.751997 0.108235
H17   H     H_    0.632188 0.982268 0.754662 0.152903
H18   H     H_    0.703697 0.571740 0.100845 0.209980
H19   H     H_    0.646781 0.460461 0.055939 0.203142
H20   H     H_    0.116939 0.607128 0.750878 0.259744
H21   H     H_    0.127765 0.457733 0.802328 0.257799
H22   H     H_    0.845168 0.400216 0.840863 0.135663
H23   H     H_    0.470136 0.110892 0.837044 0.099598
H24   H     H_    0.786004 0.518551 0.895381 0.100882
H25   H     H_    0.883876 0.638745 0.996235 0.162853
H26   H     H_    0.878062 0.486244 0.070739 0.101123
H27   H     H_    0.943337 0.522083 0.941110 0.188776
H28   H     H_    0.637669 0.076011 0.258273 0.102282
H29   H     H_    0.619972 0.233292 0.304117 0.148978
H30   H     H_    0.585851 0.274412 0.055869 0.166013
H31   H     H_    0.673342 0.219185 0.068815 0.082326
H32   H     H_    0.603571 0.117933 0.011942 0.145860
H33   H     H_    0.432961 0.346476 0.868879 0.111997
H34   H     H_    0.634358 0.580406 0.854309 0.110018
H35   H     H_    0.615962 0.722648 0.126235 0.171059
H36   H     H_    0.154066 0.443651 0.287786 0.141440
H37   H     H_    0.279616 0.455408 0.281225 0.138772
H38   H     H_    0.719738 0.570671 0.704591 0.093314
N1    N     N_R   0.033838 0.491587 0.386446 -0.232959
N2    N     N_3   0.419023 0.328632 0.147458 -0.534617
N3    N     N_3   0.653277 0.538843 0.117573 -0.631411
N4    N     N_3   0.152592 0.537147 0.764737 -0.634743
N5    N     N_R   0.965020 0.488641 0.385127 -0.243662
N6    N     N_R   0.964498 0.450643 0.625983 -0.184575
N7    N     N_R   0.033143 0.453118 0.626975 -0.247494
N8    N     N_R   0.500440 0.500930 0.147930 -0.199205
N9    N     N_R   0.500440 0.500890 0.852020 -0.275909
N10   N     N_3   0.525020 0.876181 0.240244 -0.595692
N11   N     N_3   0.382638 0.869869 0.701275 -0.575100
N12   N     N_3   0.381614 0.118021 0.697686 -0.572607
O1    O     O_R   0.500000 0.319640 0.618810 -0.530774
O2    O     O_3   0.854586 0.568905 0.735849 -0.542513
O3    O     O_3   0.533434 0.128179 0.249178 -0.551011
O4    O     O_R   0.500010 0.319680 0.381230 -0.425185
O5    O     O_R   0.400140 0.499970 0.618830 -0.525621
O6    O     O_R   0.400150 0.500010 0.381250 -0.475846
O7    O     O_R   0.499990 0.680320 0.618770 -0.491934
O8    O     O_R   0.500000 0.680360 0.381190 -0.466400
O9    O     O_R   0.599850 0.499990 0.618750 -0.522095
O10   O     O_R   0.599860 0.500030 0.381170 -0.466256
O11   O     O_3   0.601544 0.767773 0.867600 -0.577525

loop_
_geom_bond_atom_site_label_1
_geom_bond_atom_site_label_2
_ccdc_geom_bond_type
C8    C9    A    
C35   C36   A    
Cu1   N9    S    
H9    N12   S    
C10   H12   S    
C28   H16   S    
C27   H14   S    
C7    C8    A    
C32   H32   S    
H6    N11   S    
C28   H17   S    
C29   C30   S    
C23   N5    A    
C1    C5    S    
C22   N4    S    
C36   C37   A    
C18   C19   S    
C11   H23   S    
H21   N4    S    
Cu2   O8    S    
C5    C6    A    
C16   O7    A    
Cu1   O7    S    
C34   C35   A    
Cu2   N8    S    
C37   H2    S    
C33   N7    A    
H11   N2    S    
C4    O6    A    
H20   N4    S    
C31   C32   S    
C10   N11   S    
C1    O4    A    
C13   N8    A    
C14   N2    S    
C4    C12   S    
C9    C10   S    
C30   H27   S    
C2    C34   A    
C29   H24   S    
C18   H34   S    
H8    N12   S    
C21   C22   A    
H7    N11   S    
Cu2   O6    S    
Cu1   O1    S    
C28   H15   S    
C32   H31   S    
C31   H28   S    
C26   H37   S    
C23   N6    A    
C13   C19   S    
H5    N10   S    
N6    N7    A    
C14   N8    A    
H18   N3    S    
Cu1   Cu2   S    
C33   N1    A    
C32   H30   S    
C25   C26   A    
C31   O3    S    
C12   C21   A    
C27   O11   S    
C12   C26   A    
C18   O11   S    
C37   C38   A    
C3    C9    A    
C4    O5    A    
C2    C38   A    
Cu1   O9    S    
C7    N10   S    
C20   O10   A    
C6    O3    S    
C17   C18   S    
C24   C25   A    
Cu1   O5    S    
C30   H26   S    
C21   H1    S    
C15   H33   S    
C22   C24   A    
C2    C23   S    
C15   N9    A    
C29   H22   S    
C17   N9    A    
H19   N3    S    
Cu2   O4    S    
C3    C5    A    
H10   N2    S    
Cu2   O10   S    
C27   H13   S    
C6    C7    A    
C35   H38   S    
C24   C33   S    
C13   C17   A    
C25   H36   S    
C19   H35   S    
C38   H3    S    
C19   N3    S    
N1    N5    A    
C11   N12   S    
C16   O8    A    
C20   O9    A    
C34   O2    S    
C30   H25   S    
C3    C11   S    
C10   C11   S    
C20   C36   S    
C31   H29   S    
C8    C16   S    
C1    O1    A    
C27   C28   S    
C14   C15   A    
H4    N10   S    
C29   O2    S    
