data_mof_unit_32206.cif
_audit_creation_date              2013-03-05T16:20:47-0500
_audit_creation_method            fapswitch 2.2
_symmetry_space_group_name_H-M    P1
_symmetry_Int_Tables_number       1
_space_group_crystal_system       triclinic
_cell_length_a                    8.234361
_cell_length_b                    18.713264
_cell_length_c                    19.214741
_cell_angle_alpha                 104.237713
_cell_angle_beta                  92.914511
_cell_angle_gamma                 91.279649
_cell_volume                      2864.31873106

loop_
_atom_site_label
_atom_site_type_symbol
_atom_site_description
_atom_site_fract_x
_atom_site_fract_y
_atom_site_fract_z
_atom_type_partial_charge
P1    P     P_3+3 0.941030 0.670050 0.569830 0.460496
O1    O     O_2   0.114280 0.679350 0.549180 -0.375988
O2    O     O_3   0.866400 0.589600 0.543550 -0.358050
O3    O     O_3   0.362150 0.623490 0.415650 -0.393447
O4    O     O_2   0.229956 0.752001 0.471017 -0.390374
O5    O     O_3   0.982762 0.681111 0.662486 -0.600448
O6    O     O_3   0.330315 0.739557 0.343614 -0.534084
H1    H     H_    0.299496 0.630493 0.285821 0.153995
C1    C     C_3   0.354524 0.701426 0.216997 -0.929626
H2    H     H_    0.226572 0.716034 0.207932 0.290199
H3    H     H_    0.436449 0.749369 0.216935 0.261590
P2    P     P_3+3 0.370400 0.428500 0.331430 0.496173
P3    P     P_3+3 0.913015 0.585978 0.287496 0.416925
O7    O     O_2   0.197490 0.449210 0.322030 -0.368234
O8    O     O_3   0.950520 0.583920 0.376610 -0.379073
O9    O     O_2   0.035544 0.532940 0.245551 -0.433305
O10   O     O_3   0.320479 0.333740 0.299933 -0.597419
O11   O     O_3   0.970133 0.673293 0.277574 -0.511677
C2    C     C_3   0.898194 0.726514 0.330784 0.430771
H4    H     H_    0.952581 0.726720 0.384961 0.138029
H5    H     H_    0.764615 0.716303 0.329422 0.012123
C3    C     C_3   0.928454 0.802301 0.317279 -0.868700
H6    H     H_    0.060922 0.816310 0.321975 0.278348
H7    H     H_    0.879041 0.802949 0.262581 0.264660
C4    C     C_3   0.848056 0.369063 0.308141 0.312142
H8    H     H_    0.726435 0.392077 0.312527 -0.029731
H9    H     H_    0.933495 0.413545 0.337282 0.141550
C5    C     C_3   0.890217 0.350494 0.229387 -0.121405
H10   H     H_    0.881866 0.401432 0.209711 0.085787
H11   H     H_    0.017250 0.331897 0.224393 0.162438
Ba1   Ba    Ba6+2 0.155460 0.532000 0.467920 1.603775
C6    C     C_3   0.849457 0.707255 0.702985 0.853373
H12   H     H_    0.733549 0.693810 0.670166 0.007356
C7    C     C_3   0.871246 0.790766 0.733001 -1.064027
H13   H     H_    0.990973 0.804603 0.763314 0.275864
H14   H     H_    0.773386 0.811799 0.769543 0.280498
H15   H     H_    0.864661 0.819250 0.688982 0.219175
C8    C     C_3   0.435206 0.288474 0.320771 0.774975
H16   H     H_    0.555772 0.315302 0.331859 0.018366
C9    C     C_3   0.447209 0.219814 0.259030 -0.830194
H17   H     H_    0.332274 0.185749 0.250031 0.265276
H18   H     H_    0.550318 0.186678 0.270750 0.258242
H19   H     H_    0.469350 0.236516 0.208689 0.265314
P4    P     P_3+3 0.869270 0.329940 0.430110 0.505735
O12   O     O_2   0.696020 0.320600 0.450800 -0.358692
O13   O     O_3   0.943900 0.410390 0.456390 -0.396380
O14   O     O_3   0.448150 0.376500 0.584290 -0.322579
O15   O     O_3   0.853865 0.305612 0.335378 -0.557032
P5    P     P_3+3 0.882854 0.420717 0.714172 0.472547
O16   O     O_3   0.365880 0.544470 0.588730 -0.393752
O17   O     O_3   0.859790 0.416060 0.623340 -0.382852
O18   O     O_2   0.747989 0.470981 0.747381 -0.375860
O19   O     O_3   0.832269 0.334068 0.727926 -0.520705
Ba2   Ba    Ba6+2 0.654730 0.467990 0.532020 1.643940
P6    P     P_3+3 0.373303 0.719125 0.426663 0.431612
C10   C     C_3   0.376650 0.680702 0.288539 0.493688
H20   H     H_    0.506261 0.669033 0.297166 0.010509
H21   H     H_    0.383963 0.654253 0.172392 0.218194
O20   O     O_3   0.444420 0.455520 0.411210 -0.351165
C11   C     C_3   0.391599 0.706751 0.656218 0.398400
H22   H     H_    0.421624 0.678679 0.600563 0.111761
H23   H     H_    0.260446 0.706135 0.662658 0.165998
C12   C     C_3   0.448234 0.787325 0.670545 -1.032125
H24   H     H_    0.576337 0.791747 0.657011 0.243648
H25   H     H_    0.374535 0.815228 0.635868 0.232063
H26   H     H_    0.435144 0.816012 0.727774 0.291837
P7    P     P_3+3 0.433465 0.577926 0.680311 0.495198
O21   O     O_2   0.612810 0.550740 0.677950 -0.310300
O22   O     O_3   0.463936 0.674157 0.707653 -0.542416
H27   H     H_    0.867095 0.844571 0.357227 0.227701
C13   C     C_3   0.897309 0.279623 0.673446 0.457227
H28   H     H_    0.839428 0.279630 0.619919 0.118173
H29   H     H_    0.030539 0.288844 0.672886 0.005394
C14   C     C_3   0.865295 0.203789 0.687023 -0.797688
H30   H     H_    0.942572 0.162774 0.653362 0.207666
H31   H     H_    0.893169 0.205250 0.744486 0.288792
H32   H     H_    0.736268 0.185511 0.673050 0.271245
P8    P     P_3+3 0.430482 0.282661 0.580143 0.508596
C15   C     C_3   0.395257 0.287867 0.716026 0.864019
O23   O     O_2   0.555793 0.245826 0.526547 -0.343419
O24   O     O_3   0.507446 0.268416 0.662102 -0.572950
H33   H     H_    0.295420 0.321792 0.701890 -0.144142
H34   H     H_    0.405647 0.345099 0.829024 0.198357
C16   C     C_3   0.486283 0.333825 0.783694 -0.819542
H35   H     H_    0.528379 0.386904 0.774136 0.240511
H36   H     H_    0.592046 0.303979 0.798965 0.272956
C17   C     C_R   0.000278 0.954360 0.535966 0.053464
C18   C     C_R   0.085128 0.909518 0.573843 -0.172257
C19   C     C_R   0.221164 0.051112 0.560064 -0.164001
C20   C     C_R   0.062947 0.024918 0.532449 0.036252
C21   C     C_R   0.276069 0.122018 0.561346 -0.090202
C22   C     C_R   0.175531 0.170489 0.536013 -0.025204
C23   C     C_R   0.023675 0.143417 0.500241 0.020610
C24   C     C_R   0.967388 0.070157 0.498086 0.047829
C25   C     C_R   0.223235 0.245052 0.544844 0.167471
C26   C     C_R   0.117043 0.292100 0.519841 -0.372720
C27   C     C_R   0.979529 0.264503 0.474612 0.254930
C28   C     C_R   0.930626 0.188862 0.465143 -0.056320
C29   C     C_R   0.843715 0.929162 0.504089 0.036640
C30   C     C_R   0.780837 0.858066 0.506623 0.004755
C31   C     C_R   0.876112 0.811672 0.539385 -0.024634
C32   C     C_R   0.023858 0.840300 0.575676 -0.086529
H37   H     H_    0.150016 0.350186 0.530157 0.185574
H38   H     H_    0.398177 0.138389 0.583527 0.177480
H39   H     H_    0.093718 0.809886 0.606862 0.150481
C33   C     C_R   0.796769 0.156024 0.419374 -0.087441
C34   C     C_R   0.746352 0.082405 0.413417 -0.114534
C35   C     C_R   0.817666 0.042267 0.460660 -0.030787
C36   C     C_R   0.749144 0.974410 0.469674 0.056343
C37   C     C_R   0.584604 0.952560 0.449935 -0.153932
C38   C     C_R   0.622914 0.833376 0.476150 -0.030134
C39   C     C_R   0.524050 0.882903 0.451280 -0.138235
C40   C     C_R   0.568382 0.760293 0.472528 0.185786
C41   C     C_R   0.668588 0.713839 0.500790 -0.486479
C42   C     C_R   0.819970 0.738375 0.535225 0.141394
H40   H     H_    0.736169 0.185858 0.384612 0.170470
H41   H     H_    0.398186 0.868912 0.433372 0.180614
H42   H     H_    0.627095 0.657596 0.496666 0.181391
H43   H     H_    0.307396 0.017883 0.580652 0.141519
H44   H     H_    0.198815 0.926734 0.604198 0.129997
H45   H     H_    0.499016 0.989536 0.434433 0.138302
C43   C     C_R   0.367231 0.538925 0.812796 -0.245520
H46   H     H_    0.462028 0.579414 0.837082 0.171129
C44   C     C_R   0.319724 0.533249 0.739894 0.275106
C45   C     C_R   0.134392 0.463863 0.823115 -0.295924
H47   H     H_    0.046368 0.444382 0.853832 0.141845
C46   C     C_R   0.082253 0.461544 0.752283 0.275359
C47   C     C_R   0.635542 0.553902 0.189051 -0.342494
H48   H     H_    0.689681 0.591571 0.161548 0.163353
C48   C     C_R   0.702268 0.553559 0.257343 0.232083
C49   C     C_R   0.444320 0.456893 0.197360 -0.220425
H49   H     H_    0.364975 0.409412 0.174257 0.154446
C50   C     C_R   0.480744 0.473415 0.271805 0.244026
C51   C     C_R   0.290745 0.493342 0.852639 0.074747
C52   C     C_R   0.180006 0.492120 0.709771 -0.343168
H50   H     H_    0.141048 0.488392 0.654295 0.153868
C53   C     C_R   0.511610 0.501069 0.154625 0.098595
C54   C     C_R   0.614076 0.520040 0.301008 -0.450455
H51   H     H_    0.656392 0.525770 0.356421 0.161864
C55   C     C_R   0.163604 0.383361 0.938769 -0.179233
C56   C     C_R   0.054294 0.359472 0.981987 -0.024166
C57   C     C_R   0.055360 0.394775 0.054595 -0.112472
C58   C     C_R   0.177602 0.447633 0.085057 -0.233711
C59   C     C_R   0.305048 0.462411 0.043808 0.105558
C60   C     C_R   0.274371 0.443358 0.967880 0.076270
C61   C     C_R   0.463046 0.489767 0.074370 -0.050941
C62   C     C_R   0.580128 0.499680 0.024663 0.103292
C63   C     C_R   0.529225 0.500289 0.952217 0.064991
C64   C     C_R   0.365102 0.479845 0.924565 -0.074042
C65   C     C_R   0.749526 0.505619 0.043855 -0.155026
C66   C     C_R   0.860449 0.527965 0.000692 -0.130437
C67   C     C_R   0.809800 0.532934 0.932633 -0.052864
C68   C     C_R   0.650569 0.512728 0.907352 -0.138689
H52   H     H_    0.161666 0.353831 0.882836 0.163093
H53   H     H_    0.965587 0.315430 0.958691 0.149628
H54   H     H_    0.963903 0.380019 0.087473 0.153043
H55   H     H_    0.173706 0.475001 0.140890 0.182704
H56   H     H_    0.799679 0.492235 0.091767 0.148411
H57   H     H_    0.987298 0.538079 0.018685 0.146514
H58   H     H_    0.896236 0.547456 0.897480 0.165408
H59   H     H_    0.627481 0.501532 0.851365 0.174869
N1    N     N_R   0.779326 0.293370 0.185420 0.254954
O25   O     O_R   0.677422 0.309325 0.137949 -0.419775
O26   O     O_R   0.796466 0.224782 0.186790 -0.345746
N2    N     N_R   0.843725 0.672263 0.763236 0.252801
O27   O     O_R   0.729299 0.687534 0.808317 -0.381785
O28   O     O_R   0.955315 0.627289 0.773759 -0.403585
N3    N     N_R   0.383245 0.270608 0.385677 0.234176
O29   O     O_R   0.333169 0.204466 0.386756 -0.395826
O30   O     O_R   0.363146 0.325186 0.440474 -0.363820
N4    N     N_R   0.326818 0.221278 0.731911 0.207644
O31   O     O_R   0.201826 0.226472 0.771320 -0.450426
O32   O     O_R   0.412708 0.162531 0.723580 -0.396812
C69   C     C_2   0.641283 0.045644 0.349050 1.005497
O33   O     O_2   0.674545 0.984667 0.313278 -0.622517
O34   O     O_R   0.505110 0.080555 0.329046 -0.769365
H60   H     H_    0.443140 0.049775 0.284383 0.340232

loop_
_geom_bond_atom_site_label_1
_geom_bond_atom_site_label_2
_geom_bond_distance
_ccdc_geom_bond_type
C45   C51   1.422596 A    
O5    C6    1.404768 S    
N4    O31   1.299875 A    
C12   H25   1.108619 S    
N2    O27   1.301183 A    
C7    H15   1.104932 S    
C62   C63   1.436045 A    
O6    P6    1.751188 S    
C21   H38   1.079323 S    
C17   C18   1.413115 A    
C47   H48   1.080770 S    
H1    C10   1.111286 S    
C67   H58   1.080382 S    
C41   C42   1.394125 A    
C5    N1    1.457378 S    
C52   H50   1.082442 S    
C10   H20   1.106540 S    
C4    C5    1.526874 S    
C8    N3    1.450238 S    
N4    O32   1.301567 A    
C24   C35   1.416326 A    
O16   Ba2   2.922569 S    
C14   H31   1.109785 S    
P3    O11   1.747954 S    
C11   C12   1.522531 S    
C5    H10   1.110771 S    
C2    H5    1.110085 S    
C46   C52   1.385197 A    
O11   C2    1.405432 S    
C37   H45   1.079821 S    
C8    H16   1.089346 S    
C7    H13   1.110975 S    
O2    Ba2   2.793116 S    
P8    O23   1.546310 D    
Ba2   O21   2.892404 S    
C33   C34   1.405502 A    
Ba1   O20   2.923333 S    
C58   C59   1.409056 A    
C29   C36   1.418867 A    
C27   C28   1.428044 A    
P1    Ba1   3.419492 S    
C35   C36   1.430697 A    
C32   H39   1.077609 S    
C11   H23   1.093389 S    
P1    O1    1.517684 D    
C15   N4    1.461764 S    
C69   O33   1.223452 D    
C43   C51   1.434096 A    
C37   C39   1.391853 A    
C17   C20   1.425213 A    
P2    O20   1.577038 S    
C9    H19   1.109352 S    
C38   C39   1.400743 A    
P5    O17   1.726414 S    
Ba1   O13   2.792569 S    
P2    O10   1.758978 S    
P3    C48   1.842030 S    
C58   H55   1.071552 S    
C19   C21   1.386227 A    
C1    H2    1.110294 S    
O7    Ba1   2.892143 S    
N1    O26   1.300896 A    
O10   C8    1.390841 S    
N3    O30   1.294381 A    
C12   H26   1.110536 S    
C50   C54   1.391144 A    
N2    O28   1.301103 A    
C6    N2    1.465731 S    
P7    C44   1.852509 S    
O6    C10   1.401780 S    
P4    O13   1.565981 S    
C20   C24   1.422568 A    
C17   C29   1.417749 A    
Ba2   O20   2.783660 S    
P5    C46   1.833672 S    
C57   C58   1.394653 A    
C14   H30   1.109874 S    
C61   C62   1.431399 A    
P7    O21   1.571881 D    
C31   C32   1.397932 A    
C19   H43   1.076806 S    
C53   C61   1.534846 S    
C2    C3    1.520724 S    
C16   H35   1.105140 S    
C59   C61   1.429772 A    
C21   C22   1.398142 A    
C15   O24   1.409370 S    
C56   H53   1.082386 S    
P6    C40   1.848601 S    
C4    H8    1.097953 S    
C51   C64   1.562458 S    
C14   H32   1.107908 S    
C22   C25   1.407936 A    
P1    O5    1.756121 S    
C33   H40   1.081119 S    
C11   H22   1.112234 S    
P1    O2    1.565978 S    
C6    C7    1.529913 S    
C47   C53   1.421645 A    
C49   C53   1.422822 A    
C15   H33   1.112684 S    
P4    C27   1.881687 S    
C9    H18   1.108535 S    
H34   C16   1.103958 S    
P8    C25   1.860506 S    
C34   C35   1.426158 A    
P5    O18   1.532534 D    
C26   C27   1.399002 A    
O13   Ba2   2.939295 S    
C38   C40   1.414025 A    
C23   C24   1.427482 A    
C55   C56   1.392941 A    
O2    Ba1   2.938533 S    
C1    H3    1.110664 S    
C4    O15   1.411289 S    
C41   H42   1.082088 S    
O14   Ba2   2.779027 S    
C9    H17   1.110927 S    
P2    O7    1.497653 D    
O12   Ba2   2.852551 S    
P2    C50   1.841203 S    
P3    O8    1.734368 S    
P2    Ba1   3.447968 S    
C45   H47   1.069662 S    
C31   C42   1.419675 A    
C3    H7    1.110558 S    
C26   H37   1.081627 S    
C18   H44   1.076524 S    
C63   C68   1.404156 A    
Ba1   O16   2.784183 S    
C43   C44   1.412723 A    
C49   H49   1.078872 S    
O19   C13   1.406228 S    
C62   C65   1.419383 A    
P4    O12   1.518061 D    
C13   H29   1.107749 S    
C40   C41   1.396464 A    
O16   P7    1.772344 S    
N3    O29   1.301200 A    
C65   H56   1.077135 S    
C44   C52   1.387305 A    
C65   C66   1.388361 A    
O4    P6    1.541077 D    
C16   H36   1.110341 S    
C59   C60   1.421989 A    
C49   C50   1.402273 A    
C47   C48   1.398137 A    
C55   C60   1.413795 A    
C13   C14   1.524403 S    
C18   C32   1.388758 A    
O8    Ba1   2.735092 S    
C34   C69   1.482402 S    
N1    O25   1.300978 A    
C1    C10   1.520939 S    
C28   C33   1.404029 A    
C29   C30   1.429759 A    
C39   H41   1.080923 S    
O17   Ba2   2.735909 S    
C57   H54   1.080461 S    
C6    H12   1.105408 S    
C2    H4    1.111212 S    
O34   H60   1.013821 S    
C43   H46   1.078789 S    
C13   H28   1.111396 S    
O3    P6    1.749420 S    
C56   C57   1.388540 A    
C8    C9    1.528345 S    
P8    O24   1.750808 S    
C15   C16   1.521208 S    
C11   O22   1.398731 S    
P5    O19   1.750535 S    
C23   C28   1.422588 A    
C5    H11   1.111108 S    
C22   C23   1.416230 A    
C66   H57   1.081036 S    
C7    H14   1.110415 S    
C63   C64   1.434919 A    
Ba1   Ba2   4.503804 S    
C69   O34   1.394371 S    
O3    Ba1   2.779587 S    
C54   H51   1.082140 S    
C12   H24   1.105327 S    
P4    Ba2   3.420001 S    
C67   C68   1.385944 A    
C1    H21   1.109576 S    
C30   C38   1.417743 A    
P3    O9    1.544859 D    
C68   H59   1.050651 S    
C25   C26   1.403657 A    
C45   C46   1.396156 A    
C3    H6    1.110076 S    
O1    Ba1   2.852019 S    
C30   C31   1.419340 A    
P1    C42   1.865029 S    
O14   P8    1.740615 S    
P7    O22   1.755806 S    
C19   C20   1.411524 A    
C36   C37   1.411906 A    
C66   C67   1.377971 A    
C3    H27   1.108501 S    
C60   C64   1.427252 A    
P4    O15   1.761519 S    
C55   H52   1.080013 S    
C4    H9    1.098140 S    
C48   C54   1.387532 A    
