data_mof_unit_52883.cif
_audit_creation_date              2013-03-05T15:40:52-0500
_audit_creation_method            fapswitch 2.2
_symmetry_space_group_name_H-M    P1
_symmetry_Int_Tables_number       1
_space_group_crystal_system       triclinic
_cell_length_a                    16.823988
_cell_length_b                    16.650581
_cell_length_c                    16.946069
_cell_angle_alpha                 66.594331
_cell_angle_beta                  65.792022
_cell_angle_gamma                 66.023945
_cell_volume                      3801.57487355

loop_
_atom_site_label
_atom_site_type_symbol
_atom_site_description
_atom_site_fract_x
_atom_site_fract_y
_atom_site_fract_z
_atom_type_partial_charge
O1    O     O_R   0.982940 0.138950 0.510160 -0.643443
O2    O     O_R   0.017060 0.861050 0.489840 -0.631906
O3    O     O_R   0.138950 0.510160 0.982940 -0.659836
O4    O     O_R   0.861050 0.489840 0.017060 -0.657534
O5    O     O_R   0.510160 0.982940 0.138950 -0.640657
O6    O     O_R   0.489840 0.017060 0.861050 -0.662840
O7    O     O_R   0.489840 0.861050 0.017060 -0.646883
O8    O     O_R   0.510160 0.138950 0.982940 -0.635538
O9    O     O_R   0.017060 0.489840 0.861050 -0.645712
O10   O     O_R   0.982940 0.510160 0.138950 -0.681814
O11   O     O_R   0.861050 0.017060 0.489840 -0.646919
O12   O     O_R   0.138950 0.982940 0.510160 -0.665750
O13   O     O_R   0.867700 0.025880 0.612340 -0.623189
O14   O     O_R   0.132300 0.974120 0.387660 -0.655559
O15   O     O_R   0.025880 0.612340 0.867700 -0.567847
O16   O     O_R   0.974120 0.387660 0.132300 -0.608744
O17   O     O_R   0.612340 0.867700 0.025880 -0.598080
O18   O     O_R   0.387660 0.132300 0.974120 -0.572506
O19   O     O_R   0.387660 0.974120 0.132300 -0.621790
O20   O     O_R   0.612340 0.025880 0.867700 -0.661437
O21   O     O_R   0.132300 0.387660 0.974120 -0.564307
O22   O     O_R   0.867700 0.612340 0.025880 -0.575006
O23   O     O_R   0.974120 0.132300 0.387660 -0.612629
O24   O     O_R   0.025880 0.867700 0.612340 -0.575214
C1    C     C_R   0.426463 0.965142 0.691873 -0.326707
C2    C     C_R   0.587556 0.958596 0.340695 -0.308270
C3    C     C_R   0.082315 0.651875 0.395281 -0.198295
C4    C     C_R   0.932450 0.356324 0.589486 -0.303575
C5    C     C_R   0.669300 0.407815 0.027755 -0.193449
C6    C     C_R   0.332492 0.597949 0.958076 -0.336905
C7    C     C_R   0.307191 0.033261 0.573567 -0.326634
C8    C     C_R   0.657163 0.046555 0.414781 -0.305586
C9    C     C_R   0.601025 0.340798 0.939351 -0.197180
C10   C     C_R   0.401653 0.665779 0.045978 -0.305294
C11   C     C_R   0.081738 0.536158 0.302369 -0.302960
C12   C     C_R   0.019371 0.413506 0.669589 -0.314300
C13   C     C_R   0.963451 0.179296 0.437351 1.067012
C14   C     C_R   0.038283 0.820305 0.561787 0.939146
C15   C     C_R   0.180137 0.437762 0.960908 1.075528
C16   C     C_R   0.819864 0.563047 0.036389 0.926101
C17   C     C_R   0.433080 0.972416 0.178378 1.065913
C18   C     C_R   0.574573 0.998610 0.833611 0.937264
C19   C     C_R   0.560937 0.820378 0.040216 1.043650
C20   C     C_R   0.438449 0.179647 0.961294 0.956357
C21   C     C_R   0.036080 0.563367 0.819978 1.019288
C22   C     C_R   0.987414 0.428354 0.172986 0.984848
C23   C     C_R   0.821448 0.028236 0.566797 1.066455
C24   C     C_R   0.166039 0.001251 0.425934 0.936070
Zn1   Zn    Zn3+2 0.004880 0.004880 0.583590 0.943969
Zn2   Zn    Zn3+2 0.995120 0.995120 0.416410 0.963443
Zn3   Zn    Zn3+2 0.004880 0.583590 0.004880 0.978355
Zn4   Zn    Zn3+2 0.995120 0.416410 0.995120 1.003531
Zn5   Zn    Zn3+2 0.583590 0.004880 0.004880 0.988195
Zn6   Zn    Zn3+2 0.416410 0.995120 0.995120 0.947915
H1    H     H_    0.364359 0.944949 0.726555 0.134513
H2    H     H_    0.661292 0.940916 0.317473 0.140877
H3    H     H_    0.095769 0.679592 0.323336 0.175033
H4    H     H_    0.906187 0.340764 0.662173 0.142741
H5    H     H_    0.698321 0.335881 0.031351 0.186882
H6    H     H_    0.303153 0.670346 0.952614 0.130298
H7    H     H_    0.271709 0.052924 0.635805 0.135529
H8    H     H_    0.679209 0.066395 0.341790 0.153727
H9    H     H_    0.674053 0.315513 0.926790 0.177051
H10   H     H_    0.328930 0.692683 0.056170 0.125554
H11   H     H_    0.126751 0.578667 0.263105 0.130885
H12   H     H_    0.015388 0.343951 0.701003 0.133084
C25   C     C_R   0.484987 0.946822 0.740784 0.026668
C26   C     C_R   0.542145 0.933696 0.304177 0.025070
C27   C     C_R   0.098037 0.696035 0.440382 0.018007
C28   C     C_R   0.911033 0.315044 0.545830 0.022022
C29   C     C_R   0.704255 0.444915 0.063002 0.069719
C30   C     C_R   0.295468 0.557951 0.928053 0.010113
C31   C     C_R   0.258219 0.053144 0.514824 0.027048
C32   C     C_R   0.691708 0.072403 0.461146 0.039696
C33   C     C_R   0.560129 0.299932 0.914145 0.033024
C34   C     C_R   0.440974 0.702941 0.076847 0.022236
C35   C     C_R   0.075465 0.483910 0.259383 0.028574
C36   C     C_R   0.055056 0.447702 0.706702 0.026632
C37   C     C_R   0.543602 0.003628 0.553827 0.042946
C38   C     C_R   0.446978 0.996349 0.456243 0.043010
C39   C     C_R   0.036903 0.539486 0.535376 0.039385
C40   C     C_R   0.001772 0.451218 0.446290 0.050721
C41   C     C_R   0.541653 0.543944 0.019931 0.053230
C42   C     C_R   0.460765 0.462182 0.966346 0.049997
C43   C     C_R   0.582766 0.010875 0.461149 0.053553
C44   C     C_R   0.402579 0.005126 0.544561 0.060211
C45   C     C_R   0.007995 0.459803 0.583740 0.060422
C46   C     C_R   0.042840 0.523121 0.395899 0.056215
C47   C     C_R   0.452312 0.588453 0.013020 0.077956
C48   C     C_R   0.550557 0.418607 0.971661 0.009975
C49   C     C_R   0.539928 0.990939 0.417237 0.061634
C50   C     C_R   0.455549 0.993188 0.597505 0.061976
C51   C     C_R   0.413341 0.549229 0.982241 0.068570
C52   C     C_R   0.589390 0.457677 0.002499 -0.000086
C53   C     C_R   0.980625 0.422014 0.540783 0.068105
C54   C     C_R   0.051993 0.573211 0.441374 0.010486
C55   C     C_R   0.563408 0.979327 0.697577 0.011142
C56   C     C_R   0.445006 0.965682 0.326742 0.004154
C57   C     C_R   0.072781 0.668149 0.535944 -0.079378
C58   C     C_R   0.946598 0.332320 0.450667 0.022993
C59   C     C_R   0.671680 0.540037 0.054800 -0.093715
C60   C     C_R   0.329027 0.462201 0.937574 0.010008
C61   C     C_R   0.302355 0.021215 0.436171 0.011780
C62   C     C_R   0.671183 0.037343 0.556695 0.001160
C63   C     C_R   0.464041 0.330637 0.931475 -0.084206
C64   C     C_R   0.536887 0.671372 0.062487 0.027172
C65   C     C_R   0.016900 0.427271 0.306997 -0.005898
C66   C     C_R   0.054376 0.541164 0.671809 -0.012781
C67   C     C_R   0.614966 0.984222 0.744266 -0.144924
C68   C     C_R   0.392641 0.977173 0.271261 -0.196191
C69   C     C_R   0.069269 0.719377 0.588048 -0.309007
C70   C     C_R   0.950198 0.277165 0.401543 -0.163710
C71   C     C_R   0.719425 0.589648 0.062892 -0.284957
C72   C     C_R   0.280664 0.410302 0.933782 -0.149225
C73   C     C_R   0.255263 0.016532 0.385136 -0.142752
C74   C     C_R   0.727996 0.024506 0.607838 -0.190750
C75   C     C_R   0.412833 0.280315 0.930788 -0.294052
C76   C     C_R   0.587479 0.719787 0.067755 -0.150846
C77   C     C_R   0.990593 0.388342 0.264255 -0.174237
C78   C     C_R   0.060916 0.591427 0.720251 -0.179941
C79   C     C_R   0.703703 0.986006 0.700996 0.371911
C80   C     C_R   0.298248 0.014938 0.296824 0.378110
C81   C     C_R   0.080857 0.674840 0.673446 0.449493
C82   C     C_R   0.965217 0.309787 0.309008 0.375959
C83   C     C_R   0.672129 0.673170 0.082641 0.424746
C84   C     C_R   0.327882 0.325625 0.916359 0.429115
C85   C     C_R   0.592899 0.006561 0.602789 0.009870
C86   C     C_R   0.398076 0.994469 0.406222 0.013954
C87   C     C_R   0.053611 0.583560 0.581331 0.056733
C88   C     C_R   0.986805 0.404809 0.401543 0.033397
C89   C     C_R   0.583654 0.585539 0.044993 0.048803
C90   C     C_R   0.417818 0.418172 0.945450 0.058818
O25   O     O_3   0.770121 0.918899 0.740459 -0.603407
C91   C     C_3   0.793778 0.950072 0.791886 -0.134411
H13   H     H_    0.773212 0.026011 0.776820 0.170555
H14   H     H_    0.868912 0.925195 0.777654 0.174548
H15   H     H_    0.765008 0.918673 0.864612 0.179732
O26   O     O_3   0.256648 0.081755 0.232384 -0.586014
C92   C     C_3   0.205884 0.049821 0.208516 -0.105343
H16   H     H_    0.222813 0.973826 0.227784 0.167863
H17   H     H_    0.219667 0.074709 0.134322 0.169793
H18   H     H_    0.132043 0.080649 0.237678 0.198095
O27   O     O_3   0.104452 0.715911 0.714403 -0.561664
C93   C     C_3   0.191019 0.729980 0.661734 -0.145918
H19   H     H_    0.189970 0.782569 0.596251 0.123149
H20   H     H_    0.243412 0.665258 0.649087 0.173498
H21   H     H_    0.212663 0.755541 0.698672 0.173846
O28   O     O_3   0.980515 0.254112 0.257725 -0.584601
C94   C     C_3   0.897844 0.253378 0.255341 -0.144150
H22   H     H_    0.903790 0.267985 0.184108 0.211669
H23   H     H_    0.835619 0.302446 0.287022 0.139056
H24   H     H_    0.891218 0.183362 0.285969 0.176033
O29   O     O_3   0.711444 0.713694 0.108710 -0.572298
C95   C     C_3   0.722038 0.660268 0.194877 -0.179304
H25   H     H_    0.656598 0.649033 0.244677 0.187793
H26   H     H_    0.746016 0.696662 0.218982 0.169398
H27   H     H_    0.774227 0.592990 0.193330 0.119572
O30   O     O_3   0.286774 0.283833 0.893808 -0.564967
C96   C     C_3   0.339000 0.270118 0.807559 -0.145466
H28   H     H_    0.346779 0.335752 0.755911 0.176282
H29   H     H_    0.303433 0.241014 0.787943 0.185727
H30   H     H_    0.407442 0.220414 0.806623 0.118152
C97   C     C_2   0.471473 0.878474 0.829926 0.476979
H31   H     H_    0.403693 0.872594 0.870787 0.011897
O31   O     O_2   0.536787 0.824317 0.855884 -0.581396
C98   C     C_2   0.597463 0.861860 0.257088 0.447080
H32   H     H_    0.670167 0.851823 0.225942 0.044508
O32   O     O_2   0.562616 0.810958 0.255900 -0.580667
C99   C     C_2   0.155337 0.759452 0.385988 0.483169
H33   H     H_    0.188589 0.776207 0.417900 0.057099
O33   O     O_2   0.166738 0.793042 0.305081 -0.619745
C100  C     C_2   0.843915 0.262532 0.601915 0.409605
H34   H     H_    0.833734 0.234579 0.673952 0.089468
O34   O     O_2   0.796484 0.253464 0.569302 -0.559140
C101  C     C_2   0.754397 0.380463 0.128632 0.412334
H35   H     H_    0.771167 0.406179 0.167656 0.041585
O35   O     O_2   0.773180 0.297811 0.143116 -0.648823
C102  C     C_2   0.237661 0.621178 0.869132 0.441903
H36   H     H_    0.204594 0.692072 0.870263 0.030090
O36   O     O_2   0.229099 0.594744 0.816345 -0.583801
C103  C     C_2   0.168305 0.122923 0.528238 0.481519
H37   H     H_    0.126239 0.128809 0.595435 0.014979
O37   O     O_2   0.143179 0.178220 0.463557 -0.572514
C104  C     C_2   0.731613 0.149388 0.409299 0.400617
H38   H     H_    0.749696 0.170028 0.336430 0.063637
O38   O     O_2   0.738297 0.194586 0.446831 -0.570052
C105  C     C_2   0.619904 0.237362 0.856085 0.456898
H39   H     H_    0.591803 0.222033 0.818188 0.061387
O39   O     O_2   0.700989 0.202822 0.849363 -0.626232
C106  C     C_2   0.377138 0.761996 0.137286 0.458612
H40   H     H_    0.307895 0.797648 0.133909 0.064920
O40   O     O_2   0.399933 0.768417 0.193805 -0.562740
C107  C     C_2   0.145214 0.476527 0.171833 0.457612
H41   H     H_    0.170828 0.534207 0.126268 0.042681
O41   O     O_2   0.178942 0.403990 0.152612 -0.572321
C108  C     C_2   0.115261 0.378093 0.761326 0.464510
H42   H     H_    0.108252 0.309514 0.794527 0.024605
O42   O     O_2   0.175724 0.396237 0.766834 -0.582260

loop_
_geom_bond_atom_site_label_1
_geom_bond_atom_site_label_2
_geom_bond_distance
_ccdc_geom_bond_type
C46   C54   1.423198 A    
O9    C21   1.242739 A    
C106  H40   1.085544 S    
C56   C68   1.447769 A    
O17   Zn5   2.043359 S    
C59   C71   1.437354 A    
C99   H33   1.085374 S    
C7    H7    1.084018 S    
O11   C23   1.248485 A    
C97   H31   1.085682 S    
C1    C25   1.404930 A    
C30   C102  1.476573 S    
O12   C24   1.253627 A    
C91   H15   1.109512 S    
O12   Zn1   2.039416 S    
C43   C49   1.419083 A    
C101  O35   1.223048 D    
C103  H37   1.085610 S    
O20   C18   1.299032 A    
C82   O28   1.394116 S    
O16   Zn4   2.082740 S    
O4    Zn4   2.037867 S    
C4    C53   1.410350 A    
O5    Zn5   2.055967 S    
C97   O31   1.220685 D    
C18   C67   1.457259 S    
C60   C90   1.408021 A    
C70   C82   1.388422 A    
C6    C51   1.404288 A    
C94   H23   1.115397 S    
C96   H28   1.113499 S    
C8    C32   1.409531 A    
C5    C52   1.400845 A    
C72   C84   1.390770 A    
C92   H18   1.109422 S    
C12   H12   1.083114 S    
C7    C31   1.403017 A    
C32   C104  1.478737 S    
C11   H11   1.079550 S    
C42   C90   1.425029 A    
O27   C93   1.420463 S    
C27   C99   1.489714 S    
C62   C85   1.412197 A    
C31   C103  1.479642 S    
C104  H38   1.084079 S    
C36   C66   1.425315 A    
C66   C78   1.442609 A    
C13   C70   1.450346 S    
C38   C44   1.409792 A    
O2    Zn2   2.041595 S    
C34   C64   1.424638 A    
C62   C74   1.441018 A    
C9    C33   1.404025 A    
C6    C30   1.398792 A    
O4    C16   1.232029 A    
C28   C58   1.421757 A    
C107  O41   1.220987 D    
C6    H6    1.081936 S    
O10   C22   1.233621 A    
C32   C62   1.426925 A    
O24   C14   1.287203 A    
C96   H29   1.109118 S    
C76   C83   1.391056 A    
O7    C19   1.248530 A    
C40   C88   1.419785 A    
C75   C84   1.391169 A    
C95   H26   1.107837 S    
C3    C27   1.401812 A    
C78   C81   1.398524 A    
C55   C85   1.408005 A    
C56   C86   1.414370 A    
C29   C59   1.417861 A    
O3    C15   1.240670 A    
C7    C44   1.400552 A    
C64   C76   1.435063 A    
C98   O32   1.220458 D    
C99   O33   1.221346 D    
C63   C75   1.430753 A    
C3    C54   1.410442 A    
C64   C89   1.407463 A    
O9    Zn4   2.065197 S    
C42   C48   1.409085 A    
O6    Zn6   2.055967 S    
C65   C88   1.405635 A    
O10   Zn3   2.065197 S    
C65   C77   1.417626 A    
C100  O34   1.221010 D    
C48   C52   1.420780 A    
C63   C90   1.409686 A    
C84   O30   1.388426 S    
C12   C45   1.401706 A    
C23   C74   1.451816 S    
C41   C47   1.411478 A    
C4    C28   1.404794 A    
C74   C79   1.396409 A    
C57   C87   1.408691 A    
C69   C81   1.394090 A    
C93   H21   1.109109 S    
C102  H36   1.085722 S    
C35   C65   1.417704 A    
O28   C94   1.412998 S    
C80   O26   1.395995 S    
C95   H27   1.109772 S    
C93   H20   1.113916 S    
C3    H3    1.078060 S    
C94   H24   1.103808 S    
O16   C22   1.266991 A    
O13   C23   1.283094 A    
C39   C54   1.410973 A    
O3    Zn3   2.037867 S    
O22   C16   1.286925 A    
O20   Zn5   2.080816 S    
O23   Zn2   2.044655 S    
O14   C24   1.300011 A    
C38   C86   1.417865 A    
C2    C49   1.402281 A    
C77   C82   1.366922 A    
C41   C52   1.414392 A    
C11   C35   1.392751 A    
C16   C71   1.476702 S    
C45   C53   1.418501 A    
O5    C17   1.240916 A    
O30   C96   1.417498 S    
C61   C73   1.430896 A    
O17   C19   1.287308 A    
C41   C89   1.427188 A    
C60   C72   1.439213 A    
O18   C20   1.287586 A    
C55   C67   1.434081 A    
C11   C46   1.406765 A    
O2    C14   1.255880 A    
C39   C87   1.423116 A    
C101  H35   1.084628 S    
O21   C15   1.281892 A    
C9    H9    1.080923 S    
C15   C72   1.477055 S    
C57   C69   1.423109 A    
C10   H10   1.081745 S    
C95   H25   1.113240 S    
C96   H30   1.109967 S    
C91   H14   1.109684 S    
C36   C108  1.479389 S    
C61   C86   1.405602 A    
O8    C20   1.245127 A    
C66   C87   1.413590 A    
C39   C45   1.414986 A    
C24   C73   1.454511 S    
O13   Zn1   2.059966 S    
C59   C89   1.408831 A    
O19   Zn6   2.080817 S    
C28   C100  1.484899 S    
C33   C63   1.420981 A    
O15   Zn3   2.082740 S    
C17   C68   1.457278 S    
O25   C91   1.413861 S    
O15   C21   1.282485 A    
C44   C50   1.417263 A    
C27   C57   1.420293 A    
C37   C43   1.407364 A    
C100  H34   1.085402 S    
C21   C78   1.483629 S    
C37   C50   1.407302 A    
O24   Zn1   2.044657 S    
C37   C85   1.417089 A    
C1    C50   1.401962 A    
C106  O40   1.221367 D    
C40   C53   1.407805 A    
C35   C107  1.480932 S    
C33   C105  1.488698 S    
C1    H1    1.084008 S    
C108  H42   1.085801 S    
C2    H2    1.084120 S    
O8    Zn5   2.030702 S    
C102  O36   1.218457 D    
C92   H16   1.115349 S    
C58   C70   1.435566 A    
C91   H13   1.115394 S    
C4    H4    1.082925 S    
C104  O38   1.221168 D    
O18   Zn6   2.043361 S    
C93   H19   1.109037 S    
C2    C26   1.409806 A    
C83   O29   1.388199 S    
C38   C49   1.405554 A    
O1    C13   1.255133 A    
O29   C95   1.416987 S    
C10   C47   1.408953 A    
C8    H8    1.084146 S    
C105  H39   1.085520 S    
O11   Zn2   2.039416 S    
O23   C13   1.280246 A    
C9    C48   1.409782 A    
C68   C80   1.394885 A    
C92   H17   1.109665 S    
C67   C79   1.374149 A    
O14   Zn2   2.059966 S    
C98   H32   1.084958 S    
C30   C60   1.423156 A    
C20   C75   1.473014 S    
C40   C46   1.419894 A    
C8    C43   1.401399 A    
C29   C101  1.478415 S    
C22   C77   1.434952 S    
C58   C88   1.418041 A    
C42   C51   1.415606 A    
C47   C51   1.423926 A    
C26   C56   1.429208 A    
C105  O39   1.221351 D    
C108  O42   1.218504 D    
C34   C106  1.486302 S    
O26   C92   1.413844 S    
C25   C55   1.429329 A    
C19   C76   1.471232 S    
C25   C97   1.480397 S    
C31   C61   1.428633 A    
C71   C83   1.389678 A    
C107  H41   1.085632 S    
O6    C18   1.247691 A    
C81   O27   1.389470 S    
C73   C80   1.375403 A    
C5    H5    1.080670 S    
C12   C36   1.397197 A    
O7    Zn6   2.030704 S    
C79   O25   1.396002 S    
C14   C69   1.475814 S    
C94   H22   1.101726 S    
O1    Zn1   2.041595 S    
O21   Zn4   2.060624 S    
O19   C17   1.283961 A    
C103  O37   1.220544 D    
C10   C34   1.402778 A    
O22   Zn3   2.060623 S    
C5    C29   1.400221 A    
C26   C98   1.475854 S    
