data_mof_unit_43751.cif
_audit_creation_date              2012-12-10T16:32:38-0500
_audit_creation_method            fapswitch 2.2
_symmetry_space_group_name_H-M    P1
_symmetry_Int_Tables_number       1
_space_group_crystal_system       triclinic
_cell_length_a                    16.998924
_cell_length_b                    16.948265
_cell_length_c                    16.997652
_cell_angle_alpha                 65.547003
_cell_angle_beta                  66.670469
_cell_angle_gamma                 65.973131
_cell_volume                      3916.20355078

loop_
_atom_site_label
_atom_site_type_symbol
_atom_type_description
_atom_site_fract_x
_atom_site_fract_y
_atom_site_fract_z
_atom_type_partial_charge
C1    C     C_R   0.589173 0.039277 0.589759 0.078076
C2    C     C_R   0.821940 0.564391 0.032345 0.895090
C3    C     C_R   0.433060 0.975030 0.176355 0.890492
C4    C     C_R   0.566805 0.025603 0.823310 0.902058
C5    C     C_R   0.564476 0.821513 0.032865 0.897070
C6    C     C_R   0.433829 0.177250 0.972230 0.897155
C7    C     C_R   0.034463 0.563801 0.821751 0.899452
C8    C     C_R   0.965522 0.436204 0.178247 0.892679
C9    C     C_R   0.823358 0.025272 0.566820 0.894788
C10   C     C_R   0.176369 0.975024 0.433130 0.892247
C11   C     C_R   0.539262 0.028224 0.542052 0.123288
C12   C     C_R   0.404727 0.980901 0.404240 0.074812
C13   C     C_R   0.452858 0.995049 0.451555 0.122521
C14   C     C_R   0.015268 0.544335 0.545236 0.119078
C15   C     C_R   0.984437 0.455790 0.454810 0.119601
C16   C     C_R   0.552870 0.551150 0.992747 0.120561
C17   C     C_R   0.465034 0.461828 0.959059 0.122351
C18   C     C_R   0.548791 0.071163 0.449619 -0.182025
C19   C     C_R   0.443369 0.952231 0.543958 -0.182875
C20   C     C_R   0.956489 0.490311 0.591133 -0.177415
C21   C     C_R   0.043208 0.509821 0.408912 -0.176245
C22   C     C_R   0.496367 0.599687 0.935265 -0.177624
C23   C     C_R   0.031919 0.591016 0.592366 0.071901
C24   C     C_R   0.522553 0.413499 0.015354 -0.177425
C25   C     C_R   0.505902 0.054914 0.404945 -0.174234
C26   C     C_R   0.486020 0.968597 0.588581 -0.174606
C27   C     C_R   0.452738 0.555589 0.918853 -0.180436
C28   C     C_R   0.565688 0.457386 0.031901 -0.182625
C29   C     C_R   0.941418 0.446564 0.546546 -0.176908
C30   C     C_R   0.058281 0.553565 0.453497 -0.176843
C31   C     C_R   0.550514 0.040765 0.678896 -0.230798
C32   C     C_R   0.444720 0.976124 0.316310 -0.220242
C33   C     C_R   0.036528 0.680161 0.551208 -0.217407
C34   C     C_R   0.967836 0.409077 0.407677 0.070777
C35   C     C_R   0.963320 0.319898 0.448814 -0.218023
C36   C     C_R   0.685094 0.555534 0.021554 -0.216942
C37   C     C_R   0.322966 0.453590 0.950895 -0.216315
C38   C     C_R   0.316635 0.976177 0.444593 -0.213925
C39   C     C_R   0.678773 0.039602 0.550544 -0.216628
C40   C     C_R   0.452141 0.323514 0.949728 -0.229779
C41   C     C_R   0.555252 0.684157 0.022858 -0.214202
C42   C     C_R   0.963425 0.449874 0.318611 -0.208687
C43   C     C_R   0.036336 0.550215 0.681429 -0.212367
C44   C     C_R   0.604782 0.026166 0.731197 -0.100580
C45   C     C_R   0.597455 0.597067 0.013901 0.070591
C46   C     C_R   0.393494 0.978339 0.266944 -0.096915
C47   C     C_R   0.052360 0.723951 0.596226 -0.104775
C48   C     C_R   0.947588 0.276062 0.403769 -0.104811
C49   C     C_R   0.726154 0.597442 0.044799 -0.099737
C50   C     C_R   0.270567 0.398215 0.968107 -0.095459
C51   C     C_R   0.267185 0.978176 0.393519 -0.096339
C52   C     C_R   0.731144 0.025683 0.604713 -0.098534
C53   C     C_R   0.397102 0.270651 0.968473 -0.097760
C54   C     C_R   0.597907 0.725065 0.045511 -0.101486
C55   C     C_R   0.947797 0.404495 0.275062 -0.103209
C56   C     C_R   0.413723 0.414082 0.949619 0.077183
C57   C     C_R   0.052104 0.595534 0.724940 -0.104830
C58   C     C_R   0.696696 0.004285 0.696910 -0.085849
C59   C     C_R   0.302455 0.990648 0.302262 -0.113336
C60   C     C_R   0.073849 0.676003 0.677073 -0.077626
C61   C     C_R   0.926131 0.323983 0.322901 -0.078319
C62   C     C_R   0.677505 0.676070 0.068848 -0.079469
C63   C     C_R   0.305703 0.305744 0.991741 -0.090666
C64   C     C_1   0.755276 0.949495 0.756112 0.242358
C65   C     C_1   0.244848 0.016328 0.245118 0.290358
C66   C     C_1   0.116513 0.709437 0.710998 0.226880
C67   C     C_R   0.965548 0.178569 0.435942 0.896664
C68   C     C_1   0.883587 0.290475 0.288921 0.228629
C69   C     C_1   0.709195 0.706487 0.116184 0.224156
C70   C     C_1   0.247539 0.248058 0.048752 0.235322
C71   C     C_R   0.034449 0.821433 0.564055 0.897239
C72   C     C_R   0.177258 0.434533 0.971444 0.893438
H1    H     H_    0.479143 0.932556 0.659369 0.134910
H2    H     H_    0.486104 0.671716 0.902535 0.129788
H3    H     H_    0.078935 0.517128 0.338754 0.133249
H4    H     H_    0.920764 0.483002 0.661291 0.132845
H5    H     H_    0.479341 0.049062 0.708411 0.159126
H6    H     H_    0.514874 0.972832 0.285870 0.161012
H7    H     H_    0.023281 0.716652 0.486151 0.161904
H8    H     H_    0.976559 0.283423 0.513875 0.161275
H9    H     H_    0.722511 0.492405 0.005527 0.160937
H10   H     H_    0.291930 0.524996 0.944630 0.156750
H11   H     H_    0.285161 0.975523 0.514007 0.158419
H12   H     H_    0.513086 0.090449 0.334040 0.134091
H13   H     H_    0.709145 0.044740 0.479978 0.158575
H14   H     H_    0.523736 0.293190 0.939956 0.157378
H15   H     H_    0.490019 0.720676 0.010725 0.157740
H16   H     H_    0.973930 0.516038 0.282650 0.160401
H17   H     H_    0.025748 0.484089 0.717411 0.158109
H18   H     H_    0.104843 0.593614 0.416400 0.134769
H19   H     H_    0.894864 0.406505 0.583642 0.134495
H20   H     H_    0.607272 0.418011 0.077700 0.135665
H21   H     H_    0.409477 0.594884 0.874714 0.131847
H22   H     H_    0.404073 0.904896 0.581628 0.132792
H23   H     H_    0.588801 0.117836 0.411968 0.133053
H24   H     H_    0.531923 0.341754 0.049578 0.135370
N1    N     N_1   0.801685 0.905707 0.803028 -0.183846
N2    N     N_1   0.198879 0.033526 0.201455 -0.172438
N3    N     N_1   0.150700 0.735905 0.737882 -0.208505
N4    N     N_1   0.849501 0.263941 0.261995 -0.206206
N5    N     N_1   0.734305 0.730557 0.154060 -0.198422
N6    N     N_1   0.199188 0.204550 0.093593 -0.179328
O1    O     O_R   0.982940 0.138950 0.510160 -0.639187
O2    O     O_R   0.982940 0.510160 0.138950 -0.638595
O3    O     O_R   0.861050 0.017060 0.489840 -0.635208
O4    O     O_R   0.138950 0.982940 0.510160 -0.635957
O5    O     O_R   0.867700 0.025880 0.612340 -0.625225
O6    O     O_R   0.132300 0.974120 0.387660 -0.629950
O7    O     O_R   0.025880 0.612340 0.867700 -0.614138
O8    O     O_R   0.974120 0.387660 0.132300 -0.614498
O9    O     O_R   0.612340 0.867700 0.025880 -0.612646
O10   O     O_R   0.387660 0.132300 0.974120 -0.622392
O11   O     O_R   0.387660 0.974120 0.132300 -0.630208
O12   O     O_R   0.017060 0.861050 0.489840 -0.638357
O13   O     O_R   0.612340 0.025880 0.867700 -0.622896
O14   O     O_R   0.132300 0.387660 0.974120 -0.621866
O15   O     O_R   0.867700 0.612340 0.025880 -0.614984
O16   O     O_R   0.974120 0.132300 0.387660 -0.614341
O17   O     O_R   0.025880 0.867700 0.612340 -0.613993
O18   O     O_R   0.138950 0.510160 0.982940 -0.637876
O19   O     O_R   0.861050 0.489840 0.017060 -0.638771
O20   O     O_R   0.510160 0.982940 0.138950 -0.637780
O21   O     O_R   0.489840 0.017060 0.861050 -0.638602
O22   O     O_R   0.489840 0.861050 0.017060 -0.640476
O23   O     O_R   0.510160 0.138950 0.982940 -0.641418
O24   O     O_R   0.017060 0.489840 0.861050 -0.639809
Zn1   Zn    Zn3+2 0.004880 0.004880 0.583590 0.974686
Zn2   Zn    Zn3+2 0.995120 0.995120 0.416410 0.978379
Zn3   Zn    Zn3+2 0.004880 0.583590 0.004880 0.982558
Zn4   Zn    Zn3+2 0.995120 0.416410 0.995120 0.976057
Zn5   Zn    Zn3+2 0.583590 0.004880 0.004880 0.972608
Zn6   Zn    Zn3+2 0.416410 0.995120 0.995120 0.966598

loop_
_geom_bond_atom_site_label_1
_geom_bond_atom_site_label_2
_ccdc_geom_bond_type
C16   C28   A    
C11   C18   A    
C50   C63   A    
O11   Zn6   S    
C38   H11   S    
C4    O13   A    
C10   O6    A    
C34   C42   A    
O19   Zn4   S    
C30   H18   S    
C67   O1    A    
O13   Zn5   S    
C18   C25   A    
C5    O22   A    
C20   H4    S    
C43   H17   S    
C65   N2    T    
C24   H24   S    
O21   Zn6   S    
O24   Zn4   S    
C9    O3    A    
C35   H8    S    
C1    C31   A    
C26   H1    S    
C23   C43   A    
O22   Zn6   S    
C34   C35   A    
C40   H14   S    
C19   C26   A    
C50   C72   S    
C47   C60   A    
C37   C56   A    
C44   C58   A    
C40   C56   A    
C1    C11   S    
C25   H12   S    
C31   H5    S    
O15   Zn3   S    
C15   C34   S    
C3    O20   A    
C32   C46   A    
C39   C52   A    
C60   C66   S    
C48   C67   S    
C12   C32   A    
C18   H23   S    
C13   C25   A    
C9    C52   S    
O16   Zn2   S    
C14   C30   A    
C35   C48   A    
C71   O12   A    
C8    C55   S    
C2    O15   A    
C15   C29   A    
C20   C29   A    
C58   C64   S    
C41   H15   S    
C17   C24   A    
C31   C44   A    
C13   C19   A    
O18   Zn3   S    
C17   C27   A    
C14   C20   A    
C5    C54   S    
C3    O11   A    
C1    C39   A    
C33   H7    S    
C57   C60   A    
C38   C51   A    
C5    O9    A    
C11   C26   A    
C23   C33   A    
O4    Zn1   S    
O10   Zn6   S    
C7    O7    A    
C62   C69   S    
C4    C44   S    
C66   N3    T    
C68   N4    T    
C2    C49   S    
C8    O8    A    
C42   C55   A    
C39   H13   S    
O12   Zn2   S    
O23   Zn5   S    
C63   C70   S    
C36   H9    S    
C72   O18   A    
O14   Zn4   S    
C36   C45   A    
C28   H20   S    
O6    Zn2   S    
C8    O2    A    
C17   C56   S    
C47   C71   S    
C19   H22   S    
C52   C58   A    
O9    Zn5   S    
C64   N1    T    
O2    Zn3   S    
O7    Zn3   S    
C33   C47   A    
C37   H10   S    
C27   H21   S    
C51   C59   A    
C22   H2    S    
C6    C53   S    
O20   Zn5   S    
C29   H19   S    
O1    Zn1   S    
C2    O19   A    
C72   O14   A    
C16   C22   A    
C49   C62   A    
O3    Zn2   S    
C6    O10   A    
C24   C28   A    
C6    O23   A    
C16   C45   S    
C70   N6    T    
C69   N5    T    
C14   C23   S    
C9    O5    A    
C54   C62   A    
C21   C30   A    
C21   H3    S    
C3    C46   S    
C71   O17   A    
C22   C27   A    
C10   C51   S    
O5    Zn1   S    
C59   C65   S    
C37   C50   A    
C53   C63   A    
C61   C68   S    
C48   C61   A    
C55   C61   A    
O8    Zn4   S    
C7    O24   A    
C12   C38   A    
C67   O16   A    
C41   C54   A    
C10   O4    A    
C43   C57   A    
C32   H6    S    
C15   C21   A    
C42   H16   S    
C12   C13   S    
C4    O21   A    
C46   C59   A    
C40   C53   A    
C41   C45   A    
C7    C57   S    
C36   C49   A    
O17   Zn1   S    
