data_mof_unit_8957.cif
_audit_creation_date              2012-12-10T20:48:18-0500
_audit_creation_method            fapswitch 2.2
_symmetry_space_group_name_H-M    P1
_symmetry_Int_Tables_number       1
_space_group_crystal_system       triclinic
_cell_length_a                    10.741404
_cell_length_b                    8.888029
_cell_length_c                    8.296653
_cell_angle_alpha                 89.843361
_cell_angle_beta                  88.072214
_cell_angle_gamma                 89.387616
_cell_volume                      791.58496512

loop_
_atom_site_label
_atom_site_type_symbol
_atom_type_description
_atom_site_fract_x
_atom_site_fract_y
_atom_site_fract_z
_atom_type_partial_charge
C1    C     C_R   0.498003 0.218924 0.500086 0.982077
C2    C     C_1   0.497660 0.934427 0.499656 -0.156282
C3    C     C_3   0.068273 0.623342 0.539446 -0.418158
C4    C     C_3   0.929228 0.614392 0.579554 -0.310592
C5    C     C_3   0.122055 0.462395 0.505482 -0.214047
C6    C     C_3   0.877213 0.472200 0.498267 -0.246876
C7    C     C_R   0.259208 0.479248 0.502261 0.946757
C8    C     C_R   0.741592 0.488008 0.498283 0.938736
C9    C     C_R   0.499272 0.781082 0.499857 0.908005
C10   C     C_1   0.497001 0.065353 0.499886 -0.079203
C11   C     C_3   0.065730 0.348083 0.633754 0.134093
C12   C     C_3   0.075443 0.401621 0.339538 0.241044
C13   C     C_3   0.921388 0.331348 0.604161 0.113577
C14   C     C_3   0.936872 0.452353 0.317939 0.162402
H1    H     H_    0.107472 0.235661 0.606225 0.112162
H2    H     H_    0.284800 0.076615 0.298039 0.387023
H3    H     H_    0.758512 0.051816 0.623351 0.346089
H4    H     H_    0.853220 0.846906 0.199755 0.401126
H5    H     H_    0.046649 0.287243 0.365485 0.086848
H6    H     H_    0.911510 0.234834 0.521408 0.051597
H7    H     H_    0.885217 0.362090 0.255619 0.141716
H8    H     H_    0.114149 0.682480 0.638280 0.232932
H9    H     H_    0.085444 0.696911 0.433176 0.242473
H10   H     H_    0.914686 0.605668 0.712720 0.260628
H11   H     H_    0.881900 0.720808 0.547163 0.225415
H12   H     H_    0.189873 0.154919 0.843491 0.373072
N1    N     N_1   0.500000 0.500030 0.073640 0.050520
N2    N     N_1   0.500000 0.500030 0.926360 0.060699
O1    O     O_R   0.500000 0.285340 0.636850 -0.555449
O2    O     O_2   0.010333 0.356941 0.956845 -0.143485
O3    O     O_3   0.228935 0.254895 0.852334 -0.479744
O4    O     O_2   0.100557 0.158832 0.131657 -0.252045
O5    O     O_2   0.267119 0.350145 0.122209 -0.162436
O6    O     O_3   0.252760 0.164603 0.360306 -0.654083
O7    O     O_2   0.905100 0.124104 0.846520 -0.252562
O8    O     O_2   0.768268 0.344941 0.879946 -0.183101
O9    O     O_3   0.715694 0.140798 0.672102 -0.574556
O10   O     O_2   0.052924 0.671416 0.138129 -0.236509
O11   O     O_2   0.855499 0.579926 0.041465 -0.216593
O12   O     O_R   0.500000 0.285340 0.363150 -0.611823
O13   O     O_3   0.846821 0.762690 0.277947 -0.589586
O14   O     O_R   0.314790 0.499970 0.636880 -0.567579
O15   O     O_R   0.314790 0.499970 0.363120 -0.564799
O16   O     O_R   0.685210 0.499970 0.636880 -0.570445
O17   O     O_R   0.685210 0.499970 0.363120 -0.591855
O18   O     O_R   0.500000 0.714650 0.636900 -0.619605
O19   O     O_R   0.500000 0.714650 0.363100 -0.609680
O20   O     O_2   0.160778 0.536931 0.864052 -0.216006
S1    S     S_3+6 0.112521 0.382037 0.834315 0.154167
S2    S     S_3+6 0.174117 0.268656 0.227462 0.072760
S3    S     S_3+6 0.827219 0.238059 0.759594 0.089326
S4    S     S_3+6 0.925009 0.618841 0.189139 0.095645
Zn1   Zn    Zn3+2 0.500000 0.499990 0.682780 1.144747
Zn2   Zn    Zn3+2 0.500000 0.499990 0.317220 1.121460

loop_
_geom_bond_atom_site_label_1
_geom_bond_atom_site_label_2
_ccdc_geom_bond_type
C12   S2    S    
N2    Zn1   S    
C9    O19   A    
C11   S1    S    
C7    O15   A    
C6    C14   S    
O15   Zn2   S    
C3    H9    S    
C13   H6    S    
C1    O1    A    
C4    H11   S    
N1    Zn2   S    
C9    O18   A    
H3    O9    S    
C6    C13   S    
C11   C13   S    
O4    S2    D    
O8    S3    D    
O1    Zn1   S    
O3    S1    S    
O19   Zn2   S    
C4    H10   S    
O18   Zn1   S    
O20   S1    D    
O2    S1    D    
C12   C14   S    
O17   Zn2   S    
C5    C11   S    
O12   Zn2   S    
C12   H5    S    
O14   Zn1   S    
O7    S3    D    
O9    S3    S    
O6    S2    S    
O10   S4    D    
C3    C4    S    
C2    C10   T    
C8    O16   A    
H12   O3    S    
C14   H7    S    
C5    C12   S    
C4    C6    S    
C7    O14   A    
N1    N2    T    
C5    C7    S    
C8    O17   A    
C3    H8    S    
C6    C8    S    
O13   S4    S    
C1    O12   A    
H2    O6    S    
O5    S2    D    
C13   S3    S    
C2    C9    S    
C11   H1    S    
O16   Zn1   S    
C14   S4    S    
C1    C10   S    
H4    O13   S    
O11   S4    D    
C3    C5    S    
