data_mof_unit_6082.cif
_audit_creation_date              2012-12-10T17:48:57-0500
_audit_creation_method            fapswitch 2.2
_symmetry_space_group_name_H-M    P1
_symmetry_Int_Tables_number       1
_space_group_crystal_system       triclinic
_cell_length_a                    10.768024
_cell_length_b                    14.680013
_cell_length_c                    14.834658
_cell_angle_alpha                 64.664762
_cell_angle_beta                  104.713186
_cell_angle_gamma                 103.177882
_cell_volume                      2030.76817474

loop_
_atom_site_label
_atom_site_type_symbol
_atom_type_description
_atom_site_fract_x
_atom_site_fract_y
_atom_site_fract_z
_atom_type_partial_charge
C1    C     C_R   0.478887 0.119935 0.311678 0.893367
C2    C     C_3   0.878150 0.003142 0.498662 -0.085855
C3    C     C_3   0.917710 0.896975 0.571636 -0.467897
C4    C     C_3   0.970647 0.081901 0.540020 0.138791
C5    C     C_R   0.474797 0.187144 0.202858 -0.190430
C6    C     C_R   0.532893 0.812731 0.795427 -0.110151
C7    C     C_R   0.483630 0.217725 0.028478 0.243069
C8    C     C_R   0.483383 0.150296 0.130268 0.263603
C9    C     C_R   0.468788 0.291826 0.171387 0.071309
C10   C     C_R   0.495738 0.360673 0.075542 0.065704
C11   C     C_R   0.490033 0.323026 0.000926 -0.020050
C12   C     C_R   0.259840 0.999620 0.500280 0.817250
C13   C     C_R   0.525002 0.466995 0.050940 0.119333
C14   C     C_R   0.510947 0.534539 0.948078 0.065168
C15   C     C_R   0.498827 0.495597 0.874092 -0.132241
C16   C     C_R   0.492297 0.392139 0.900375 -0.117702
C17   C     C_R   0.581798 0.507177 0.125603 -0.147587
C18   C     C_R   0.617072 0.611414 0.099060 -0.201760
C19   C     C_R   0.589937 0.678581 0.998100 0.109069
C20   C     C_R   0.526050 0.640341 0.922890 0.038277
C21   C     C_R   0.628028 0.783321 0.970684 -0.152370
C22   C     C_R   0.605238 0.849404 0.869137 -0.204743
C23   C     C_R   0.518388 0.880225 0.687610 0.841226
C24   C     C_R   0.481219 0.709429 0.824971 0.208956
C25   C     C_R   0.749559 0.309074 0.630618 0.072308
C26   C     C_R   0.696425 0.213391 0.626497 0.355332
C27   C     C_R   0.512029 0.282387 0.510484 -0.005022
C28   C     C_R   0.556745 0.379507 0.514905 -0.114724
C29   C     C_R   0.685271 0.394979 0.566275 0.037997
C30   C     C_R   0.480643 0.462126 0.468848 0.030036
C31   C     C_R   0.536432 0.557952 0.474547 0.055012
C32   C     C_R   0.672930 0.577511 0.495644 0.087204
C33   C     C_R   0.746886 0.496204 0.546637 0.278711
C34   C     C_R   0.740013 0.000868 0.499430 0.868421
C35   C     C_R   0.351851 0.453587 0.416665 -0.159076
C36   C     C_R   0.281761 0.536211 0.372195 -0.121874
C37   C     C_R   0.331857 0.626341 0.387417 0.091630
C38   C     C_R   0.455800 0.635188 0.446059 -0.013679
C39   C     C_R   0.257834 0.706543 0.347624 -0.257053
C40   C     C_R   0.303756 0.792147 0.371200 0.084761
C41   C     C_R   0.488608 0.716681 0.480255 0.449532
C42   C     C_3   0.043896 0.041668 0.388228 0.031578
C43   C     C_3   0.897824 0.023084 0.390609 0.121169
C44   C     C_3   0.057482 0.891213 0.567460 -0.002631
C45   C     C_3   0.113031 0.073590 0.547162 -0.487262
C46   C     C_3   0.121471 0.999352 0.499409 -0.054237
Cu1   Cu    Cu3+1 0.465900 0.918260 0.475680 1.043523
Cu2   Cu    Cu3+1 0.534100 0.081740 0.524320 0.994850
H1    H     H_    0.955749 0.062047 0.618035 0.129641
H2    H     H_    0.113910 0.869994 0.646134 0.177613
H3    H     H_    0.910359 0.881378 0.650621 0.176026
H4    H     H_    0.488211 0.367739 0.840397 0.199454
H5    H     H_    0.643369 0.929182 0.848505 0.187533
H6    H     H_    0.666079 0.639402 0.157606 0.157210
H7    H     H_    0.074957 0.125246 0.354828 0.191974
H8    H     H_    0.504579 0.545362 0.796159 0.213483
H9    H     H_    0.610683 0.458553 0.203913 0.170258
H10   H     H_    0.680207 0.813484 0.027011 0.170628
H11   H     H_    0.247525 0.854358 0.338428 0.192939
H12   H     H_    0.184979 0.527710 0.329619 0.166482
H13   H     H_    0.421709 0.268360 0.463688 0.128019
H14   H     H_    0.303531 0.384573 0.407149 0.147233
H15   H     H_    0.164500 0.702873 0.298994 0.167194
H16   H     H_    0.853111 0.954027 0.374744 0.179721
H17   H     H_    0.849577 0.836710 0.551507 0.245075
H18   H     H_    0.161732 0.046136 0.628092 0.181485
H19   H     H_    0.165393 0.150372 0.508473 0.222579
N1    N     N_R   0.585360 0.204570 0.560800 -0.175823
N2    N     N_R   0.414550 0.795430 0.439160 -0.202151
O1    O     O_R   0.455060 0.022100 0.338110 -0.532766
O2    O     O_R   0.512640 0.160150 0.379180 -0.591036
O3    O     O_R   0.288900 0.930980 0.479450 -0.574791
O4    O     O_R   0.346480 0.069030 0.520520 -0.607836
O5    O     O_R   0.487360 0.839850 0.620820 -0.517307
O6    O     O_R   0.544940 0.977900 0.661890 -0.571913
O7    O     O_R   0.653520 0.930970 0.479480 -0.559014
O8    O     O_R   0.711100 0.069020 0.520550 -0.531516
Br1   Br    Br    0.076445 0.996872 0.290856 -0.534891
Br2   Br    Br    0.323297 0.669114 0.744861 -0.478405
Br3   Br    Br    0.481841 0.165180 0.928377 -0.451727
Br4   Br    Br    0.496637 0.009065 0.165331 -0.374298
N3    N     N_3   0.414471 0.327304 0.227876 -0.578062
H20   H     H_    0.480408 0.328854 0.292394 0.237669
H21   H     H_    0.329661 0.279136 0.249108 0.234761
Br5   Br    Br    0.933873 0.529209 0.570990 -0.444704
Br6   Br    Br    0.612405 0.700071 0.603859 -0.528466
N4    N     N_3   0.863639 0.317640 0.703177 -0.508782
H22   H     H_    0.845449 0.269615 0.775872 0.235529
H23   H     H_    0.939524 0.294612 0.689488 0.256260
N5    N     N_3   0.758857 0.125081 0.689482 -0.541488
H24   H     H_    0.760407 0.110480 0.765123 0.197402
H25   H     H_    0.854408 0.140466 0.678117 0.210683
Br7   Br    Br    0.811748 0.133453 0.279560 -0.416534
N6    N     N_3   0.735819 0.679962 0.452015 -0.562973
H26   H     H_    0.783799 0.684269 0.396992 0.244635
H27   H     H_    0.805530 0.696567 0.508096 0.285750
N7    N     N_3   0.055050 0.808661 0.535733 -0.530836
H28   H     H_    0.023458 0.830070 0.458045 0.267317
H29   H     H_    0.145879 0.784570 0.556798 0.296200
Br8   Br    Br    0.940433 0.224314 0.463858 -0.486277

loop_
_geom_bond_atom_site_label_1
_geom_bond_atom_site_label_2
_ccdc_geom_bond_type
C32   N6    S    
N4    H22   S    
C19   C20   A    
N7    H28   S    
C7    C8    A    
C45   C46   S    
C7    C11   A    
C41   Br6   S    
C1    O2    A    
C30   C35   A    
C1    C5    S    
C28   C29   A    
C19   C21   A    
Cu1   O7    S    
C34   O8    A    
C42   C46   S    
C30   C31   A    
C15   C16   A    
C6    C22   A    
C29   C33   A    
C25   N4    S    
C18   C19   A    
C11   C16   A    
C33   Br5   S    
Cu1   N2    S    
C27   N1    A    
C27   H13   S    
Cu1   Cu2   S    
C45   H19   S    
C9    C10   A    
C9    N3    S    
C2    C34   S    
C12   O3    A    
C40   H11   S    
C21   C22   A    
Cu2   O6    S    
C3    H17   S    
C12   O4    A    
N7    H29   S    
C44   C46   S    
C43   H16   S    
C22   H5    S    
C4    C45   S    
C25   C29   A    
C3    C44   S    
C40   N2    A    
C8    Br4   S    
C14   C20   A    
C38   C41   A    
C12   C46   S    
C39   C40   A    
C3    H3    S    
C25   C26   A    
C35   C36   A    
Cu2   O8    S    
C2    C4    S    
Cu1   O1    S    
C5    C9    A    
C37   C38   A    
C42   H7    S    
C44   N7    S    
C24   Br2   S    
N5    H25   S    
C31   C32   A    
C2    C43   S    
C6    C24   A    
C17   C18   A    
Cu2   N1    S    
N6    H27   S    
C42   Br1   S    
N3    H21   S    
C4    Br8   S    
C42   C43   S    
C23   O5    A    
C45   H18   S    
C41   N2    A    
C44   H2    S    
C36   C37   A    
Cu2   O4    S    
C16   H4    S    
Cu1   O5    S    
C23   O6    A    
C36   H12   S    
C10   C13   A    
C5    C8    A    
C26   N5    S    
C39   H15   S    
C1    O1    A    
C31   C38   A    
C13   C17   A    
C4    H1    S    
C26   N1    A    
C32   C33   A    
C28   C30   A    
C2    C3    S    
C21   H10   S    
C37   C39   A    
C15   H8    S    
N5    H24   S    
C6    C23   S    
C43   Br7   S    
C35   H14   S    
N6    H26   S    
Cu1   O3    S    
C10   C11   A    
C18   H6    S    
N3    H20   S    
C17   H9    S    
C27   C28   A    
N4    H23   S    
C14   C15   A    
Cu2   O2    S    
C13   C14   A    
C20   C24   A    
C34   O7    A    
C7    Br3   S    
