data_mof_unit_31878.cif
_audit_creation_date              2012-12-11T15:10:49-0500
_audit_creation_method            fapswitch 2.2
_symmetry_space_group_name_H-M    P1
_symmetry_Int_Tables_number       1
_space_group_crystal_system       triclinic
_cell_length_a                    21.150655
_cell_length_b                    7.238935
_cell_length_c                    18.257658
_cell_angle_alpha                 90.001918
_cell_angle_beta                  93.411978
_cell_angle_gamma                 90.003102
_cell_volume                      2790.44235271

loop_
_atom_site_label
_atom_site_type_symbol
_atom_type_description
_atom_site_fract_x
_atom_site_fract_y
_atom_site_fract_z
_atom_type_partial_charge
O1    O     O_R   0.448880 0.506250 0.415280 -0.527979
O2    O     O_R   0.551120 0.006250 0.584720 -0.527982
O3    O     O_R   0.434830 0.174000 0.557310 -0.521255
O4    O     O_R   0.565170 0.674000 0.442690 -0.521254
C1    C     C_R   0.416995 0.344577 0.579660 0.697616
C2    C     C_R   0.583004 0.844580 0.420340 0.697618
O5    O     O_R   0.441680 0.176440 0.414130 -0.530389
O6    O     O_R   0.558320 0.676440 0.585870 -0.530382
O7    O     O_R   0.558020 0.007570 0.440520 -0.519673
O8    O     O_R   0.441980 0.507570 0.559480 -0.519679
C3    C     C_R   0.428086 0.344789 0.388284 0.690579
C4    C     C_R   0.571912 0.844802 0.611716 0.690589
O9    O     O_3   0.538160 0.339670 0.508820 -0.365480
O10   O     O_3   0.461840 0.839670 0.491180 -0.365487
V1    V     V_3+5 0.492920 0.064260 0.498360 1.435140
V2    V     V_3+5 0.507080 0.564260 0.501640 1.435134
C5    C     C_R   0.875766 0.984603 0.688214 -0.161622
C6    C     C_R   0.124284 0.485480 0.311753 -0.161652
H1    H     H_    0.963655 0.011713 0.751943 0.107146
H2    H     H_    0.036409 0.512753 0.248015 0.107168
H3    H     H_    0.795872 0.984140 0.570934 0.124352
H4    H     H_    0.204183 0.485023 0.429030 0.124357
H5    H     H_    0.897718 0.015053 0.637436 0.114184
H6    H     H_    0.102362 0.516375 0.362507 0.114193
C7    C     C_R   0.887082 0.942701 0.819837 -0.038996
C8    C     C_R   0.112918 0.442809 0.180167 -0.039045
C9    C     C_R   0.582489 0.812238 0.745877 -0.183225
C10   C     C_R   0.417487 0.311988 0.254130 -0.183212
C11   C     C_R   0.617197 0.808288 0.812993 0.225882
C12   C     C_R   0.382775 0.308008 0.187016 0.225881
C13   C     C_R   0.682298 0.840824 0.816765 -0.185526
C14   C     C_R   0.317682 0.340645 0.183245 -0.185512
C15   C     C_R   0.714682 0.878880 0.752874 0.040694
C16   C     C_R   0.285310 0.378837 0.247133 0.040698
C17   C     C_R   0.678385 0.884717 0.684001 0.068507
C18   C     C_R   0.321615 0.384769 0.316000 0.068505
C19   C     C_R   0.781793 0.910923 0.755058 0.089519
C20   C     C_R   0.218206 0.411008 0.244947 0.089515
C21   C     C_R   0.810478 0.949866 0.688302 0.138587
C22   C     C_R   0.189550 0.450378 0.311683 0.138594
C23   C     C_R   0.773991 0.954823 0.621867 -0.199787
C24   C     C_R   0.226044 0.455413 0.378112 -0.199794
C25   C     C_R   0.709145 0.922439 0.619610 -0.175617
C26   C     C_R   0.290872 0.422739 0.380381 -0.175641
C27   C     C_R   0.821727 0.906637 0.820835 -0.207057
C28   C     C_R   0.178255 0.406453 0.179184 -0.207070
C29   C     C_R   0.913513 0.982274 0.753359 -0.166246
C30   C     C_R   0.086528 0.482979 0.246616 -0.166206
C31   C     C_R   0.611983 0.850626 0.681086 -0.119121
C32   C     C_R   0.388009 0.350562 0.318916 -0.119135
H7    H     H_    0.803659 0.878362 0.873628 0.101959
H8    H     H_    0.196296 0.377728 0.126414 0.101994
H9    H     H_    0.532056 0.784733 0.744230 0.135850
H10   H     H_    0.467912 0.284393 0.255778 0.135860
H11   H     H_    0.706017 0.835048 0.870527 0.136807
H12   H     H_    0.293959 0.334903 0.129483 0.136802
H13   H     H_    0.683176 0.927551 0.566716 0.106632
H14   H     H_    0.316846 0.427894 0.433270 0.106669
C33   C     C_1   0.864580 0.938927 0.132161 -0.200465
C34   C     C_1   0.135420 0.438937 0.867839 -0.200460
C35   C     C_1   0.821748 0.924872 0.175947 0.009355
C36   C     C_1   0.178252 0.424880 0.824052 0.009360
C37   C     C_1   0.771203 0.905753 0.228094 0.011610
C38   C     C_1   0.228797 0.405754 0.771905 0.011612
C39   C     C_1   0.728646 0.889121 0.272105 0.012206
C40   C     C_1   0.271353 0.389115 0.727895 0.012208
C41   C     C_1   0.678102 0.869997 0.324249 0.012068
C42   C     C_1   0.321898 0.369986 0.675751 0.012068
C43   C     C_1   0.635263 0.855942 0.368023 -0.195174
C44   C     C_1   0.364736 0.355931 0.631977 -0.195178
O11   O     O_R   0.058070 0.289240 0.940580 -0.520279
O12   O     O_R   0.941930 0.789240 0.059420 -0.520283
O13   O     O_R   0.058330 0.616740 0.085880 -0.531757
O14   O     O_R   0.941670 0.116740 0.914120 -0.531751
C45   C     C_R   0.072032 0.448789 0.111721 0.685699
C46   C     C_R   0.927966 0.948772 0.888282 0.685695
O15   O     O_R   0.065180 0.619040 0.942700 -0.521641
O16   O     O_R   0.934820 0.119040 0.057300 -0.521641
O17   O     O_R   0.948870 0.787780 0.915270 -0.530110
O18   O     O_R   0.051130 0.287780 0.084730 -0.530116
C47   C     C_R   0.083177 0.450323 0.920188 0.705207
C48   C     C_R   0.916823 0.950320 0.079812 0.705187
O19   O     O_3   0.961870 0.453310 0.991210 -0.365047
O20   O     O_3   0.038130 0.953310 0.008790 -0.365050
V3    V     V_3+5 0.007070 0.728770 0.001630 1.426376
V4    V     V_3+5 0.992930 0.228770 0.998370 1.426371
I1    I     I_    0.570871 0.750686 0.909692 -0.309534
I2    I     I_    0.429079 0.250220 0.090322 -0.309546

loop_
_geom_bond_atom_site_label_1
_geom_bond_atom_site_label_2
_ccdc_geom_bond_type
C2    C43   S    
C40   C42   S    
C37   C39   T    
C9    C11   A    
C23   C25   A    
O1    C3    A    
C46   O17   A    
O2    C4    A    
C2    O7    A    
O12   V3    S    
O3    V1    S    
C21   C23   A    
O5    C3    A    
C5    H5    S    
O14   C46   A    
C6    H6    S    
H1    C29   S    
C27   H7    S    
C28   H8    S    
C34   C36   T    
C5    C21   A    
C35   C37   S    
C6    C22   A    
C36   C38   S    
C10   C32   A    
C26   H14   S    
C39   C41   S    
C17   C31   A    
O18   V4    S    
C33   C48   S    
C12   C14   A    
C17   C25   A    
C45   O18   A    
C7    C29   A    
C8    C30   A    
O16   V4    S    
O5    V1    S    
O15   V3    S    
O6    V2    S    
O13   C45   A    
C24   C26   A    
C4    C31   S    
C33   C35   T    
C20   C28   A    
O20   V3    S    
O4    C2    A    
C10   H10   S    
C15   C19   A    
C41   C43   T    
C14   C16   A    
O4    V2    S    
C1    C44   S    
O11   V4    S    
C34   C47   S    
O16   C48   A    
O15   C47   A    
O6    C4    A    
C13   C15   A    
C8    C45   S    
C25   H13   S    
O1    V2    S    
O14   V4    S    
O2    V1    S    
O13   V3    S    
H2    C30   S    
H3    C23   S    
C42   C44   T    
C18   C26   A    
C19   C27   A    
C7    C27   A    
O17   V3    S    
C18   C32   A    
C16   C20   A    
C5    C29   A    
O3    C1    A    
C6    C30   A    
C9    H9    S    
C7    C46   S    
C10   C12   A    
O7    V1    S    
C1    O8    A    
C19   C21   A    
C3    C32   S    
O8    V2    S    
C20   C22   A    
H4    C24   S    
C22   C24   A    
C15   C17   A    
C16   C18   A    
C11   I1    S    
C8    C28   A    
O19   V4    S    
C11   C13   A    
O9    V2    S    
O10   V1    S    
C13   H11   S    
C12   I2    S    
C14   H12   S    
O12   C48   A    
C9    C31   A    
C38   C40   T    
O11   C47   A    
