data_mof_unit_10054.cif
_audit_creation_date              2012-12-11T19:58:08-0500
_audit_creation_method            fapswitch 2.2
_symmetry_space_group_name_H-M    P1
_symmetry_Int_Tables_number       1
_space_group_crystal_system       triclinic
_cell_length_a                    8.280758
_cell_length_b                    16.37857
_cell_length_c                    23.02983
_cell_angle_alpha                 109.784554
_cell_angle_beta                  90.10296
_cell_angle_gamma                 83.357175
_cell_volume                      2917.03000357

loop_
_atom_site_label
_atom_site_type_symbol
_atom_type_description
_atom_site_fract_x
_atom_site_fract_y
_atom_site_fract_z
_atom_type_partial_charge
Ba1   Ba    Ba6+2 0.335320 0.541410 0.478120 1.708246
Ba2   Ba    Ba6+2 0.854470 0.458670 0.521900 1.695861
C1    C     C_3   0.092079 0.796842 0.274672 0.012078
C2    C     C_3   0.050740 0.752617 0.320491 0.441881
C3    C     C_3   0.221661 0.294435 0.321169 0.267359
C4    C     C_3   0.301881 0.240706 0.258264 -0.300782
C5    C     C_3   0.631040 0.256246 0.663083 0.348955
C6    C     C_3   0.632503 0.197060 0.702181 -0.323942
C7    C     C_3   0.119337 0.237633 0.641221 0.386624
C8    C     C_3   0.110926 0.162610 0.665630 -0.346569
C9    C     C_R   0.818322 0.529739 0.338204 -0.271914
C10   C     C_R   0.553628 0.582587 0.955901 -0.037139
C11   C     C_R   0.519120 0.576634 0.893934 0.593818
C12   C     C_3   0.586643 0.761305 0.359445 0.338219
C13   C     C_R   0.520751 0.421501 0.865371 0.584363
C14   C     C_R   0.551844 0.425629 0.926791 -0.018522
C15   C     C_R   0.568297 0.506575 0.972342 -0.046888
C16   C     C_R   0.571876 0.662934 0.002212 -0.059927
C17   C     C_R   0.603315 0.667592 0.063131 -0.031954
C18   C     C_R   0.617761 0.592082 0.080140 -0.014796
C19   C     C_R   0.600004 0.511321 0.034494 -0.050196
C20   C     C_R   0.566220 0.350091 0.943677 -0.070293
C21   C     C_R   0.596519 0.354797 0.004484 -0.059680
C22   C     C_R   0.614312 0.435157 0.050699 -0.026800
C23   C     C_3   0.591951 0.814442 0.316745 -0.295422
C24   C     C_R   0.648400 0.440584 0.112350 0.601629
C25   C     C_R   0.650583 0.595568 0.141539 0.633209
C26   C     C_2   0.329624 0.444769 0.760039 -0.097752
C27   C     C_3   0.308698 0.416892 0.691030 -0.070566
C28   C     C_1   0.501592 0.518913 0.688228 0.038054
C29   C     C_2   0.545413 0.528042 0.746104 -0.078457
C30   C     C_2   0.453571 0.490374 0.786035 0.209100
C31   C     C_R   0.858229 0.560685 0.243762 -0.123746
C32   C     C_R   0.907560 0.564594 0.303009 -0.048854
C33   C     C_R   0.682565 0.488647 0.315060 0.012476
C34   C     C_3   0.619364 0.727558 0.635439 0.320239
C35   C     C_R   0.628309 0.487608 0.256186 -0.094702
C36   C     C_R   0.715542 0.524220 0.219731 0.217717
C37   C     C_2   0.387281 0.471033 0.660560 -0.288483
C38   C     C_2   0.424371 0.222005 0.478308 -0.087202
C39   C     C_R   0.795287 0.752403 0.515881 -0.274947
C40   C     C_2   0.199408 0.137065 0.465657 -0.134937
C41   C     C_2   0.256814 0.207604 0.460863 0.003568
C42   C     C_2   0.504158 0.188179 0.517047 0.011690
C43   C     C_3   0.437878 0.116559 0.534265 -0.111655
C44   C     C_3   0.298192 0.076895 0.493109 0.072530
C45   C     C_3   0.597550 0.825778 0.669328 -0.353411
C46   C     C_2   0.573027 0.044509 0.529615 -0.070232
C47   C     C_2   0.546006 0.970703 0.538626 -0.088526
C48   C     C_R   0.822360 0.930280 0.568852 0.014309
C49   C     C_R   0.681721 0.903587 0.537485 -0.021156
C50   C     C_R   0.946010 0.868865 0.575093 -0.082299
C51   C     C_R   0.929921 0.779839 0.550102 0.089627
C52   C     C_R   0.668811 0.813575 0.510564 -0.013433
C53   C     C_3   0.784594 0.283719 0.300295 0.272968
C54   C     C_3   0.819875 0.269623 0.232331 -0.017801
C55   C     C_3   0.133616 0.653629 0.668031 0.332319
C56   C     C_3   0.122191 0.674035 0.737965 0.202836
H1    H     H_    0.671196 0.841805 0.711218 0.136925
H2    H     H_    0.637332 0.860540 0.639412 0.034877
H3    H     H_    0.467251 0.849013 0.683220 0.148565
H4    H     H_    0.813496 0.219833 0.307318 0.113374
H5    H     H_    0.868413 0.327464 0.329487 -0.038200
H6    H     H_    0.951418 0.248131 0.221291 0.049049
H7    H     H_    0.790469 0.330901 0.222243 0.093725
H8    H     H_    0.262685 0.637217 0.651956 -0.031426
H9    H     H_    0.068046 0.596141 0.646029 0.054533
H10   H     H_    0.197295 0.833753 0.290318 0.107909
H11   H     H_    0.180999 0.615991 0.747907 0.023099
H12   H     H_    0.933783 0.726384 0.307473 -0.069965
H13   H     H_    0.986551 0.843596 0.271823 0.071111
H14   H     H_    0.131748 0.348006 0.316906 -0.005954
H15   H     H_    0.319225 0.322870 0.350726 0.105711
H16   H     H_    0.215661 0.201161 0.227531 0.126005
H17   H     H_    0.347325 0.285291 0.236472 0.127201
H18   H     H_    0.405708 0.195092 0.264123 0.166841
H19   H     H_    0.605235 0.883510 0.344143 0.118100
H20   H     H_    0.650106 0.323723 0.693010 0.075242
H21   H     H_    0.508498 0.259041 0.643487 -0.086265
H22   H     H_    0.740429 0.205188 0.731908 0.135729
H23   H     H_    0.519350 0.213932 0.731827 0.136339
H24   H     H_    0.637460 0.127240 0.671799 0.096079
H25   H     H_    0.249472 0.245670 0.638437 -0.090552
H26   H     H_    0.072081 0.219606 0.593962 0.076865
H27   H     H_    0.190894 0.103862 0.636135 0.065284
H28   H     H_    0.984921 0.145704 0.664851 0.144121
H29   H     H_    0.567794 0.693112 0.331818 0.062858
H30   H     H_    0.153056 0.181129 0.713719 0.119575
H31   H     H_    0.606472 0.294907 0.015128 0.142157
H32   H     H_    0.553460 0.286714 0.909821 0.126596
H33   H     H_    0.616693 0.730864 0.096987 0.137587
H34   H     H_    0.932707 0.584045 0.215725 0.127566
H35   H     H_    0.561796 0.722774 0.991511 0.135023
H36   H     H_    0.650526 0.560936 0.764231 0.116148
H37   H     H_    0.258092 0.417491 0.786784 0.107878
H38   H     H_    0.523129 0.455371 0.237840 0.136213
H39   H     H_    0.861695 0.529125 0.382441 0.073905
H40   H     H_    0.705935 0.760808 0.381629 -0.057218
H41   H     H_    0.367554 0.457390 0.611743 0.077605
H42   H     H_    0.086220 0.117938 0.445057 0.140535
H43   H     H_    0.049902 0.890939 0.601912 0.082191
H44   H     H_    0.784297 0.683251 0.496806 0.057186
H45   H     H_    0.697134 0.052395 0.519370 0.115388
H46   H     H_    0.422764 0.960083 0.547278 0.107789
H47   H     H_    0.696176 0.787845 0.283085 0.130815
H48   H     H_    0.478672 0.812178 0.290826 0.155240
H49   H     H_    0.748977 0.705479 0.621228 -0.008397
H50   H     H_    0.542892 0.712781 0.594315 0.039589
N1    N     N_R   0.500670 0.496612 0.849183 -0.423140
N2    N     N_R   0.667307 0.520219 0.157375 -0.423612
O1    O     O_2   0.414630 0.451750 0.353890 -0.455593
O2    O     O_3   0.065675 0.726779 0.653816 -0.637255
O3    O     O_3   0.455892 0.799386 0.402435 -0.545668
O4    O     O_2   0.775060 0.548280 0.646150 -0.448715
O5    O     O_3   0.534950 0.547420 0.574950 -0.498070
O6    O     O_3   0.073530 0.388570 0.588510 -0.482914
O7    O     O_3   0.571597 0.687775 0.676328 -0.603272
O8    O     O_3   0.168220 0.394330 0.455930 -0.476835
O9    O     O_3   0.678190 0.343400 0.553390 -0.445158
O10   O     O_2   0.839087 0.187601 0.501730 -0.477893
O11   O     O_3   0.758922 0.223120 0.618116 -0.598673
O12   O     O_3   0.654720 0.452660 0.425060 -0.457500
O13   O     O_3   0.021450 0.605740 0.544090 -0.503140
O14   O     O_2   0.953100 0.285520 0.441860 -0.417201
O15   O     O_3   0.144283 0.239613 0.344734 -0.640395
O16   O     O_2   0.974862 0.483437 0.705134 -0.485518
O17   O     O_3   0.026579 0.314087 0.680472 -0.568961
O18   O     O_2   0.502851 0.642962 0.880364 -0.576304
O19   O     O_2   0.512107 0.350265 0.826069 -0.627638
O20   O     O_2   0.664331 0.373888 0.125449 -0.578970
O21   O     O_2   0.663762 0.666110 0.180959 -0.596911
O22   O     O_3   0.116150 0.611500 0.411510 -0.452006
O23   O     O_2   0.232797 0.522025 0.297939 -0.472231
O24   O     O_3   0.618592 0.313566 0.317022 -0.620952
O25   O     O_3   0.179152 0.688100 0.320064 -0.539790
O26   O     O_2   0.236590 0.714510 0.558180 -0.452363
O27   O     O_3   0.511480 0.656670 0.446630 -0.486246
O28   O     O_2   0.332326 0.808706 0.507741 -0.452615
P1    P     P_3+3 0.594550 0.425840 0.359090 1.024814
P2    P     P_3+3 0.065650 0.701630 0.573510 0.995767
P3    P     P_3+3 0.491329 0.770590 0.468209 1.012620
P4    P     P_3+3 0.595130 0.574230 0.640920 1.012824
P5    P     P_3+3 0.695428 0.233691 0.548342 0.994665
P6    P     P_3+3 0.104554 0.599185 0.332780 1.020195
P7    P     P_3+3 0.138580 0.281598 0.425651 0.982066
P8    P     P_3+3 0.094795 0.403666 0.667068 0.958139
I1    I     I_    0.021478 0.850311 0.410326 -0.480692
I2    I     I_    0.692644 0.169920 0.171948 -0.373077
I3    I     I_    0.253795 0.781751 0.784732 -0.394340
N3    N     N_2   0.952910 0.692753 0.759709 -0.405242
H51   H     H_    0.892761 0.748794 0.754980 0.231272
C57   C     C_3   0.920153 0.684047 0.818891 -0.163094
H52   H     H_    0.786718 0.694123 0.828659 0.145349
H53   H     H_    0.976867 0.733701 0.856204 0.143086
H54   H     H_    0.967598 0.617520 0.818415 0.122410
I4    I     I_    0.151035 0.704469 0.183925 -0.425557
I5    I     I_    0.563309 0.260249 0.420213 -0.362914

loop_
_geom_bond_atom_site_label_1
_geom_bond_atom_site_label_2
_ccdc_geom_bond_type
O22   P6    S    
C53   C54   S    
C8    H27   S    
C34   H50   S    
C51   P2    S    
O9    P5    S    
O2    P2    S    
C1    H10   S    
C55   H8    S    
O26   P2    D    
Ba1   O22   S    
C47   H46   S    
C2    H12   S    
Ba2   O8    S    
O1    P1    D    
C5    C6    S    
C43   C44   S    
C42   C43   S    
C10   C11   A    
C32   P6    S    
C7    O17   S    
C26   H37   S    
C23   H19   S    
O4    P4    D    
C26   C27   S    
C33   C35   A    
C55   H9    S    
O12   P1    S    
Ba1   Ba2   S    
C3    H14   S    
C28   C29   D    
C55   O2    S    
C54   H7    S    
C53   H4    S    
C25   O21   D    
C39   H44   S    
C34   C45   S    
C16   C17   A    
C40   C44   S    
O11   P5    S    
Ba1   O12   S    
C11   N1    Am   
C33   P1    S    
C45   H2    S    
C11   O18   D    
Ba2   O6    S    
C38   C41   S    
C8    H28   S    
C17   C18   A    
C25   N2    Am   
C14   C15   A    
C47   C49   S    
C53   H5    S    
C10   C15   A    
C48   C50   A    
C21   C22   A    
C54   H6    S    
C4    H16   S    
C36   N2    S    
Ba1   O26   S    
C7    C8    S    
C24   N2    Am   
Ba1   P1    S    
C56   I3    S    
O5    P4    S    
C34   H49   S    
O10   P5    D    
C5    O11   S    
C23   H48   S    
C12   H40   S    
Ba2   O12   S    
O16   P8    D    
C50   H43   S    
C30   N1    S    
C23   H47   S    
C6    H23   S    
C38   I5    S    
C4    H17   S    
C31   H34   S    
C27   P8    S    
C7    H26   S    
C48   C49   A    
Ba2   O13   S    
C2    I1    S    
O13   P2    S    
C15   C19   A    
C35   H38   S    
C54   I2    S    
C1    H13   S    
Ba1   O13   S    
C45   H3    S    
C35   C36   A    
C41   P7    S    
C40   H42   S    
Ba2   O5    S    
C37   H41   S    
C29   C30   S    
C13   O19   D    
C57   H54   S    
C26   C30   D    
C8    H30   S    
C27   C37   S    
C21   H31   S    
C31   C32   A    
C20   H32   S    
C18   C19   A    
C34   O7    S    
C39   C51   A    
Ba1   P2    S    
C7    H25   S    
C5    H20   S    
O25   P6    S    
C57   H53   S    
Ba2   O4    S    
C13   N1    Am   
C2    O25   S    
Ba2   P4    S    
C6    H24   S    
C53   O24   S    
C40   C41   D    
C3    O15   S    
C1    C2    S    
C29   H36   S    
O24   P1    S    
Ba1   O27   S    
C50   C51   A    
C5    H21   S    
C43   C46   S    
O27   P3    S    
C46   C47   D    
O23   P6    D    
C14   C20   A    
N3    H51   S    
O8    P7    S    
C9    C32   A    
C22   C24   A    
O28   P3    D    
C24   O20   D    
C12   H29   S    
Ba2   O9    S    
C56   H11   S    
C4    H18   S    
C18   C25   A    
Ba2   O14   S    
C12   O3    S    
O14   P7    D    
C31   C36   A    
C28   P4    S    
C9    H39   S    
C49   C52   A    
C9    C33   A    
O7    P4    S    
O15   P7    S    
Ba1   O1    S    
O6    P8    S    
C46   H45   S    
C55   C56   S    
C3    C4    S    
C42   P5    S    
C13   C14   A    
C1    I4    S    
O3    P3    S    
C28   C37   D    
N3    C57   S    
Ba1   O8    S    
C12   C23   S    
C3    H15   S    
C39   C52   A    
C17   H33   S    
O17   P8    S    
C45   H1    S    
C38   C42   D    
C52   P3    S    
C57   H52   S    
C19   C22   A    
C10   C16   A    
C6    H22   S    
C16   H35   S    
C20   C21   A    
Ba1   O5    S    
C56   N3    S    
