data_mof_unit_45467.cif
_audit_creation_date              2012-12-11T14:08:29-0500
_audit_creation_method            fapswitch 2.2
_symmetry_space_group_name_H-M    P1
_symmetry_Int_Tables_number       1
_space_group_crystal_system       triclinic
_cell_length_a                    10.910934
_cell_length_b                    10.908847
_cell_length_c                    18.660106
_cell_angle_alpha                 90.382173
_cell_angle_beta                  90.064368
_cell_angle_gamma                 60.629961
_cell_volume                      1935.51500865

loop_
_atom_site_label
_atom_site_type_symbol
_atom_type_description
_atom_site_fract_x
_atom_site_fract_y
_atom_site_fract_z
_atom_type_partial_charge
C1    C     C_R   0.236705 0.645276 0.608917 0.556296
C2    C     C_2   0.787099 0.145513 0.706150 0.330997
C3    C     C_2   0.183864 0.660630 0.681967 -0.114169
C4    C     C_R   0.653165 0.621474 0.601838 0.562776
C5    C     C_2   0.196295 0.662401 0.839773 -0.061496
C6    C     C_2   0.202316 0.555757 0.800701 0.349199
C7    C     C_2   0.229918 0.545871 0.723491 -0.096713
C8    C     C_2   0.649309 0.646336 0.317077 -0.092689
C9    C     C_2   0.633540 0.664519 0.159315 -0.102577
C10   C     C_2   0.706925 0.545102 0.195339 -0.161819
C11   C     C_2   0.687681 0.536579 0.271877 -0.148849
C12   C     C_3   0.688836 0.539877 0.800596 -0.317721
C13   C     C_2   0.632974 0.196331 0.318655 -0.102213
C14   C     C_2   0.637830 0.202424 0.163995 -0.104736
C15   C     C_2   0.522965 0.230769 0.200937 -0.157904
C16   C     C_R   0.628591 0.226846 0.601766 0.550543
C17   C     C_2   0.517342 0.257559 0.276976 -0.151728
C18   C     C_2   0.115324 0.686563 0.346039 -0.105339
C19   C     C_2   0.046719 0.723774 0.194884 -0.093591
C20   C     C_2   0.006003 0.832276 0.240496 -0.164942
C21   C     C_2   0.059687 0.811854 0.313883 -0.152220
C22   C     C_R   0.703518 0.102200 0.897517 0.585247
C23   C     C_3   0.698345 0.674453 0.813171 0.021786
C24   C     C_R   0.722613 0.687673 0.888952 0.579580
C25   C     C_R   0.119973 0.705858 0.907665 0.608020
C26   C     C_R   0.673342 0.114424 0.101286 0.545289
C27   C     C_R   0.692387 0.688359 0.094624 0.537725
C28   C     C_R   0.215481 0.651587 0.403978 0.558638
C29   C     C_R   0.022909 0.748878 0.119076 0.564223
C30   C     C_R   0.641215 0.621149 0.392611 0.547935
C31   C     C_R   0.614264 0.232987 0.393507 0.547271
C32   C     C_3   0.560547 0.802973 0.785729 -0.238550
C33   C     C_3   0.541954 0.785223 0.705675 -0.292142
C34   C     C_3   0.669252 0.646994 0.677301 0.015440
C35   C     C_3   0.825225 0.665975 0.770231 0.270176
C36   C     C_3   0.805353 0.655046 0.689435 0.257245
C37   C     C_3   0.675555 0.521532 0.720246 -0.227385
C38   C     C_2   0.675682 0.154807 0.670446 -0.076181
C39   C     C_2   0.691214 0.164839 0.827309 -0.150727
C40   C     C_2   0.803392 0.114994 0.783350 -0.085842
Cr1   Cr    Cr6+3 0.393010 0.398050 0.501480 1.053155
Cr2   Cr    Cr6+3 0.398820 0.707980 0.501630 1.041978
Cr3   Cr    Cr6+3 0.708140 0.393940 0.496850 1.096257
Cr4   Cr    Cr6+3 0.937950 0.938450 0.008940 1.033016
Cr5   Cr    Cr6+3 0.626180 0.937030 0.994750 1.047796
Cr6   Cr    Cr6+3 0.937790 0.625760 0.001410 1.083798
F1    F     F_    0.922111 0.537290 0.661797 -0.617305
F2    F     F_    0.887381 0.163371 0.672148 -0.607329
F3    F     F_    0.179934 0.455303 0.831011 -0.612106
F4    F     F_    0.840269 0.783045 0.784251 -0.682686
H1    H     H_    0.564235 0.902318 0.793968 0.197467
H2    H     H_    0.123281 0.765842 0.704447 0.134427
H3    H     H_    0.793613 0.453530 0.170163 0.152766
H4    H     H_    0.718941 0.432266 0.292387 0.152927
H5    H     H_    0.541612 0.753123 0.183067 0.115104
H6    H     H_    0.616862 0.752000 0.298581 0.096206
H7    H     H_    0.438492 0.217873 0.177806 0.160306
H8    H     H_    0.413084 0.322837 0.299648 0.159882
H9    H     H_    0.718167 0.222781 0.186522 0.095444
H10   H     H_    0.738169 0.130875 0.297385 0.083215
H11   H     H_    0.949700 0.939410 0.220605 0.134997
H12   H     H_    0.767723 0.421080 0.702885 0.247441
H13   H     H_    0.442125 0.782358 0.698036 0.166279
H14   H     H_    0.069797 0.897640 0.337665 0.158107
H15   H     H_    0.106392 0.615123 0.211731 0.106111
H16   H     H_    0.097519 0.603089 0.325921 0.101736
H17   H     H_    0.532867 0.877261 0.675734 0.133065
H18   H     H_    0.796637 0.748977 0.661636 0.156448
H19   H     H_    0.784126 0.445997 0.821393 0.160291
H20   H     H_    0.596022 0.547216 0.829305 0.119287
H21   H     H_    0.579612 0.512555 0.710002 0.100587
H22   H     H_    0.923786 0.571435 0.787116 0.239927
H23   H     H_    0.908752 0.046792 0.803531 0.180320
H24   H     H_    0.586097 0.233849 0.807042 0.096278
H25   H     H_    0.604756 0.126206 0.697050 0.067312
H26   H     H_    0.288930 0.440860 0.700556 0.175062
H27   H     H_    0.227462 0.733770 0.816062 0.031184
H28   H     H_    0.468206 0.812748 0.815978 0.127781
O1    O     O_R   0.507110 0.256280 0.580300 -0.528381
O2    O     O_R   0.837080 0.593860 0.915300 -0.501703
O3    O     O_R   0.064770 0.636080 0.932550 -0.410462
O4    O     O_R   0.280830 0.527190 0.577940 -0.483002
O5    O     O_R   0.068250 0.829200 0.092940 -0.505987
O6    O     O_R   0.799650 0.057040 0.080330 -0.529310
O7    O     O_R   0.586130 0.079760 0.077080 -0.510088
O8    O     O_R   0.627700 0.809630 0.066580 -0.503530
O9    O     O_R   0.816140 0.597180 0.075920 -0.524432
O10   O     O_R   0.045360 0.639170 0.081440 -0.503727
O11   O     O_3   0.833980 0.833750 0.001700 -0.276963
O12   O     O_R   0.524640 0.695370 0.425100 -0.493164
O13   O     O_R   0.261360 0.738990 0.584270 -0.501796
O14   O     O_R   0.532590 0.694780 0.574370 -0.526440
O15   O     O_R   0.744470 0.503750 0.577000 -0.428854
O16   O     O_R   0.698520 0.277230 0.571620 -0.432197
O17   O     O_R   0.498530 0.256920 0.419280 -0.512140
O18   O     O_R   0.272880 0.527780 0.428680 -0.501761
O19   O     O_R   0.252780 0.739630 0.423250 -0.505231
O20   O     O_R   0.735890 0.504390 0.415980 -0.510423
O21   O     O_R   0.690560 0.277820 0.422350 -0.505586
O22   O     O_3   0.499990 0.499990 0.499980 -0.279564
O23   O     O_R   0.089190 0.825870 0.932320 -0.525936
O24   O     O_R   0.819070 0.053960 0.931440 -0.493804
O25   O     O_R   0.607070 0.076440 0.916460 -0.487963
O26   O     O_R   0.647110 0.806550 0.917690 -0.492941

loop_
_geom_bond_atom_site_label_1
_geom_bond_atom_site_label_2
_ccdc_geom_bond_type
C28   O19   A    
C12   H19   S    
C34   C37   S    
C35   C36   S    
Cr3   O20   S    
C30   O12   A    
Cr4   O5    S    
C8    H6    S    
C37   H12   S    
Cr6   O11   S    
C14   H9    S    
C12   C23   S    
C9    C27   S    
Cr3   O21   S    
C29   O5    A    
C3    C7    D    
C26   O7    A    
C5    C6    D    
Cr1   O18   S    
Cr1   O4    S    
C18   C21   D    
C12   C37   S    
Cr3   O16   S    
C40   H23   S    
C36   F1    S    
Cr2   O13   S    
C39   H24   S    
C20   H11   S    
C10   H3    S    
C21   H14   S    
Cr5   O25   S    
C24   O2    A    
C19   C20   D    
C29   O10   A    
C1    C3    S    
C23   C24   S    
C9    H5    S    
Cr4   O23   S    
C31   O21   A    
Cr5   O11   S    
C9    C10   D    
Cr2   O14   S    
C17   H8    S    
C1    O13   A    
C25   O3    A    
C15   H7    S    
Cr6   O10   S    
C38   H25   S    
C4    C34   S    
C18   C28   S    
Cr3   O22   S    
Cr2   O19   S    
C39   C40   D    
C13   H10   S    
Cr4   O24   S    
C2    F2    S    
C1    O4    A    
C22   O25   A    
C24   O26   A    
C27   O8    A    
Cr5   O7    S    
C32   H1    S    
Cr5   O26   S    
Cr2   O22   S    
Cr6   O3    S    
C2    C38   D    
C33   H13   S    
C35   F4    S    
C33   C34   S    
Cr1   O22   S    
C14   C26   S    
C27   O9    A    
C7    H26   S    
C11   H4    S    
C5    C25   S    
C35   H22   S    
C23   C35   S    
C37   H21   S    
C5    H27   S    
C19   C29   S    
C33   H17   S    
Cr6   O9    S    
C15   C17   S    
C12   H20   S    
C26   O6    A    
C13   C31   S    
Cr4   O6    S    
Cr1   O1    S    
C3    H2    S    
C36   H18   S    
C6    C7    S    
C18   H16   S    
C30   O20   A    
C16   O16   A    
C22   O24   A    
C13   C17   D    
C28   O18   A    
C16   O1    A    
C8    C30   S    
C23   C32   S    
Cr5   O8    S    
C32   C33   S    
Cr6   O2    S    
C25   O23   A    
Cr1   O17   S    
C8    C11   D    
C31   O17   A    
C22   C39   S    
Cr3   O15   S    
C19   H15   S    
C34   C36   S    
C6    F3    S    
C10   C11   S    
C32   H28   S    
C4    O15   A    
C2    C40   S    
C20   C21   S    
C14   C15   D    
Cr2   O12   S    
Cr4   O11   S    
C16   C38   S    
C4    O14   A    
