data_mof_unit_66989.cif
_audit_creation_date              2012-12-11T17:41:01-0500
_audit_creation_method            fapswitch 2.2
_symmetry_space_group_name_H-M    P1
_symmetry_Int_Tables_number       1
_space_group_crystal_system       triclinic
_cell_length_a                    8.173246
_cell_length_b                    12.677782
_cell_length_c                    14.197112
_cell_angle_alpha                 92.876395
_cell_angle_beta                  90.546208
_cell_angle_gamma                 98.316412
_cell_volume                      1453.57218985

loop_
_atom_site_label
_atom_site_type_symbol
_atom_type_description
_atom_site_fract_x
_atom_site_fract_y
_atom_site_fract_z
_atom_type_partial_charge
Ba1   Ba    Ba6+2 0.855630 0.555280 0.454520 1.631310
Ba2   Ba    Ba6+2 0.334200 0.444810 0.545490 1.630740
C1    C     C_3   0.659414 0.966561 0.205577 0.216177
C2    C     C_3   0.662670 0.856919 0.244681 0.376143
C3    C     C_3   0.474876 0.310304 0.257755 0.296532
C4    C     C_3   0.452551 0.287435 0.151818 -0.373550
C5    C     C_3   0.046284 0.196811 0.805399 0.358683
C6    C     C_3   0.061150 0.161171 0.905490 -0.359222
C7    C     C_3   0.542396 0.142165 0.764186 0.333828
C8    C     C_3   0.590790 0.052513 0.820911 -0.390489
C9    C     C_R   0.985081 0.443205 0.061228 -0.033938
C10   C     C_R   0.183126 0.498245 0.195799 0.043120
C11   C     C_R   0.338419 0.549866 0.225841 -0.302667
C12   C     C_3   0.143836 0.802591 0.194523 0.311731
C13   C     C_R   0.451334 0.596706 0.162128 0.024841
C14   C     C_R   0.406399 0.599785 0.067299 -0.134647
C15   C     C_R   0.249092 0.551448 0.034570 -0.008619
C16   C     C_R   0.137386 0.496665 0.097985 -0.023260
C17   C     C_R   0.052668 0.502178 0.901928 -0.023209
C18   C     C_R   0.941114 0.447107 0.965304 -0.003761
C19   C     C_R   0.007445 0.500147 0.803992 0.044006
C20   C     C_R   0.853842 0.445906 0.773580 -0.293868
C21   C     C_R   0.740247 0.399711 0.837363 0.014348
C22   C     C_R   0.784275 0.397996 0.932446 -0.147327
C23   C     C_3   0.119416 0.835964 0.094438 -0.341876
C24   C     C_R   0.204667 0.555992 0.938787 -0.034333
C25   C     C_R   0.766860 0.176064 0.534066 -0.277850
C26   C     C_R   0.429629 0.813103 0.461408 -0.285664
C27   C     C_R   0.407003 0.994433 0.427496 -0.109828
C28   C     C_R   0.341625 0.887125 0.422903 -0.005189
C29   C     C_R   0.576858 0.846201 0.512241 0.064260
C30   C     C_R   0.642484 0.956731 0.521167 -0.059157
C31   C     C_R   0.556665 0.031189 0.476379 -0.060678
C32   C     C_R   0.620818 0.140927 0.483488 0.043000
C33   C     C_R   0.855641 0.104189 0.574946 -0.009539
C34   C     C_3   0.225910 0.762631 0.656489 0.282066
C35   C     C_R   0.791521 0.995521 0.571678 -0.091824
C36   C     C_3   0.240845 0.882168 0.677835 -0.352048
C37   C     C_3   0.976719 0.233075 0.341884 0.276438
C38   C     C_3   0.030778 0.124183 0.327467 -0.331303
C39   C     C_3   0.714112 0.673254 0.738075 0.304671
C40   C     C_3   0.730479 0.697012 0.844192 -0.388355
H1    H     H_    0.754115 0.865225 0.303922 0.035413
H2    H     H_    0.326444 0.905425 0.738616 0.114557
H3    H     H_    0.289346 0.925947 0.616156 0.081959
H4    H     H_    0.117716 0.904287 0.695319 0.142487
H5    H     H_    0.841602 0.222914 0.350141 -0.005666
H6    H     H_    0.038591 0.270930 0.407459 0.074084
H7    H     H_    0.962403 0.078956 0.267364 0.103122
H8    H     H_    0.007789 0.079493 0.392132 0.100121
H9    H     H_    0.164127 0.133633 0.311015 0.129551
H10   H     H_    0.831490 0.650861 0.711393 0.011880
H11   H     H_    0.612384 0.606107 0.723977 0.066229
H12   H     H_    0.661376 0.027773 0.264919 -0.019665
H13   H     H_    0.837853 0.759833 0.860584 0.130024
H14   H     H_    0.748903 0.624217 0.880545 0.062079
H15   H     H_    0.616321 0.725106 0.871204 0.125478
H16   H     H_    0.538160 0.828274 0.272035 -0.079898
H17   H     H_    0.358023 0.332305 0.286443 0.015041
H18   H     H_    0.576330 0.378044 0.270439 0.060126
H19   H     H_    0.346702 0.223062 0.136936 0.132785
H20   H     H_    0.428016 0.360228 0.117224 0.056078
H21   H     H_    0.566490 0.261877 0.121901 0.130971
H22   H     H_    0.771078 0.988087 0.162754 0.100016
H23   H     H_    0.159661 0.776286 0.043125 0.078641
H24   H     H_    0.128426 0.273964 0.799911 0.094421
H25   H     H_    0.916299 0.208449 0.792305 -0.069201
H26   H     H_    0.191612 0.153285 0.922285 0.156958
H27   H     H_    0.019859 0.220915 0.956338 0.068754
H28   H     H_    0.983085 0.082875 0.913069 0.114012
H29   H     H_    0.655013 0.179525 0.728480 -0.053128
H30   H     H_    0.450202 0.107967 0.708867 0.083072
H31   H     H_    0.686962 0.085474 0.874393 0.121623
H32   H     H_    0.640426 0.992934 0.773344 0.088726
H33   H     H_    0.065466 0.724461 0.202155 0.094174
H34   H     H_    0.481742 0.012711 0.858044 0.142868
H35   H     H_    0.374595 0.549860 0.299361 0.073536
H36   H     H_    0.494530 0.639163 0.019229 0.077616
H37   H     H_    0.695626 0.359401 0.980662 0.070933
H38   H     H_    0.818434 0.444803 0.699862 0.069830
H39   H     H_    0.898534 0.398121 0.106412 0.098062
H40   H     H_    0.291076 0.601269 0.893661 0.098146
H41   H     H_    0.336806 0.048175 0.394537 0.094461
H42   H     H_    0.861002 0.943111 0.607543 0.104262
H43   H     H_    0.816043 0.260168 0.537743 0.062365
H44   H     H_    0.275722 0.793360 0.204700 -0.015104
H45   H     H_    0.378136 0.729410 0.456457 0.070941
H46   H     H_    0.987038 0.841095 0.080621 0.145990
H47   H     H_    0.193010 0.915053 0.084035 0.142566
H48   H     H_    0.348091 0.741664 0.637626 0.007261
H49   H     H_    0.137573 0.741375 0.596403 0.077911
O1    O     O_2   0.887370 0.460630 0.272300 -0.466987
O2    O     O_3   0.680190 0.765175 0.695864 -0.641270
O3    O     O_3   0.097993 0.880408 0.259150 -0.616241
O4    O     O_2   0.302330 0.539400 0.727760 -0.469795
O5    O     O_3   0.060300 0.548700 0.611500 -0.496276
O6    O     O_3   0.519500 0.346920 0.670840 -0.470070
O7    O     O_3   0.171885 0.710915 0.737584 -0.638177
O8    O     O_3   0.614310 0.373510 0.452640 -0.477730
O9    O     O_3   0.100780 0.295230 0.623970 -0.486379
O10   O     O_2   0.198094 0.111525 0.569067 -0.484176
O11   O     O_3   0.093550 0.118810 0.741608 -0.601460
O12   O     O_3   0.129410 0.451380 0.388510 -0.494600
O13   O     O_3   0.575400 0.626570 0.547370 -0.490745
O14   O     O_2   0.344320 0.238700 0.455090 -0.467159
O15   O     O_3   0.513885 0.218547 0.298742 -0.647340
O16   O     O_2   0.400684 0.407637 0.835797 -0.495786
O17   O     O_3   0.470524 0.213089 0.825048 -0.590427
O18   O     O_3   0.670210 0.653170 0.329170 -0.484306
O19   O     O_2   0.792617 0.595355 0.164062 -0.497254
O20   O     O_3   0.015749 0.289404 0.260860 -0.638381
O21   O     O_3   0.710357 0.787126 0.173371 -0.599808
O22   O     O_2   0.845380 0.761330 0.544970 -0.471384
O23   O     O_3   0.088930 0.704860 0.376040 -0.487358
O24   O     O_2   0.002430 0.888600 0.434540 -0.491185
P1    P     P_3+3 0.054400 0.427280 0.286870 0.971623
P2    P     P_3+3 0.668300 0.742890 0.573060 0.969372
P3    P     P_3+3 0.133519 0.842493 0.373715 0.931372
P4    P     P_3+3 0.135310 0.572810 0.713130 0.970195
P5    P     P_3+3 0.061277 0.156043 0.626503 0.947877
P6    P     P_3+3 0.657009 0.655648 0.206459 0.959353
P7    P     P_3+3 0.527113 0.241622 0.421354 0.933255
P8    P     P_3+3 0.532522 0.344202 0.793407 0.959533
O25   O     O_3   0.519344 0.965484 0.147682 -0.718220
H50   H     H_    0.429838 0.984095 0.189400 0.303773

loop_
_geom_bond_atom_site_label_1
_geom_bond_atom_site_label_2
_ccdc_geom_bond_type
C9    C16   A    
C8    H32   S    
C39   C40   S    
O5    P4    S    
C17   C18   A    
C7    H30   S    
O16   P8    D    
Ba1   O8    S    
O7    P4    S    
C1    H22   S    
C9    H39   S    
C7    O17   S    
C6    H27   S    
Ba1   O22   S    
C15   C24   A    
C4    H19   S    
Ba2   O4    S    
C17   C19   A    
C27   H41   S    
O19   P6    D    
C3    C4    S    
C1    H12   S    
C13   C14   A    
C27   C31   A    
Ba1   Ba2   S    
C25   H43   S    
C17   C24   A    
C29   P2    S    
C36   H3    S    
Ba1   O18   S    
C8    H34   S    
C39   O2    S    
C18   C22   A    
Ba2   O6    S    
C14   C15   A    
C5    O11   S    
C21   C22   A    
C35   H42   S    
O20   P1    S    
O9    P5    S    
Ba1   P1    S    
C7    C8    S    
Ba1   O12   S    
C39   H10   S    
C40   H14   S    
C37   O20   S    
C2    O21   S    
Ba2   O9    S    
C24   H40   S    
C19   C20   A    
C33   P5    S    
O2    P2    S    
C40   H15   S    
C31   C32   A    
C3    O15   S    
C25   C32   A    
C11   H35   S    
C9    C18   A    
C3    H17   S    
C5    C6    S    
C23   H23   S    
C12   H44   S    
C37   C38   S    
C21   P8    S    
C28   P3    S    
C25   C33   A    
Ba2   O5    S    
C23   H46   S    
C4    H21   S    
C36   H2    S    
C27   C28   A    
C40   H13   S    
C22   H37   S    
C29   C30   A    
Ba2   O13   S    
O24   P3    D    
O15   P7    S    
C26   H45   S    
C15   C16   A    
Ba1   P2    S    
C30   C35   A    
O1    P1    D    
Ba1   O13   S    
C39   H11   S    
O23   P3    S    
O8    P7    S    
O22   P2    D    
O6    P8    S    
C34   H49   S    
Ba2   O8    S    
C6    H26   S    
Ba1   O1    S    
C11   C13   A    
Ba1   O23   S    
O17   P8    S    
C2    H16   S    
C1    C2    S    
O11   P5    S    
C1    O25   S    
C37   H5    S    
O13   P2    S    
C34   H48   S    
C13   P6    S    
C3    H18   S    
C33   C35   A    
O10   P5    D    
C23   H47   S    
C26   C29   A    
C7    H29   S    
Ba2   P4    S    
C2    H1    S    
C38   H9    S    
Ba2   O14   S    
C6    H28   S    
O4    P4    D    
C12   H33   S    
C4    H20   S    
C34   C36   S    
O12   P1    S    
C20   H38   S    
O21   P6    S    
C19   P4    S    
C30   C31   A    
C5    H24   S    
O3    P3    S    
O18   P6    S    
Ba2   O12   S    
Ba1   O5    S    
C38   H8    S    
C26   C28   A    
C8    H31   S    
O14   P7    D    
C14   H36   S    
C12   C23   S    
C36   H4    S    
C5    H25   S    
C10   C11   A    
C32   P7    S    
C10   C16   A    
C20   C21   A    
O25   H50   S    
C34   O7    S    
C12   O3    S    
C38   H7    S    
C37   H6    S    
C10   P1    S    
