data_mof_unit_40569.cif
_audit_creation_date              2012-12-10T17:07:48-0500
_audit_creation_method            fapswitch 2.2
_symmetry_space_group_name_H-M    P1
_symmetry_Int_Tables_number       1
_space_group_crystal_system       triclinic
_cell_length_a                    10.652318
_cell_length_b                    10.731075
_cell_length_c                    10.033574
_cell_angle_alpha                 90.032552
_cell_angle_beta                  90.681647
_cell_angle_gamma                 90.347714
_cell_volume                      1146.84358351

loop_
_atom_site_label
_atom_site_type_symbol
_atom_type_description
_atom_site_fract_x
_atom_site_fract_y
_atom_site_fract_z
_atom_type_partial_charge
C1    C     C_R   0.497224 0.262750 0.499818 0.931663
C2    C     C_3   0.878817 0.491552 0.502106 0.086381
C3    C     C_3   0.930119 0.614197 0.565874 -0.413469
C4    C     C_3   0.926676 0.485246 0.355775 -0.419388
C5    C     C_2   0.490430 0.932862 0.387840 -0.161615
C6    C     C_2   0.513286 0.868971 0.499562 -0.338195
C7    C     C_2   0.498139 0.066888 0.387096 -0.179472
C8    C     C_2   0.485564 0.131217 0.499886 -0.332295
C9    C     C_2   0.590120 0.547928 0.926456 -0.098900
C10   C     C_2   0.577512 0.565991 0.075040 0.032260
C11   C     C_R   0.258045 0.497679 0.499268 0.881126
C12   C     C_R   0.502310 0.737301 0.499924 0.931142
C13   C     C_R   0.742202 0.495547 0.500666 0.848556
C14   C     C_3   0.073482 0.383506 0.587301 0.364428
C15   C     C_3   0.928966 0.372517 0.576973 -0.163199
C16   C     C_3   0.074153 0.617285 0.560871 -0.488779
C17   C     C_3   0.069223 0.488792 0.353689 -0.445068
C18   C     C_3   0.122181 0.494109 0.498615 0.035415
H1    H     H_    0.094379 0.414067 0.691486 0.142583
H2    H     H_    0.890628 0.565535 0.296519 0.195149
H3    H     H_    0.105639 0.698845 0.501021 0.187202
H4    H     H_    0.892425 0.696035 0.510504 0.175387
H5    H     H_    0.466833 0.886702 0.294327 0.170678
H6    H     H_    0.543889 0.911881 0.592278 0.148095
H7    H     H_    0.512510 0.112569 0.291792 0.184710
H8    H     H_    0.462466 0.088581 0.594427 0.153807
H9    H     H_    0.675539 0.580316 0.879606 0.126206
H10   H     H_    0.414344 0.493491 0.894338 0.199423
H11   H     H_    0.636183 0.636202 0.122992 0.077734
H12   H     H_    0.901411 0.289586 0.516984 0.144623
H13   H     H_    0.112669 0.630754 0.663569 0.175593
H14   H     H_    0.899241 0.624189 0.670675 0.169632
H15   H     H_    0.099691 0.573312 0.297924 0.193643
H16   H     H_    0.105379 0.408873 0.296395 0.159569
H17   H     H_    0.892587 0.398418 0.305963 0.176379
N1    N     N_2   0.501360 0.501330 0.852150 -0.177254
N2    N     N_2   0.501390 0.501360 0.147810 0.056069
O1    O     O_R   0.499980 0.319060 0.613040 -0.606055
O2    O     O_R   0.500020 0.319100 0.386900 -0.611807
O3    O     O_R   0.314770 0.499960 0.613070 -0.626265
O4    O     O_R   0.314820 0.500000 0.386930 -0.665174
O5    O     O_R   0.499980 0.680900 0.613100 -0.619793
O6    O     O_R   0.500020 0.680940 0.386960 -0.628065
O7    O     O_R   0.685180 0.500000 0.613070 -0.635206
O8    O     O_R   0.685230 0.500040 0.386930 -0.624579
Zn1   Zn    Zn3+2 0.499970 0.499970 0.650990 0.935110
Zn2   Zn    Zn3+2 0.500030 0.500030 0.349010 0.950461
O9    O     O_3   0.137330 0.267360 0.579312 -0.649416
C19   C     C_3   0.136832 0.211367 0.451876 0.075065
H18   H     H_    0.220139 0.244742 0.396935 0.139601
H19   H     H_    0.050862 0.230127 0.392229 0.122981
C20   C     C_3   0.146536 0.070187 0.469051 -0.300391
H20   H     H_    0.231216 0.047607 0.529748 0.236224
H21   H     H_    0.062812 0.035286 0.522959 0.218209
C21   C     C_3   0.154323 0.003750 0.334885 -0.987187
H22   H     H_    0.067237 0.019507 0.275451 0.263596
H23   H     H_    0.165241 0.902047 0.351352 0.261499
H24   H     H_    0.236310 0.038392 0.278106 0.274017
O10   O     O_3   0.466420 0.391427 0.092626 -0.566264
C22   C     C_3   0.338601 0.371430 0.120502 0.167207
H25   H     H_    0.283548 0.459216 0.110895 0.115237
H26   H     H_    0.328966 0.333013 0.221878 0.177759
C23   C     C_3   0.284635 0.275138 0.022529 -0.401711
H27   H     H_    0.300896 0.305989 0.918464 0.242470
H28   H     H_    0.333096 0.184682 0.037680 0.227167
C24   C     C_3   0.143844 0.256384 0.041505 -0.973628
H29   H     H_    0.124714 0.222655 0.143786 0.254399
H30   H     H_    0.107975 0.186056 0.969081 0.288645
H31   H     H_    0.093191 0.345239 0.024289 0.263912
N3    N     N_3   0.877558 0.352931 0.710848 -0.458657
H32   H     H_    0.873382 0.436402 0.764033 0.193134
H33   H     H_    0.787533 0.313980 0.703478 0.217690

loop_
_geom_bond_atom_site_label_1
_geom_bond_atom_site_label_2
_ccdc_geom_bond_type
C17   C18   S    
C9    N1    D    
C24   H30   S    
C21   H22   S    
C23   H28   S    
C11   C18   S    
N1    Zn1   S    
C16   H3    S    
C14   O9    S    
N2    Zn2   S    
C1    C8    S    
C8    H8    S    
C9    C10   S    
C14   C18   S    
C2    C4    S    
C7    H7    S    
C20   C21   S    
C4    H17   S    
C19   C20   S    
C6    H6    S    
O8    Zn2   S    
C24   H29   S    
O4    Zn2   S    
C23   C24   S    
C7    C8    D    
C16   C18   S    
C16   H13   S    
C13   O8    A    
C2    C15   S    
C2    C13   S    
C10   H11   S    
H10   N1    S    
N2    O10   S    
C17   H15   S    
C1    O1    A    
C10   N2    D    
C4    C17   S    
C22   H26   S    
O9    C19   S    
O7    Zn1   S    
C11   O4    A    
C12   O6    A    
C2    C3    S    
C21   H23   S    
C6    C12   S    
C5    C6    D    
C22   C23   S    
O1    Zn1   S    
C24   H31   S    
C17   H16   S    
O3    Zn1   S    
C12   O5    A    
C11   O3    A    
C4    H2    S    
O10   C22   S    
N3    H32   S    
C20   H20   S    
C9    H9    S    
C15   H12   S    
O2    Zn2   S    
C19   H18   S    
O5    Zn1   S    
C21   H24   S    
C5    C7    S    
C15   N3    S    
C1    O2    A    
C14   C15   S    
C3    H4    S    
N3    H33   S    
C3    H14   S    
O6    Zn2   S    
C14   H1    S    
C13   O7    A    
C3    C16   S    
C23   H27   S    
C20   H21   S    
C22   H25   S    
C19   H19   S    
C5    H5    S    
