data_mof_unit_62913.cif
_audit_creation_date              2012-10-26T19:36:40-0400
_audit_creation_method            fapswitch 2.2
_symmetry_space_group_name_H-M    P1
_symmetry_Int_Tables_number       1
_space_group_crystal_system       triclinic
_cell_length_a                    17.718677
_cell_length_b                    16.436399
_cell_length_c                    10.769818
_cell_angle_alpha                 90.349079
_cell_angle_beta                  90.127829
_cell_angle_gamma                 90.002596
_cell_volume                      3136.44147981

loop_
_atom_site_label
_atom_site_type_symbol
_atom_type_description
_atom_site_fract_x
_atom_site_fract_y
_atom_site_fract_z
_atom_type_partial_charge
C1    C     C_R   0.355219 0.499997 0.500003 0.525271
C2    C     C_1   0.033867 0.499940 0.504129 -0.036519
C3    C     C_R   0.153670 0.573719 0.502502 -0.117536
C4    C     C_R   0.153693 0.426197 0.502289 -0.117351
C5    C     C_R   0.232327 0.573833 0.501292 -0.141481
C6    C     C_R   0.232350 0.426113 0.501075 -0.140992
C7    C     C_R   0.272325 0.499982 0.500654 0.003054
C8    C     C_R   0.492003 0.499801 0.260615 0.547443
C9    C     C_R   0.114466 0.499951 0.503071 0.039103
C10   C     C_R   0.546443 0.828901 0.582553 -0.143604
C11   C     C_R   0.555279 0.171620 0.566550 -0.143587
C12   C     C_3   0.574975 0.495720 0.932858 -0.007509
C13   C     C_R   0.545475 0.743067 0.580641 0.039240
C14   C     C_R   0.554013 0.257481 0.564920 0.041347
C15   C     C_R   0.454484 0.742946 0.419910 0.039108
C16   C     C_R   0.445748 0.256176 0.436712 0.040801
C17   C     C_R   0.453842 0.828788 0.418879 -0.143604
C18   C     C_R   0.445073 0.170363 0.435976 -0.142422
C19   C     C_R   0.500254 0.872996 0.500907 0.024183
C20   C     C_R   0.500389 0.126831 0.501269 0.023704
C21   C     C_1   0.500466 0.962616 0.501301 -0.031000
C22   C     C_1   0.500550 0.037212 0.501465 -0.030982
C23   C     C_R   0.846390 0.573725 0.504653 -0.116847
C24   C     C_R   0.644771 0.500000 0.500713 0.544284
C25   C     C_R   0.495336 0.500335 0.740066 0.551321
C26   C     C_3   0.447243 0.579151 0.073585 -0.084970
C27   C     C_3   0.448580 0.420226 0.069843 -0.083630
C28   C     C_3   0.452161 0.582100 0.928443 -0.085193
C29   C     C_3   0.443948 0.424985 0.924831 -0.086813
C30   C     C_3   0.570046 0.501244 0.077077 -0.230983
C31   C     C_3   0.486869 0.499772 0.122965 0.036062
C32   C     C_3   0.490747 0.501034 0.877945 0.082400
C33   C     C_3   0.367861 0.595576 0.128522 -0.401437
C34   C     C_R   0.846354 0.426208 0.504415 -0.116654
C35   C     C_3   0.374924 0.392323 0.134739 -0.408106
C36   C     C_3   0.379227 0.612318 0.862063 -0.405823
C37   C     C_3   0.363495 0.416124 0.869134 -0.395105
C38   C     C_3   0.627601 0.565111 0.885699 -0.392955
C39   C     C_3   0.616115 0.414964 0.897075 -0.395050
C40   C     C_R   0.767723 0.573840 0.503523 -0.138562
C41   C     C_R   0.767688 0.426124 0.503287 -0.137958
C42   C     C_R   0.727702 0.499990 0.502464 0.004973
C43   C     C_R   0.885592 0.499959 0.504878 0.039081
C44   C     C_1   0.966197 0.499943 0.504712 -0.036221
Cu1   Cu    Cu3+1 0.499980 0.580420 0.499990 0.898976
Cu2   Cu    Cu3+1 0.499980 0.419580 0.499990 0.903221
H1    H     H_    0.481636 0.631508 0.108065 0.127593
H2    H     H_    0.402256 0.288409 0.386959 0.104619
H3    H     H_    0.491089 0.632698 0.906914 0.126043
H4    H     H_    0.472107 0.369374 0.888721 0.134773
H5    H     H_    0.597786 0.557729 0.112364 0.117992
H6    H     H_    0.602239 0.450771 0.121256 0.121461
H7    H     H_    0.876608 0.631047 0.505071 0.105968
H8    H     H_    0.876544 0.368874 0.504648 0.105540
H9    H     H_    0.417285 0.860332 0.354403 0.091145
H10   H     H_    0.401433 0.138303 0.384866 0.091222
H11   H     H_    0.354041 0.661197 0.119662 0.110350
H12   H     H_    0.488484 0.369639 0.090724 0.127602
H13   H     H_    0.322917 0.561174 0.080569 0.134717
H14   H     H_    0.365099 0.580961 0.228713 0.147031
H15   H     H_    0.357046 0.332506 0.096276 0.116242
H16   H     H_    0.383042 0.383487 0.235265 0.152677
H17   H     H_    0.327574 0.434994 0.124709 0.130928
H18   H     H_    0.364857 0.674089 0.897078 0.117362
H19   H     H_    0.386299 0.618932 0.760758 0.173359
H20   H     H_    0.329308 0.574005 0.876270 0.128005
H21   H     H_    0.346240 0.351137 0.870569 0.119472
H22   H     H_    0.320315 0.449891 0.921845 0.131507
H23   H     H_    0.261715 0.631612 0.500947 0.120636
H24   H     H_    0.361035 0.435826 0.770980 0.153857
H25   H     H_    0.632229 0.564621 0.782978 0.153163
H26   H     H_    0.609836 0.626414 0.916988 0.103272
H27   H     H_    0.685652 0.557095 0.923063 0.126479
H28   H     H_    0.589513 0.360533 0.938316 0.104795
H29   H     H_    0.619910 0.406813 0.795033 0.153969
H30   H     H_    0.674985 0.415416 0.933030 0.124507
H31   H     H_    0.738347 0.631623 0.503266 0.122626
H32   H     H_    0.738285 0.368350 0.502836 0.119172
H33   H     H_    0.123460 0.631042 0.503005 0.105581
H34   H     H_    0.261757 0.368344 0.500555 0.118403
H35   H     H_    0.123502 0.368863 0.502625 0.105274
H36   H     H_    0.583073 0.860527 0.647415 0.091822
H37   H     H_    0.598837 0.140529 0.618624 0.091807
H38   H     H_    0.581368 0.709926 0.644072 0.113386
H39   H     H_    0.596484 0.290990 0.616250 0.110758
H40   H     H_    0.418354 0.709751 0.356344 0.112882
N1    N     N_R   0.499970 0.701220 0.499970 -0.216272
N2    N     N_R   0.499970 0.298780 0.499970 -0.214043
O1    O     O_R   0.391240 0.567930 0.499990 -0.515440
O2    O     O_R   0.391240 0.432070 0.499990 -0.515834
O3    O     O_R   0.499970 0.567910 0.317690 -0.509258
O4    O     O_R   0.499970 0.432090 0.317690 -0.505884
O5    O     O_R   0.608730 0.567880 0.500000 -0.502067
O6    O     O_R   0.608730 0.432120 0.500000 -0.506287
O7    O     O_R   0.500000 0.567910 0.682300 -0.520626
O8    O     O_R   0.500000 0.432090 0.682300 -0.512966

loop_
_geom_bond_atom_site_label_1
_geom_bond_atom_site_label_2
_ccdc_geom_bond_type
C30   H5    S    
C1    O2    A    
C27   C29   S    
C24   C42   S    
C41   C42   A    
C3    H33   S    
C16   H2    S    
Cu1   Cu2   S    
C13   H38   S    
Cu1   N1    S    
C29   C32   S    
C30   C31   S    
C11   C14   A    
C36   H20   S    
Cu2   O4    S    
C23   C40   A    
C37   H22   S    
C23   C43   A    
C39   H28   S    
C5    H23   S    
C4    H35   S    
C2    C44   T    
C33   H11   S    
C8    O4    A    
C39   H29   S    
Cu1   O1    S    
C17   H9    S    
C18   H10   S    
C25   C32   S    
C40   C42   A    
Cu1   O5    S    
C26   C31   S    
C33   H13   S    
C21   C22   T    
C12   C32   S    
C34   C41   A    
C23   H7    S    
Cu2   N2    S    
C29   H4    S    
C38   H26   S    
C11   C20   A    
C27   C31   S    
C28   C32   S    
C4    C6    A    
C41   H32   S    
C5    C7    A    
C36   H19   S    
C11   H37   S    
C10   H36   S    
C43   C44   S    
C3    C9    A    
C24   O6    A    
C28   H3    S    
C26   C33   S    
C6    H34   S    
Cu2   O6    S    
C10   C19   A    
C13   N1    A    
C35   H15   S    
C8    O3    A    
C39   H30   S    
C26   H1    S    
C15   H40   S    
C20   C22   S    
C25   O7    A    
C33   H14   S    
Cu1   O7    S    
C15   N1    A    
C15   C17   A    
C30   H6    S    
C38   H25   S    
C1    O1    A    
C12   C30   S    
C1    C7    S    
C8    C31   S    
C34   C43   A    
C14   H39   S    
C3    C5    A    
C10   C13   A    
C34   H8    S    
C6    C7    A    
Cu2   O2    S    
C26   C28   S    
C27   C35   S    
C12   C39   S    
C14   N2    A    
C24   O5    A    
C27   H12   S    
C37   H21   S    
C17   C19   A    
C35   H16   S    
C18   C20   A    
C12   C38   S    
Cu1   O3    S    
Cu2   O8    S    
C28   C36   S    
C25   O8    A    
C16   C18   A    
C29   C37   S    
C16   N2    A    
C40   H31   S    
C35   H17   S    
C4    C9    A    
C36   H18   S    
C2    C9    S    
C37   H24   S    
C19   C21   S    
C38   H27   S    
