data_mof_unit_36852.cif
_audit_creation_date              2012-12-10T18:57:09-0500
_audit_creation_method            fapswitch 2.2
_symmetry_space_group_name_H-M    P1
_symmetry_Int_Tables_number       1
_space_group_crystal_system       triclinic
_cell_length_a                    8.714264
_cell_length_b                    10.778104
_cell_length_c                    9.55228
_cell_angle_alpha                 90.23943
_cell_angle_beta                  98.031448
_cell_angle_gamma                 90.239527
_cell_volume                      888.363108851

loop_
_atom_site_label
_atom_site_type_symbol
_atom_type_description
_atom_site_fract_x
_atom_site_fract_y
_atom_site_fract_z
_atom_type_partial_charge
C1    C     C_R   0.501212 0.262796 0.499684 0.777407
C2    C     C_R   0.639737 0.934293 0.460852 -0.026850
C3    C     C_R   0.509315 0.870641 0.500202 -0.160008
C4    C     C_R   0.376761 0.936848 0.517423 0.000225
C5    C     C_3   0.264703 0.932057 0.623042 -0.178356
C6    C     C_3   0.264673 0.073858 0.619131 -0.533948
C7    C     C_R   0.624606 0.544845 0.089728 0.254538
C8    C     C_R   0.384122 0.444411 0.059336 -0.026634
C9    C     C_R   0.384057 0.444463 0.910546 -0.022805
C10   C     C_R   0.625090 0.544290 0.942434 0.278604
C11   C     C_3   0.691711 0.672496 0.945930 -0.286821
C12   C     C_R   0.203804 0.499898 0.463712 0.883977
C13   C     C_3   0.690966 0.672793 0.105507 -0.500889
C14   C     C_R   0.501212 0.737311 0.500390 0.872869
C15   C     C_R   0.796176 0.499522 0.536308 0.911361
C16   C     C_2   0.037764 0.499702 0.443843 -0.340171
C17   C     C_2   0.962212 0.499268 0.556211 -0.309330
C18   C     C_R   0.376032 0.063393 0.514213 0.117750
C19   C     C_R   0.508751 0.129693 0.497148 -0.148669
C20   C     C_R   0.639754 0.066586 0.459086 -0.084352
Cu1   Cu    Cu3+1 0.499990 0.499980 0.640670 0.979697
Cu2   Cu    Cu3+1 0.500010 0.500020 0.359330 0.976804
H1    H     H_    0.022429 0.499093 0.663865 0.195401
H2    H     H_    0.151592 0.889874 0.578218 0.211081
H3    H     H_    0.289033 0.401058 0.102531 0.154590
N1    N     N_R   0.500980 0.500930 0.148050 -0.198918
N2    N     N_R   0.500990 0.500890 0.852140 -0.205579
O1    O     O_R   0.500000 0.319640 0.618810 -0.591430
O2    O     O_R   0.500020 0.319680 0.381230 -0.583193
O3    O     O_R   0.274830 0.499980 0.591380 -0.572876
O4    O     O_R   0.274850 0.500020 0.353800 -0.581491
O5    O     O_R   0.499980 0.680320 0.618770 -0.576530
O6    O     O_R   0.500000 0.680360 0.381190 -0.579187
O7    O     O_R   0.725150 0.499980 0.646200 -0.585117
O8    O     O_R   0.725170 0.500020 0.408620 -0.580619
H4    H     H_    0.977515 0.499974 0.336190 0.184758
H5    H     H_    0.288923 0.401096 0.842764 0.140730
C21   C     C_2   0.851265 0.676848 0.902381 0.454303
H6    H     H_    0.878573 0.748064 0.829638 0.121449
O9    O     O_2   0.950686 0.602015 0.947924 -0.543664
H7    H     H_    0.610953 0.740975 0.889536 0.157936
H8    H     H_    0.807707 0.673905 0.169749 0.213181
H9    H     H_    0.608376 0.741004 0.139987 0.206009
C22   C     C_2   0.778225 0.140422 0.432419 0.355155
H10   H     H_    0.796612 0.233007 0.476513 0.061601
O10   O     O_2   0.871052 0.101272 0.358710 -0.578538
C23   C     C_2   0.778471 0.863244 0.434281 0.363692
H11   H     H_    0.832204 0.880099 0.340448 0.132269
O11   O     O_2   0.834251 0.785042 0.518138 -0.593174
C24   C     C_2   0.332720 0.881100 0.764346 0.433722
H12   H     H_    0.441206 0.917884 0.818724 0.056375
O12   O     O_2   0.266268 0.798073 0.818707 -0.521025
H13   H     H_    0.151719 0.112813 0.570959 0.222934
H14   H     H_    0.316911 0.120294 0.718910 0.191757

loop_
_geom_bond_atom_site_label_1
_geom_bond_atom_site_label_2
_ccdc_geom_bond_type
C10   N2    A    
C8    C9    A    
C7    C10   A    
C24   O12   D    
Cu2   O8    S    
Cu2   O2    S    
C2    C23   S    
C1    O1    A    
C8    N1    A    
Cu1   O3    S    
C15   O7    A    
C19   C20   A    
C7    C13   S    
C4    C18   A    
Cu2   O4    S    
C14   O6    A    
C9    H5    S    
C2    C3    A    
Cu1   N2    S    
C23   O11   D    
Cu1   Cu2   S    
C16   H4    S    
C21   O9    D    
C8    H3    S    
C5    H2    S    
C17   H1    S    
C3    C14   S    
C7    N1    A    
C6    H14   S    
C1    O2    A    
C13   H8    S    
C20   C22   S    
Cu1   O1    S    
C22   O10   D    
C11   H7    S    
C12   O4    A    
C5    C6    S    
C6    C18   S    
Cu1   O5    S    
C5    C24   S    
C1    C19   S    
C11   C13   S    
C10   C11   S    
C6    H13   S    
C2    C20   A    
C3    C4    A    
C23   H11   S    
C13   H9    S    
C21   H6    S    
C22   H10   S    
C9    N2    A    
C18   C19   A    
Cu2   N1    S    
C15   O8    A    
C15   C17   S    
Cu2   O6    S    
C4    C5    S    
C11   C21   S    
Cu1   O7    S    
C24   H12   S    
C12   O3    A    
C12   C16   S    
C14   O5    A    
C16   C17   D    
