data_mof_unit_66017.cif
_audit_creation_date              2013-03-05T16:06:58-0500
_audit_creation_method            fapswitch 2.2
_symmetry_space_group_name_H-M    P1
_symmetry_Int_Tables_number       1
_space_group_crystal_system       triclinic
_cell_length_a                    38.873809
_cell_length_b                    45.224504
_cell_length_c                    29.650424
_cell_angle_alpha                 89.808093
_cell_angle_beta                  130.198678
_cell_angle_gamma                 90.267683
_cell_volume                      39814.6497537

loop_
_atom_site_label
_atom_site_type_symbol
_atom_site_description
_atom_site_fract_x
_atom_site_fract_y
_atom_site_fract_z
_atom_type_partial_charge
O1    O     O_R   0.297670 0.237210 0.095410 -0.573311
O2    O     O_R   0.702330 0.237210 0.904590 -0.570328
O3    O     O_R   0.797670 0.737210 0.095410 -0.572568
O4    O     O_R   0.202330 0.737210 0.904590 -0.575518
O5    O     O_R   0.262670 0.202220 0.025400 -0.602465
O6    O     O_R   0.737330 0.202220 0.974600 -0.596653
O7    O     O_R   0.762670 0.702220 0.025400 -0.600131
O8    O     O_R   0.237330 0.702220 0.974600 -0.597818
C1    C     C_R   0.290103 0.209818 0.080235 0.784807
C2    C     C_R   0.709821 0.209784 0.919809 0.785987
C3    C     C_R   0.789959 0.709807 0.080201 0.784335
C4    C     C_R   0.209970 0.709800 0.919812 0.771713
O9    O     O_R   0.317380 0.267440 0.034950 -0.540720
O10   O     O_R   0.682620 0.267440 0.965050 -0.533911
O11   O     O_R   0.817380 0.767440 0.034950 -0.543195
O12   O     O_R   0.182620 0.767440 0.965050 -0.548331
O13   O     O_R   0.282380 0.232450 0.964940 -0.600598
O14   O     O_R   0.717620 0.232450 0.035060 -0.600106
O15   O     O_R   0.782380 0.732450 0.964940 -0.598671
O16   O     O_R   0.217620 0.732450 0.035060 -0.596919
C5    C     C_R   0.316908 0.249299 0.000946 0.847369
C6    C     C_R   0.683663 0.249814 0.000414 0.852841
C7    C     C_R   0.816675 0.749549 0.000302 0.858539
C8    C     C_R   0.183441 0.749509 0.999657 0.866559
Cu1   Cu    Cu3+1 0.270670 0.270660 0.041400 1.075984
Cu2   Cu    Cu3+1 0.729330 0.270660 0.958600 1.055458
Cu3   Cu    Cu3+1 0.770670 0.770660 0.041400 1.074663
Cu4   Cu    Cu3+1 0.229330 0.770660 0.958600 1.037294
Cu5   Cu    Cu3+1 0.229220 0.229230 0.958490 0.992398
Cu6   Cu    Cu3+1 0.770780 0.229230 0.041510 1.019801
Cu7   Cu    Cu3+1 0.729220 0.729230 0.958490 0.989537
Cu8   Cu    Cu3+1 0.270780 0.729230 0.041510 1.031332
O17   O     O_R   0.237220 0.297670 0.974490 -0.540532
O18   O     O_R   0.762780 0.297670 0.025510 -0.557857
O19   O     O_R   0.737220 0.797670 0.974490 -0.542677
O20   O     O_R   0.262780 0.797670 0.025510 -0.561162
O21   O     O_R   0.202220 0.262680 0.904480 -0.576768
O22   O     O_R   0.797780 0.262680 0.095520 -0.557550
O23   O     O_R   0.702220 0.762680 0.904480 -0.576268
O24   O     O_R   0.297780 0.762680 0.095520 -0.555234
O25   O     O_R   0.217520 0.267440 0.034950 -0.567550
O26   O     O_R   0.782480 0.267440 0.965050 -0.603093
O27   O     O_R   0.717520 0.767440 0.034950 -0.572697
O28   O     O_R   0.282480 0.767440 0.965050 -0.602223
O29   O     O_R   0.182510 0.232450 0.964930 -0.584047
O30   O     O_R   0.817490 0.232450 0.035070 -0.540795
O31   O     O_R   0.682510 0.732450 0.964930 -0.579306
O32   O     O_R   0.317490 0.732450 0.035070 -0.543162
C9    C     C_R   0.209915 0.290067 0.919760 0.919822
C10   C     C_R   0.790064 0.290074 0.080248 0.899197
C11   C     C_R   0.709999 0.790067 0.919760 0.915301
C12   C     C_R   0.290204 0.790073 0.080248 0.919739
C13   C     C_R   0.183809 0.250005 0.000078 0.866736
C14   C     C_R   0.815608 0.249452 0.998333 0.855543
C15   C     C_R   0.683848 0.749969 0.000183 0.868076
C16   C     C_R   0.315649 0.749488 0.998421 0.857109
C17   C     C_R   0.376096 0.222734 0.002977 0.044087
C18   C     C_R   0.627963 0.223868 0.006470 0.040521
C19   C     C_R   0.873852 0.722868 0.998744 0.039518
C20   C     C_R   0.121860 0.723782 0.992353 0.097609
C21   C     C_R   0.411394 0.225001 0.999710 0.067288
C22   C     C_R   0.589946 0.225815 0.003669 0.052789
C23   C     C_R   0.913190 0.724338 0.004330 0.052944
C24   C     C_R   0.088285 0.724987 0.998246 0.055212
C25   C     C_R   0.427231 0.253517 0.999923 -0.166910
C26   C     C_R   0.572327 0.253975 0.999874 -0.150841
C27   C     C_R   0.931604 0.752277 0.008119 -0.153441
C28   C     C_R   0.075832 0.752749 0.005854 -0.164541
C29   C     C_R   0.406698 0.279287 0.998665 0.236635
C30   C     C_R   0.590712 0.279802 0.996448 0.235726
C31   C     C_R   0.911690 0.778493 0.006806 0.235615
C32   C     C_R   0.098771 0.778695 0.012354 0.234031
C33   C     C_R   0.370317 0.277283 0.997754 0.225521
C34   C     C_R   0.627012 0.278003 0.997031 0.223062
C35   C     C_R   0.873766 0.777215 0.003048 0.218045
C36   C     C_R   0.134522 0.777186 0.011596 0.213895
C37   C     C_R   0.355070 0.249442 0.000571 -0.250762
C38   C     C_R   0.645900 0.250291 0.001785 -0.237105
C39   C     C_R   0.854959 0.749634 0.999978 -0.239959
C40   C     C_R   0.146214 0.749935 0.001532 -0.244015
N1    N     N_R   0.457306 0.259098 0.948460 -0.194293
N2    N     N_R   0.491588 0.259082 0.948455 -0.199518
N3    N     N_R   0.961614 0.757127 0.956702 -0.208059
N4    N     N_R   0.995619 0.757208 0.956209 -0.192549
C41   C     C_R   0.534592 0.256626 0.999969 0.486465
C42   C     C_R   0.465014 0.256763 0.000004 0.484811
C43   C     C_R   0.038733 0.754717 0.007331 0.493017
C44   C     C_R   0.969577 0.754329 0.008286 0.488026
N5    N     N_R   0.542254 0.254757 0.051481 -0.203762
N6    N     N_R   0.508036 0.254741 0.051511 -0.199931
N7    N     N_R   0.046791 0.752309 0.059060 -0.208777
N8    N     N_R   0.012741 0.752095 0.059530 -0.197719
C45   C     C_R   0.959976 0.459852 0.419802 0.822145
C46   C     C_R   0.039919 0.459851 0.580211 0.820651
C47   C     C_R   0.459977 0.959851 0.419802 0.821881
C48   C     C_R   0.539912 0.959845 0.580201 0.821045
C49   C     C_3   0.346733 0.111869 0.254034 0.048974
C50   C     C_3   0.635759 0.128030 0.715258 0.051389
C51   C     C_3   0.850665 0.616873 0.264138 0.051609
C52   C     C_3   0.140258 0.624965 0.720398 0.050003
C53   C     C_3   0.343913 0.113086 0.199375 -0.248229
C54   C     C_3   0.669058 0.121976 0.782717 -0.252409
C55   C     C_3   0.837202 0.614287 0.202346 -0.248441
C56   C     C_3   0.168966 0.619683 0.787699 -0.252907
H1    H     H_    0.317139 0.102760 0.155769 0.157416
H2    H     H_    0.706082 0.119397 0.810793 0.156721
H3    H     H_    0.804852 0.605353 0.162016 0.157078
H4    H     H_    0.205733 0.615340 0.819526 0.157898
H5    H     H_    0.411164 0.090083 0.230160 0.141741
H6    H     H_    0.645351 0.075980 0.794389 0.146847
H7    H     H_    0.892283 0.582671 0.216247 0.143735
H8    H     H_    0.137249 0.576846 0.795767 0.144283
C57   C     C_1   0.312639 0.187550 0.125402 -0.143766
C58   C     C_1   0.687111 0.187317 0.875000 -0.136657
C59   C     C_1   0.812706 0.687432 0.125121 -0.127513
C60   C     C_1   0.187408 0.687422 0.874878 -0.145616
C61   C     C_1   0.438679 0.062973 0.376016 -0.157963
C62   C     C_1   0.561877 0.062725 0.624414 -0.157767
C63   C     C_1   0.938652 0.562792 0.375616 -0.157570
C64   C     C_1   0.062114 0.562427 0.625140 -0.157860
C65   C     C_3   0.357840 0.145042 0.264601 0.352550
C66   C     C_3   0.612197 0.151643 0.723796 0.352017
C67   C     C_3   0.868325 0.648305 0.270595 0.351935
C68   C     C_3   0.116940 0.651143 0.723599 0.351154
C69   C     C_3   0.355051 0.146596 0.210587 0.032865
C70   C     C_3   0.644937 0.145937 0.790601 0.027043
C71   C     C_3   0.855109 0.646100 0.209533 0.027916
C72   C     C_3   0.145194 0.646255 0.790161 0.027180
C73   C     C_3   0.408803 0.138662 0.305671 -0.236152
C74   C     C_3   0.578673 0.128636 0.714313 -0.236803
C75   C     C_3   0.915917 0.636590 0.300711 -0.236383
C76   C     C_3   0.079336 0.630837 0.710045 -0.240646
C77   C     C_3   0.397460 0.105279 0.293830 0.079743
C78   C     C_3   0.603113 0.104778 0.707040 0.079323
C79   C     C_3   0.897768 0.604883 0.292937 0.079278
C80   C     C_3   0.103406 0.604383 0.708102 0.079277
C81   C     C_3   0.405813 0.139794 0.250910 0.092066
C82   C     C_3   0.612136 0.122505 0.781673 0.092710
C83   C     C_3   0.902270 0.633911 0.238843 0.092154
C84   C     C_3   0.108267 0.625544 0.777311 0.097617
C85   C     C_3   0.395244 0.106235 0.239876 -0.164015
C86   C     C_3   0.635988 0.098296 0.773972 -0.159360
C87   C     C_3   0.884877 0.601965 0.231762 -0.164027
C88   C     C_3   0.131662 0.598722 0.774940 -0.156782
C89   C     C_1   0.331792 0.169084 0.163826 -0.009491
C90   C     C_1   0.668060 0.168573 0.837116 -0.004353
C91   C     C_1   0.831875 0.668757 0.163115 -0.010193
C92   C     C_1   0.168346 0.668857 0.836686 0.001875
C93   C     C_1   0.420364 0.082136 0.339081 -0.034883
C94   C     C_1   0.580386 0.081729 0.661639 -0.034964
C95   C     C_1   0.920504 0.581828 0.338404 -0.034723
C96   C     C_1   0.080645 0.581288 0.662702 -0.034229
H9    H     H_    0.435227 0.149117 0.349275 0.165908
H10   H     H_    0.541678 0.131546 0.685886 0.163160
H11   H     H_    0.947987 0.645751 0.341130 0.165112
H12   H     H_    0.042648 0.635447 0.678093 0.164615
C97   C     C_R   0.109307 0.268056 0.961879 0.304543
C98   C     C_R   0.897604 0.252263 0.051018 0.295864
C99   C     C_R   0.607793 0.766376 0.958769 0.304227
C100  C     C_R   0.397565 0.753431 0.051088 0.296612
C101  C     C_R   0.072669 0.268137 0.961234 -0.026478
C102  C     C_R   0.934589 0.252142 0.052395 -0.031167
C103  C     C_R   0.571225 0.766642 0.958274 -0.027271
C104  C     C_R   0.434582 0.753540 0.052506 -0.031264
C105  C     C_R   0.073614 0.249253 0.000462 -0.053452
C106  C     C_R   0.926953 0.248739 0.999009 -0.052984
C107  C     C_R   0.573521 0.749456 0.000369 -0.053112
C108  C     C_R   0.427167 0.749108 0.999481 -0.052323
C109  C     C_R   0.111151 0.230363 0.040032 0.077556
C110  C     C_R   0.882374 0.245692 0.944296 0.073864
C111  C     C_R   0.612484 0.732280 0.042986 0.077324
C112  C     C_R   0.382766 0.744974 0.945033 0.074304
C113  C     C_R   0.148142 0.230946 0.040802 0.002824
C114  C     C_R   0.845119 0.246997 0.943033 0.024547
C115  C     C_R   0.649661 0.733091 0.044164 0.006510
C116  C     C_R   0.345438 0.746254 0.943605 0.024475
C117  C     C_R   0.146655 0.249779 0.001439 -0.189716
C118  C     C_R   0.853180 0.249714 0.997022 -0.209837
C119  C     C_R   0.646613 0.749889 0.001432 -0.190834
C120  C     C_R   0.353296 0.749846 0.997281 -0.208330
N9    N     N_R   0.010026 0.224488 0.984716 -0.257686
N10   N     N_R   0.990634 0.273678 0.015035 -0.249564
N11   N     N_R   0.511359 0.724373 0.987622 -0.257147
N12   N     N_R   0.489460 0.774386 0.012581 -0.249903
N13   N     N_R   0.976249 0.224163 0.985610 -0.258523
N14   N     N_R   0.025180 0.273767 0.015628 -0.249215
N15   N     N_R   0.477696 0.724121 0.988745 -0.258033
N16   N     N_R   0.523861 0.774459 0.012868 -0.249698
C121  C     C_R   0.965658 0.248824 0.000260 0.421330
C122  C     C_R   0.035340 0.249218 0.000115 0.421790
C123  C     C_R   0.465871 0.749172 0.000747 0.420775
C124  C     C_R   0.535256 0.749487 0.000017 0.421298
C125  C     C_3   0.151633 0.384977 0.741724 0.338906
C126  C     C_3   0.845570 0.388495 0.250486 0.341403
C127  C     C_3   0.652061 0.885651 0.742989 0.339613
C128  C     C_3   0.345670 0.888406 0.250592 0.340622
C129  C     C_3   0.137149 0.352243 0.732858 -0.257032
C130  C     C_3   0.854709 0.354975 0.261344 -0.253807
C131  C     C_3   0.638499 0.852709 0.733701 -0.258358
C132  C     C_3   0.354937 0.854897 0.261431 -0.248592
H13   H     H_    0.147566 0.334150 0.718756 0.196156
H14   H     H_    0.838129 0.339097 0.270678 0.196429
H15   H     H_    0.650021 0.835021 0.720333 0.195438
H16   H     H_    0.338457 0.838961 0.270829 0.198917
C133  C     C_1   0.187622 0.312469 0.875060 -0.064028
C134  C     C_1   0.812293 0.312485 0.124958 -0.084353
C135  C     C_1   0.687728 0.812468 0.875058 -0.067059
C136  C     C_1   0.312461 0.812482 0.124963 -0.071434
C137  C     C_1   0.061763 0.437380 0.624897 -0.093446
C138  C     C_1   0.937854 0.437385 0.375143 -0.094345
C139  C     C_1   0.561731 0.937357 0.624857 -0.093516
C140  C     C_1   0.437864 0.937381 0.375145 -0.094652
C141  C     C_3   0.161318 0.386528 0.800911 -0.176942
C142  C     C_3   0.843556 0.387453 0.196879 -0.185783
C143  C     C_3   0.660459 0.886744 0.801344 -0.178756
C144  C     C_3   0.343558 0.887433 0.196903 -0.185656
C145  C     C_3   0.145574 0.353998 0.791407 0.039599
C146  C     C_3   0.854058 0.354029 0.208621 0.042185
C147  C     C_3   0.645626 0.853984 0.791381 0.040262
C148  C     C_3   0.354185 0.854024 0.208623 0.040981
C149  C     C_3   0.111851 0.396856 0.766956 -0.285866
C150  C     C_3   0.895107 0.394211 0.238902 -0.287710
C151  C     C_3   0.610507 0.896341 0.766031 -0.285700
C152  C     C_3   0.395082 0.894273 0.238821 -0.287860
C153  C     C_3   0.103102 0.395443 0.707992 -0.041134
C154  C     C_3   0.896146 0.395471 0.292064 -0.040056
C155  C     C_3   0.603055 0.895408 0.707932 -0.040965
C156  C     C_3   0.396219 0.895463 0.292070 -0.040272
C157  C     C_3   0.096748 0.364035 0.758282 0.044067
C158  C     C_3   0.904974 0.360539 0.249786 0.052144
C159  C     C_3   0.596316 0.863294 0.756911 0.045639
C160  C     C_3   0.405073 0.860613 0.249682 0.050537
C161  C     C_3   0.088547 0.362941 0.700235 0.312248
C162  C     C_3   0.905565 0.362118 0.302006 0.310338
C163  C     C_3   0.589386 0.862682 0.699729 0.312063
C164  C     C_3   0.405763 0.862122 0.301988 0.308793
C165  C     C_1   0.168778 0.331246 0.837386 0.034892
C166  C     C_1   0.831044 0.331267 0.162633 0.028535
C167  C     C_1   0.668873 0.831242 0.837376 0.032875
C168  C     C_1   0.331201 0.831263 0.162637 0.032110
C169  C     C_1   0.080238 0.418471 0.662392 0.103544
C170  C     C_1   0.919143 0.418484 0.337664 0.103427
C171  C     C_1   0.580183 0.918438 0.662332 0.103353
C172  C     C_1   0.419178 0.918478 0.337669 0.103529
H17   H     H_    0.101365 0.415066 0.780750 0.169676
H18   H     H_    0.911719 0.410228 0.229840 0.169042
H19   H     H_    0.598916 0.914146 0.779092 0.169522
H20   H     H_    0.411592 0.910347 0.229692 0.168952
H21   H     H_    0.192005 0.396115 0.842526 0.184830
H22   H     H_    0.817242 0.397852 0.153278 0.180766
H23   H     H_    0.690463 0.896540 0.843371 0.183843
H24   H     H_    0.317164 0.897819 0.153320 0.180571
O33   O     O_R   0.501310 0.030200 0.560470 -0.581036
O34   O     O_R   0.498690 0.030200 0.439530 -0.585396
O35   O     O_R   0.001310 0.530200 0.560470 -0.581907
O36   O     O_R   0.998690 0.530200 0.439530 -0.584109
O37   O     O_R   0.559100 0.030200 0.560470 -0.578690
O38   O     O_R   0.440900 0.030200 0.439530 -0.573984
O39   O     O_R   0.059100 0.530200 0.560470 -0.578099
O40   O     O_R   0.940900 0.530200 0.439530 -0.575556
C173  C     C_R   0.539916 0.040129 0.580078 0.815655
C174  C     C_R   0.460237 0.040187 0.420017 0.816534
C175  C     C_R   0.040004 0.540043 0.580292 0.815798
C176  C     C_R   0.960214 0.540149 0.419929 0.817576
Cu9   Cu    Cu3+1 0.465750 0.999970 0.499990 1.017214
Cu10  Cu    Cu3+1 0.534250 0.999970 0.500010 1.008939
Cu11  Cu    Cu3+1 0.965750 0.499970 0.499990 1.015052
Cu12  Cu    Cu3+1 0.034250 0.499970 0.500010 1.010565
O41   O     O_R   0.940840 0.469740 0.439520 -0.554920
O42   O     O_R   0.059160 0.469740 0.560480 -0.555636
O43   O     O_R   0.440840 0.969740 0.439520 -0.554909
O44   O     O_R   0.559160 0.969740 0.560480 -0.555487
O45   O     O_R   0.998640 0.469740 0.439520 -0.582548
O46   O     O_R   0.001360 0.469740 0.560480 -0.580749
O47   O     O_R   0.498640 0.969740 0.439520 -0.582671
O48   O     O_R   0.501360 0.969740 0.560480 -0.580912
C177  C     C_3   0.359103 0.192637 0.006720 -0.346763
C178  C     C_3   0.395203 0.171522 0.056389 -0.379381
C179  C     C_3   0.376962 0.152302 0.079463 -0.859199
H25   H     H_    0.368709 0.166300 0.102009 0.250369
H26   H     H_    0.346198 0.140230 0.042424 0.264070
H27   H     H_    0.402726 0.135805 0.111385 0.242141
H28   H     H_    0.405459 0.155704 0.038454 0.224526
H29   H     H_    0.424918 0.184182 0.093919 0.232182
H30   H     H_    0.335206 0.195861 0.014493 0.219272
H31   H     H_    0.338953 0.181250 0.963396 0.180794
C180  C     C_3   0.649576 0.193922 0.015134 -0.371963
C181  C     C_3   0.639133 0.182906 0.958557 -0.336399
C182  C     C_3   0.666637 0.155385 0.971070 -0.821746
H32   H     H_    0.703051 0.159507 0.007823 0.269566
H33   H     H_    0.655312 0.136472 0.982672 0.246587
H34   H     H_    0.662258 0.149669 0.931407 0.234376
H35   H     H_    0.602683 0.177516 0.924973 0.211784
H36   H     H_    0.646846 0.200147 0.939573 0.213485
H37   H     H_    0.686279 0.195152 0.052445 0.222789
H38   H     H_    0.638966 0.176450 0.029985 0.191575
C183  C     C_3   0.852206 0.692964 0.991401 -0.372024
C184  C     C_3   0.863854 0.682396 0.049035 -0.345933
C185  C     C_3   0.838885 0.653732 0.039162 -0.827793
H39   H     H_    0.801948 0.656914 0.004707 0.270115
H40   H     H_    0.849684 0.635787 0.025254 0.248107
H41   H     H_    0.846288 0.646950 0.080583 0.235709
H42   H     H_    0.900714 0.678509 0.082792 0.213365
H43   H     H_    0.854732 0.699427 0.066477 0.211543
H44   H     H_    0.815379 0.693817 0.954960 0.223616
H45   H     H_    0.862068 0.675449 0.975887 0.193150
C186  C     C_3   0.128995 0.695260 0.971876 -0.378576
C187  C     C_3   0.090399 0.689317 0.905731 -0.412378
C188  C     C_3   0.088246 0.712411 0.866271 -0.725745
H46   H     H_    0.079431 0.734405 0.872742 0.263299
H47   H     H_    0.121000 0.714005 0.876292 0.240606
H48   H     H_    0.062008 0.705960 0.819266 0.238887
H49   H     H_    0.095804 0.667246 0.895007 0.209245
H50   H     H_    0.057294 0.688725 0.894999 0.227228
H51   H     H_    0.160764 0.695147 0.979359 0.202889
H52   H     H_    0.132549 0.676259 0.998345 0.170118
N17   N     N_R   0.337852 0.165984 0.279156 0.114665
O49   O     O_R   0.343745 0.162526 0.327326 -0.344042
O50   O     O_R   0.314375 0.188238 0.244578 -0.369235
N18   N     N_R   0.598571 0.180507 0.695153 0.117267
O51   O     O_R   0.569935 0.182211 0.637843 -0.343507
O52   O     O_R   0.614541 0.204623 0.726371 -0.356210
N19   N     N_R   0.859608 0.673311 0.292800 0.116419
O53   O     O_R   0.873498 0.672605 0.346125 -0.341212
O54   O     O_R   0.838001 0.696353 0.259749 -0.360786
N20   N     N_R   0.108067 0.679469 0.694339 0.115848
O55   O     O_R   0.083625 0.680439 0.637300 -0.342075
O56   O     O_R   0.122785 0.703935 0.724444 -0.363509
N21   N     N_R   0.108518 0.286303 0.921459 0.089678
O57   O     O_R   0.137399 0.307786 0.941194 -0.390453
O58   O     O_R   0.079992 0.280797 0.865093 -0.383607
N22   N     N_R   0.905032 0.255710 0.104873 0.116260
O59   O     O_R   0.890853 0.279278 0.113453 -0.399064
O60   O     O_R   0.924654 0.234875 0.144501 -0.350934
N23   N     N_R   0.605696 0.782903 0.915591 0.092883
O61   O     O_R   0.633041 0.804995 0.931890 -0.397551
O62   O     O_R   0.577337 0.775370 0.860194 -0.377103
N24   N     N_R   0.404756 0.757720 0.104614 0.115100
O63   O     O_R   0.389409 0.781266 0.111395 -0.404325
O64   O     O_R   0.425524 0.737711 0.145889 -0.351342
C189  C     C_3   0.032674 0.288350 0.918091 -0.346519
C190  C     C_3   0.992980 0.271125 0.864258 -0.321394
C191  C     C_3   0.955318 0.291991 0.817915 -0.830627
H53   H     H_    0.942470 0.304448 0.836584 0.256902
H54   H     H_    0.967791 0.307860 0.802615 0.265206
H55   H     H_    0.927222 0.279019 0.779287 0.248685
H56   H     H_    0.004479 0.258496 0.844042 0.257189
H57   H     H_    0.979358 0.255171 0.877867 0.224217
H58   H     H_    0.021976 0.299925 0.940066 0.206184
H59   H     H_    0.042170 0.306561 0.902768 0.237733
C192  C     C_3   0.982207 0.255596 0.111351 -0.349807
C193  C     C_3   0.006258 0.225686 0.134693 -0.326139
C194  C     C_3   0.052176 0.228875 0.196150 -0.812712
H60   H     H_    0.073935 0.244181 0.194807 0.255473
H61   H     H_    0.048285 0.237524 0.227658 0.272720
H62   H     H_    0.068756 0.206940 0.212101 0.247202
H63   H     H_    0.985496 0.209845 0.137014 0.256787
H64   H     H_    0.011121 0.216394 0.104537 0.225520
H65   H     H_    0.002163 0.271256 0.107461 0.205814
H66   H     H_    0.981852 0.265923 0.144946 0.238950
C195  C     C_3   0.529937 0.785303 0.912393 -0.348114
C196  C     C_3   0.491539 0.766276 0.860969 -0.320702
C197  C     C_3   0.452810 0.785522 0.811505 -0.828110
H67   H     H_    0.439018 0.798834 0.828029 0.256201
H68   H     H_    0.464556 0.800604 0.794202 0.266358
H69   H     H_    0.425612 0.771265 0.774756 0.248882
H70   H     H_    0.504072 0.752786 0.842965 0.258201
H71   H     H_    0.478659 0.751014 0.876547 0.223887
H72   H     H_    0.518293 0.797540 0.932626 0.205195
H73   H     H_    0.538350 0.802977 0.894816 0.237292
C198  C     C_3   0.481969 0.758415 0.111066 -0.350643
C199  C     C_3   0.507479 0.729122 0.137248 -0.323982
C200  C     C_3   0.552915 0.733750 0.198689 -0.815245
H74   H     H_    0.574061 0.749253 0.196522 0.255225
H75   H     H_    0.548120 0.742846 0.229047 0.272572
H76   H     H_    0.570660 0.712262 0.216635 0.246912
H77   H     H_    0.487297 0.713197 0.140495 0.257335
H78   H     H_    0.513243 0.719321 0.108333 0.225317
H79   H     H_    0.501174 0.773978 0.105663 0.204737
H80   H     H_    0.481010 0.769521 0.143561 0.238602
C201  C     C_3   0.112713 0.210644 0.083350 -0.403573
C202  C     C_3   0.130406 0.227837 0.139153 -0.345903
C203  C     C_3   0.137052 0.207426 0.185287 -0.815242
H81   H     H_    0.104869 0.196229 0.166843 0.257315
H82   H     H_    0.162898 0.190460 0.199487 0.263767
H83   H     H_    0.148600 0.220537 0.224491 0.252671
H84   H     H_    0.163165 0.238483 0.158493 0.233865
H85   H     H_    0.106092 0.245454 0.127767 0.234191
H86   H     H_    0.079431 0.201023 0.063199 0.218986
H87   H     H_    0.133418 0.190665 0.095451 0.208631
C204  C     C_3   0.874568 0.242043 0.886971 -0.399236
C205  C     C_3   0.871014 0.272205 0.860526 -0.349100
C206  C     C_3   0.857221 0.268800 0.799554 -0.833959
H88   H     H_    0.881621 0.254523 0.802197 0.261295
H89   H     H_    0.823064 0.258787 0.768287 0.257226
H90   H     H_    0.856587 0.290874 0.782474 0.249743
H91   H     H_    0.845768 0.286203 0.856519 0.225092
H92   H     H_    0.904115 0.283710 0.890111 0.235022
H93   H     H_    0.901454 0.229132 0.893502 0.218166
H94   H     H_    0.844551 0.228235 0.854468 0.200423
C207  C     C_3   0.615115 0.714004 0.088622 -0.401564
C208  C     C_3   0.631104 0.732979 0.141829 -0.345819
C209  C     C_3   0.639777 0.713972 0.190852 -0.826559
H95   H     H_    0.608779 0.701653 0.174166 0.259312
H96   H     H_    0.667262 0.697970 0.207393 0.259634
H97   H     H_    0.650004 0.728300 0.228085 0.252319
H98   H     H_    0.662732 0.744785 0.159505 0.231099
H99   H     H_    0.605094 0.749743 0.127997 0.235152
H100  H     H_    0.582485 0.703592 0.069468 0.218206
H101  H     H_    0.637324 0.694568 0.103490 0.209017
C210  C     C_3   0.375211 0.739999 0.888169 -0.398611
C211  C     C_3   0.370804 0.769490 0.859184 -0.349626
C212  C     C_3   0.356314 0.764593 0.798153 -0.833592
H102  H     H_    0.380711 0.750016 0.801327 0.261297
H103  H     H_    0.322354 0.754234 0.768311 0.258112
H104  H     H_    0.354921 0.786149 0.779010 0.250178
H105  H     H_    0.345554 0.783795 0.854644 0.225436
H106  H     H_    0.403732 0.781252 0.887336 0.235504
H107  H     H_    0.402534 0.726985 0.895881 0.217315
H108  H     H_    0.345542 0.725693 0.856760 0.201625
C213  C     C_3   0.188490 0.210622 0.081759 -0.372020
C214  C     C_3   0.179296 0.180241 0.052718 -0.348117
C215  C     C_3   0.208920 0.156372 0.098489 -0.843663
H109  H     H_    0.244931 0.162754 0.126895 0.280055
H110  H     H_    0.199563 0.152977 0.126487 0.254631
H111  H     H_    0.203906 0.135256 0.075876 0.241742
H112  H     H_    0.143515 0.173597 0.027248 0.226937
H113  H     H_    0.185795 0.181468 0.021348 0.235785
H114  H     H_    0.219646 0.220033 0.093127 0.190332
H115  H     H_    0.197117 0.208727 0.125361 0.225891
C216  C     C_3   0.797038 0.243801 0.884478 -0.389154
C217  C     C_3   0.781277 0.211563 0.874017 -0.380552
C218  C     C_3   0.734818 0.207695 0.813623 -0.790722
H116  H     H_    0.709994 0.222425 0.809211 0.290544
H117  H     H_    0.736067 0.212831 0.778029 0.249696
H118  H     H_    0.723693 0.184453 0.808702 0.235617
H119  H     H_    0.805469 0.197009 0.876608 0.224197
H120  H     H_    0.779879 0.204449 0.908690 0.212109
H121  H     H_    0.773114 0.258216 0.882074 0.224651
H122  H     H_    0.793747 0.252122 0.846725 0.203071
C219  C     C_3   0.692028 0.715151 0.089440 -0.384670
C220  C     C_3   0.687197 0.683748 0.066316 -0.345907
C221  C     C_3   0.718214 0.662169 0.116767 -0.860237
H123  H     H_    0.753189 0.670783 0.147120 0.281494
H124  H     H_    0.706368 0.658807 0.141924 0.252362
H125  H     H_    0.717851 0.640563 0.098794 0.243210
H126  H     H_    0.652012 0.675574 0.040179 0.229080
H127  H     H_    0.695478 0.684022 0.036779 0.230986
H128  H     H_    0.722407 0.725697 0.100308 0.195123
H129  H     H_    0.699770 0.714853 0.132588 0.221656
C222  C     C_3   0.297536 0.742179 0.885294 -0.390330
C223  C     C_3   0.282916 0.709744 0.876418 -0.389380
C224  C     C_3   0.237099 0.705000 0.815694 -0.775674
H130  H     H_    0.211619 0.719728 0.809642 0.293905
H131  H     H_    0.239043 0.709612 0.780567 0.250175
H132  H     H_    0.226468 0.681717 0.811784 0.234829
H133  H     H_    0.307933 0.695302 0.880672 0.225086
H134  H     H_    0.280989 0.703064 0.910821 0.214394
H135  H     H_    0.273101 0.756338 0.882278 0.223964
H136  H     H_    0.294053 0.750162 0.847191 0.205084
N25   N     N_R   0.182823 0.396051 0.734034 0.144955
O65   O     O_R   0.223279 0.385248 0.765919 -0.288634
O66   O     O_R   0.170604 0.416593 0.695500 -0.329094
N26   N     N_R   0.811964 0.403477 0.249450 0.144010
O67   O     O_R   0.769973 0.395386 0.211545 -0.291607
O68   O     O_R   0.823537 0.424835 0.286150 -0.332340
N27   N     N_R   0.683731 0.897506 0.736772 0.144441
O69   O     O_R   0.724553 0.887249 0.769685 -0.291998
O70   O     O_R   0.671583 0.918206 0.698536 -0.330272
N28   N     N_R   0.312061 0.903295 0.249666 0.144106
O71   O     O_R   0.270097 0.895136 0.211843 -0.284294
O72   O     O_R   0.323603 0.924639 0.286380 -0.332713
N29   N     N_R   0.049123 0.349411 0.646038 0.132367
O73   O     O_R   0.041010 0.321413 0.645289 -0.322527
O74   O     O_R   0.022054 0.365046 0.598251 -0.318893
N30   N     N_R   0.939040 0.347600 0.358648 0.132112
O75   O     O_R   0.943089 0.318994 0.360941 -0.320597
O76   O     O_R   0.964770 0.362973 0.407049 -0.318707
N31   N     N_R   0.550892 0.848896 0.645017 0.132346
O77   O     O_R   0.543482 0.820738 0.643939 -0.321631
O78   O     O_R   0.523954 0.864467 0.597102 -0.318024
N32   N     N_R   0.439347 0.847618 0.358607 0.132371
O79   O     O_R   0.443497 0.819021 0.360885 -0.319623
O80   O     O_R   0.465075 0.862994 0.407004 -0.318094
C225  C     C_3   0.066571 0.351073 0.769671 -0.335068
C226  C     C_3   0.020958 0.366714 0.733060 -0.341666
C227  C     C_3   0.991231 0.353376 0.744752 -0.788023
H137  H     H_    0.984807 0.329594 0.732471 0.271577
H138  H     H_    0.007714 0.355637 0.792158 0.253308
H139  H     H_    0.958465 0.365121 0.717901 0.245783
H140  H     H_    0.026098 0.390603 0.744524 0.215504
H141  H     H_    0.003372 0.364598 0.685271 0.263743
H142  H     H_    0.061514 0.327126 0.758710 0.243321
H143  H     H_    0.084074 0.353446 0.817415 0.223979
C228  C     C_3   0.938065 0.343795 0.247849 -0.350088
C229  C     C_3   0.985719 0.356675 0.291525 -0.343945
C230  C     C_3   0.018418 0.339694 0.289300 -0.771385
H144  H     H_    0.019929 0.316137 0.301201 0.271178
H145  H     H_    0.007651 0.340961 0.244352 0.251512
H146  H     H_    0.052627 0.349484 0.321234 0.248619
H147  H     H_    0.985519 0.380244 0.280610 0.216098
H148  H     H_    0.997749 0.355521 0.337141 0.265624
H149  H     H_    0.938214 0.320165 0.258372 0.240671
H150  H     H_    0.926157 0.345188 0.202295 0.211482
C231  C     C_3   0.565709 0.849493 0.766868 -0.336256
C232  C     C_3   0.519561 0.864473 0.729165 -0.342315
C233  C     C_3   0.489429 0.850278 0.739440 -0.785385
H151  H     H_    0.483925 0.826509 0.727126 0.271558
H152  H     H_    0.505059 0.852338 0.786562 0.252794
H153  H     H_    0.456281 0.861564 0.711833 0.246261
H154  H     H_    0.523757 0.888332 0.740609 0.215626
H155  H     H_    0.502815 0.862520 0.681628 0.264211
H156  H     H_    0.561586 0.825569 0.755944 0.243359
H157  H     H_    0.582367 0.851713 0.814358 0.223529
C234  C     C_3   0.438137 0.843948 0.247587 -0.349534
C235  C     C_3   0.485766 0.856875 0.291160 -0.343097
C236  C     C_3   0.518425 0.839969 0.288757 -0.773821
H158  H     H_    0.520022 0.816400 0.300647 0.271155
H159  H     H_    0.507560 0.841274 0.243758 0.251426
H160  H     H_    0.552618 0.849791 0.320617 0.248143
H161  H     H_    0.485479 0.880458 0.280251 0.215910
H162  H     H_    0.497890 0.855682 0.336821 0.265447
H163  H     H_    0.438372 0.820305 0.258107 0.240794
H164  H     H_    0.426136 0.845375 0.201989 0.211937
C237  C     C_3   0.432449 0.197827 0.994989 -0.374179
C238  C     C_3   0.400323 0.182810 0.934278 -0.330483
C239  C     C_3   0.424710 0.159571 0.926758 -0.846360
H165  H     H_    0.451517 0.170105 0.928659 0.254282
H166  H     H_    0.439967 0.142539 0.961982 0.251618
H167  H     H_    0.400373 0.148568 0.883201 0.254947
H168  H     H_    0.372357 0.171655 0.928504 0.218242
H169  H     H_    0.385899 0.199723 0.898947 0.241433
H170  H     H_    0.463219 0.203556 0.001813 0.196133
H171  H     H_    0.446256 0.182268 0.031578 0.181244
C240  C     C_3   0.566404 0.198095 0.001795 -0.394820
C241  C     C_3   0.587365 0.187467 0.064104 -0.332074
C242  C     C_3   0.563925 0.159574 0.061540 -0.847746
H172  H     H_    0.527789 0.164067 0.037641 0.253887
H173  H     H_    0.566800 0.141517 0.038835 0.255775
H174  H     H_    0.579981 0.152252 0.107071 0.251468
H175  H     H_    0.623776 0.182806 0.090591 0.218883
H176  H     H_    0.584352 0.204903 0.087576 0.247670
H177  H     H_    0.529959 0.202215 0.976380 0.195044
H178  H     H_    0.566552 0.180231 0.976344 0.195905
C243  C     C_3   0.935783 0.696339 0.005861 -0.398257
C244  C     C_3   0.914984 0.686628 0.943199 -0.337887
C245  C     C_3   0.935214 0.657609 0.944025 -0.845928
H179  H     H_    0.971809 0.660355 0.968613 0.252650
H180  H     H_    0.929874 0.639885 0.964994 0.255613
H181  H     H_    0.918714 0.650880 0.898080 0.252089
H182  H     H_    0.877977 0.683811 0.915227 0.222833
H183  H     H_    0.921082 0.703871 0.922316 0.242074
H184  H     H_    0.972493 0.699770 0.032161 0.199901
H185  H     H_    0.934269 0.678299 0.029988 0.197011
C246  C     C_3   0.068640 0.696740 0.002298 -0.402954
C247  C     C_3   0.098722 0.685933 0.066480 -0.328675
C248  C     C_3   0.077906 0.659453 0.073212 -0.837004
H186  H     H_    0.070863 0.641299 0.043087 0.252542
H187  H     H_    0.101646 0.651226 0.119375 0.253405
H188  H     H_    0.046173 0.666069 0.063296 0.251912
H189  H     H_    0.132188 0.679495 0.081296 0.221052
H190  H     H_    0.103939 0.703981 0.095717 0.245815
H191  H     H_    0.033934 0.700375 0.985613 0.200944
H192  H     H_    0.064742 0.678792 0.974093 0.193472
N33   N     N_R   0.421556 0.307824 0.995517 0.166328
O81   O     O_R   0.463488 0.315772 0.035311 -0.269321
O82   O     O_R   0.393087 0.326028 0.952975 -0.240619
N34   N     N_R   0.573388 0.308233 0.994331 0.161918
O83   O     O_R   0.573224 0.316305 0.036272 -0.268898
O84   O     O_R   0.555565 0.325469 0.948968 -0.245212
N35   N     N_R   0.929062 0.806723 0.007137 0.167909
O85   O     O_R   0.971576 0.813028 0.047923 -0.270389
O86   O     O_R   0.902370 0.826230 0.966533 -0.240436
N36   N     N_R   0.087425 0.806526 0.023075 0.168064
O87   O     O_R   0.046135 0.816060 0.987399 -0.267699
O88   O     O_R   0.118456 0.822512 0.068508 -0.240482
N37   N     N_R   0.348428 0.303973 0.993439 0.166162
O89   O     O_R   0.306042 0.308175 0.948546 -0.346615
O90   O     O_R   0.371417 0.324819 0.032526 -0.269976
N38   N     N_R   0.647279 0.304849 0.997988 0.164231
O91   O     O_R   0.687627 0.312169 0.045182 -0.343935
O92   O     O_R   0.627237 0.320510 0.950156 -0.265332
N39   N     N_R   0.853755 0.804331 0.001202 0.167377
O93   O     O_R   0.811689 0.809925 0.956835 -0.343058
O94   O     O_R   0.878073 0.824088 0.042406 -0.268797
N40   N     N_R   0.158705 0.803679 0.020367 0.165107
O95   O     O_R   0.201922 0.805370 0.063687 -0.354978
O96   O     O_R   0.137256 0.826665 0.986925 -0.266717
C249  C     C_3   0.314801 0.095070 0.258598 -0.368247
C250  C     C_3   0.266186 0.105628 0.212297 -0.363522
C251  C     C_3   0.234686 0.089225 0.217960 -0.780382
H193  H     H_    0.235226 0.065077 0.211461 0.262515
H194  H     H_    0.245023 0.093190 0.262248 0.264724
H195  H     H_    0.199723 0.097373 0.183799 0.241973
H196  H     H_    0.264379 0.129674 0.218126 0.259572
H197  H     H_    0.254675 0.101759 0.167348 0.220844
H198  H     H_    0.316697 0.071083 0.252270 0.204623
H199  H     H_    0.326238 0.098409 0.303631 0.228931
C252  C     C_3   0.647586 0.130022 0.675143 -0.373046
C253  C     C_3   0.683056 0.153899 0.695944 -0.355456
C254  C     C_3   0.693795 0.156102 0.654814 -0.798034
H200  H     H_    0.707149 0.134730 0.653577 0.254670
H201  H     H_    0.663052 0.162015 0.609436 0.264464
H202  H     H_    0.719647 0.173527 0.671095 0.242800
H203  H     H_    0.670523 0.175680 0.697045 0.261113
H204  H     H_    0.714523 0.148477 0.741100 0.214586
H205  H     H_    0.660602 0.108210 0.675070 0.203023
H206  H     H_    0.616396 0.134935 0.629446 0.226665
C255  C     C_3   0.823284 0.606267 0.281632 -0.367787
C256  C     C_3   0.776389 0.620089 0.242700 -0.363288
C257  C     C_3   0.750157 0.610568 0.262340 -0.789122
H207  H     H_    0.746116 0.586145 0.259662 0.260759
H208  H     H_    0.767975 0.617851 0.308411 0.266056
H209  H     H_    0.716235 0.620830 0.233048 0.240232
H210  H     H_    0.779299 0.644579 0.244976 0.259672
H211  H     H_    0.757461 0.612966 0.196281 0.222082
H212  H     H_    0.820073 0.581803 0.277334 0.204446
H213  H     H_    0.841867 0.612124 0.328622 0.230019
C258  C     C_3   0.156992 0.623411 0.685837 -0.370784
C259  C     C_3   0.195100 0.645516 0.709154 -0.358631
C260  C     C_3   0.211463 0.643687 0.674334 -0.794121
H214  H     H_    0.224494 0.621200 0.678117 0.256022
H215  H     H_    0.183535 0.648846 0.627047 0.264602
H216  H     H_    0.239042 0.659954 0.692227 0.242906
H217  H     H_    0.183025 0.668329 0.705342 0.259369
H218  H     H_    0.223853 0.640751 0.756343 0.215174
H219  H     H_    0.169143 0.600610 0.689557 0.204159
H220  H     H_    0.128280 0.628015 0.638553 0.226879
C261  C     C_3   0.439508 0.156121 0.249257 -0.396623
C262  C     C_3   0.487210 0.143842 0.295297 -0.346279
C263  C     C_3   0.520266 0.159411 0.291556 -0.804969
H221  H     H_    0.510022 0.156050 0.247179 0.250583
H222  H     H_    0.521453 0.183500 0.299903 0.262219
H223  H     H_    0.554517 0.150116 0.325327 0.246014
H224  H     H_    0.498637 0.147025 0.340369 0.227495
H225  H     H_    0.487313 0.119757 0.287828 0.220622
H226  H     H_    0.428773 0.153655 0.204599 0.202687
H227  H     H_    0.439143 0.180018 0.257705 0.213200
C264  C     C_3   0.599427 0.118937 0.820514 -0.405357
C265  C     C_3   0.561733 0.096109 0.794995 -0.333856
C266  C     C_3   0.550326 0.092172 0.835184 -0.823847
H228  H     H_    0.580284 0.084249 0.879438 0.253135
H229  H     H_    0.538879 0.113458 0.840090 0.254734
H230  H     H_    0.522876 0.075608 0.815683 0.247089
H231  H     H_    0.530994 0.103441 0.750771 0.225995
H232  H     H_    0.572409 0.074453 0.790054 0.222351
H233  H     H_    0.629768 0.111532 0.864896 0.200087
H234  H     H_    0.588444 0.140706 0.824499 0.208247
C267  C     C_3   0.931339 0.643893 0.223682 -0.400267
C268  C     C_3   0.977071 0.628338 0.262483 -0.339996
C269  C     C_3   0.005458 0.637965 0.246130 -0.816837
H235  H     H_    0.988016 0.632305 0.199381 0.249492
H236  H     H_    0.011689 0.662185 0.252442 0.260846
H237  H     H_    0.038368 0.626390 0.274843 0.248243
H238  H     H_    0.995610 0.633740 0.309663 0.227683
H239  H     H_    0.972035 0.603992 0.256823 0.221560
H240  H     H_    0.913285 0.638736 0.176637 0.198405
H241  H     H_    0.936338 0.668214 0.229943 0.211036
C270  C     C_3   0.090510 0.626826 0.810522 -0.406994
C271  C     C_3   0.054641 0.603089 0.788791 -0.333553
C272  C     C_3   0.036614 0.605031 0.821625 -0.839477
H242  H     H_    0.064305 0.601687 0.869732 0.251274
H243  H     H_    0.020970 0.626973 0.814215 0.254005
H244  H     H_    0.010718 0.587615 0.805155 0.250411
H245  H     H_    0.026199 0.606006 0.740754 0.227443
H246  H     H_    0.069354 0.580794 0.795999 0.221352
H247  H     H_    0.119155 0.623742 0.858421 0.198935
H248  H     H_    0.075798 0.649074 0.803584 0.206426

loop_
_geom_bond_atom_site_label_1
_geom_bond_atom_site_label_2
_geom_bond_distance
_ccdc_geom_bond_type
C201  H87   1.106729 S    
C51   C55   1.551607 S    
C252  C253  1.529875 S    
C128  C156  1.533876 S    
C177  H31   1.109356 S    
C99   N23   1.436554 S    
C43   N7    1.357013 A    
C128  N28   1.457012 S    
C228  C229  1.531744 S    
O40   C176  1.289319 A    
C26   C41   1.474173 S    
N30   O76   1.300207 A    
C83   C267  1.527226 S    
C196  H71   1.110687 S    
C248  H186  1.110853 S    
C102  C192  1.526004 S    
C242  H174  1.110404 S    
C67   N19   1.457313 S    
C212  H102  1.110479 S    
O37   C173  1.288531 A    
C47   C140  1.434007 S    
C79   C95   1.465208 S    
C209  H96   1.110990 S    
C264  H233  1.110024 S    
O39   C175  1.289431 A    
C190  H56   1.111686 S    
C269  H237  1.110335 S    
C233  H152  1.111072 S    
O33   C173  1.288813 A    
C256  H210  1.110644 S    
C257  H207  1.110771 S    
C149  C153  1.552183 S    
C52   C56   1.552135 S    
C100  N24   1.436456 S    
C199  C200  1.525691 S    
Cu6   O22   1.945829 S    
C228  H149  1.111244 S    
C147  C167  1.463808 S    
C142  C150  1.560601 S    
N20   O56   1.299930 A    
N31   O77   1.300206 A    
C192  H65   1.107499 S    
N38   O91   1.301090 A    
C30   C34   1.402758 A    
C50   C252  1.529401 S    
N20   O55   1.300206 A    
C181  H36   1.107883 S    
O4    C4    1.286531 A    
C3    C59   1.434868 S    
C261  H227  1.112409 S    
C127  C131  1.543126 S    
N1    C42   1.358218 A    
C266  H230  1.110443 S    
C255  H212  1.111279 S    
C188  H47   1.107090 S    
N3    C44   1.356139 A    
O36   Cu12  1.948591 S    
C212  H103  1.110989 S    
C48   C139  1.433930 S    
C229  H148  1.110865 S    
C74   C78   1.545618 S    
C143  C147  1.545889 S    
C152  C156  1.551793 S    
C84   C270  1.525673 S    
C80   C96   1.465975 S    
C215  H111  1.110523 S    
C60   C92   1.205688 T    
C116  C222  1.527626 S    
C65   N17   1.459269 S    
C34   N38   1.434582 S    
C55   C87   1.557492 S    
O18   C10   1.286328 A    
Cu3   Cu7   2.653209 S    
N19   O53   1.300092 A    
C238  H169  1.112309 S    
C267  H241  1.111192 S    
Cu4   Cu8   2.652212 S    
C6    C38   1.494815 S    
C42   N6    1.356884 A    
C200  H76   1.110094 S    
Cu1   O25   1.952953 S    
N23   O62   1.300800 A    
C190  C191  1.526225 S    
C107  C111  1.424090 A    
Cu3   O19   1.946111 S    
C232  C233  1.526170 S    
C50   C54   1.551983 S    
Cu4   O28   1.954296 S    
O13   C5    1.291555 A    
C14   C118  1.485962 S    
Cu5   O29   1.950645 S    
C52   C68   1.534320 S    
C259  H217  1.110320 S    
N14   C122  1.357248 A    
C224  H132  1.108093 S    
O15   C7    1.290740 A    
C144  C152  1.560586 S    
O6    C2    1.287219 A    
N36   O87   1.301096 A    
C131  C163  1.544545 S    
C232  H155  1.110907 S    
N37   O90   1.301154 A    
N9    C122  1.356741 A    
Cu9   O48   1.948953 S    
O11   Cu3   1.950853 S    
C156  C172  1.466609 S    
Cu10  O47   1.948307 S    
C28   C32   1.406819 A    
C218  H118  1.108369 S    
C193  C194  1.525802 S    
O10   Cu2   1.949490 S    
C105  C122  1.481255 S    
N12   C123  1.357133 A    
O9    C5    1.292866 A    
C226  H140  1.111513 S    
C134  C166  1.204224 T    
C241  C242  1.525691 S    
C125  C141  1.540813 S    
C270  H248  1.110790 S    
C73   C77   1.547383 S    
C61   C174  1.433164 S    
C204  H94   1.107206 S    
N27   O70   1.300204 A    
Cu12  O42   1.943237 S    
N32   O80   1.300205 A    
O36   C176  1.288289 A    
O19   C11   1.286479 A    
C201  C202  1.532934 S    
C132  C148  1.547701 S    
C272  H244  1.110312 S    
C184  C185  1.527164 S    
C146  C166  1.464713 S    
C223  H134  1.110754 S    
C203  H81   1.110612 S    
C74   C82   1.550453 S    
C109  C201  1.529984 S    
C110  C114  1.425876 A    
C248  H188  1.110129 S    
C247  H190  1.111348 S    
O34   Cu10  1.948591 S    
C157  C225  1.528865 S    
C49   C249  1.530907 S    
C113  C213  1.525422 S    
C216  C217  1.531828 S    
C219  H128  1.109274 S    
C235  C236  1.525691 S    
C160  C234  1.528484 S    
C13   C117  1.470692 S    
C269  H235  1.110911 S    
C17   C21   1.439776 A    
C103  C195  1.524903 S    
N2    C41   1.358097 A    
C206  H88   1.110052 S    
C19   C23   1.429166 A    
C127  C155  1.533917 S    
C20   C24   1.425531 A    
C210  H107  1.103740 S    
C240  H178  1.109920 S    
C98   C118  1.410360 A    
C125  C153  1.533935 S    
C272  H242  1.110963 S    
C246  H191  1.109921 S    
C26   C30   1.403731 A    
C221  H123  1.108227 S    
C180  H37   1.106714 S    
C158  C162  1.535497 S    
C262  H224  1.112816 S    
C179  H26   1.112154 S    
C220  H127  1.111135 S    
C226  C227  1.525987 S    
C36   N40   1.436274 S    
C221  H124  1.110638 S    
C63   C95   1.204451 T    
O3    C3    1.286386 A    
C187  H49   1.109897 S    
N26   O67   1.300222 A    
N23   O61   1.300743 A    
C183  C184  1.533429 S    
C21   C25   1.424704 A    
C73   C81   1.551921 S    
C253  C254  1.525583 S    
C52   C80   1.538579 S    
C33   C37   1.414178 A    
C148  C168  1.464642 S    
C61   C93   1.204259 T    
C230  H145  1.110972 S    
C254  H200  1.111124 S    
C260  H214  1.110895 S    
O17   C9    1.286494 A    
C101  C105  1.422003 A    
C239  H167  1.110515 S    
O23   C11   1.286139 A    
C66   N18   1.457452 S    
C213  C214  1.537212 S    
C193  H64   1.110517 S    
C115  C219  1.524472 S    
C150  H18   1.110040 S    
C192  C193  1.533977 S    
C49   C77   1.539228 S    
C265  C266  1.525850 S    
C213  H115  1.109511 S    
C207  C208  1.532942 S    
N33   O81   1.301183 A    
N34   O83   1.301162 A    
C45   O45   1.289172 A    
C205  H91   1.110323 S    
N40   O96   1.301129 A    
C244  H183  1.110040 S    
C243  H185  1.109423 S    
C24   C28   1.417767 A    
C211  C212  1.525355 S    
C35   N39   1.437150 S    
C11   C135  1.431977 S    
C154  C170  1.466561 S    
C222  H135  1.102729 S    
C196  C197  1.525967 S    
C213  H114  1.109405 S    
C160  C164  1.535495 S    
C68   C76   1.540563 S    
Cu1   Cu5   2.653209 S    
C224  H131  1.110830 S    
C262  C263  1.527842 S    
C100  C120  1.409984 A    
C49   C65   1.535523 S    
O39   Cu12  1.945383 S    
C83   C87   1.548616 S    
N3    N4    1.331346 A    
C29   N33   1.438648 S    
C130  H14   1.110091 S    
C53   C69   1.551148 S    
N37   O89   1.301106 A    
C141  H21   1.110047 S    
C113  C117  1.413366 A    
C55   C71   1.549547 S    
O20   C12   1.286405 A    
C132  H16   1.110083 S    
C79   C87   1.544771 S    
O29   C13   1.286916 A    
C214  H112  1.112185 S    
C237  C238  1.536077 S    
N21   O58   1.301040 A    
O38   C174  1.288519 A    
C131  H15   1.110065 S    
C183  H44   1.105375 S    
C161  N29   1.457448 S    
C263  H222  1.112076 S    
C206  H90   1.111003 S    
C253  H204  1.111518 S    
C198  H79   1.107766 S    
C199  H77   1.111396 S    
C22   C26   1.418187 A    
C245  H181  1.110331 S    
C131  C147  1.547216 S    
N22   O59   1.301094 A    
C142  C146  1.546425 S    
C260  H216  1.110467 S    
C137  C169  1.204854 T    
N7    N8    1.332707 A    
C129  C161  1.544568 S    
N28   O71   1.300218 A    
C110  C204  1.530996 S    
C97   C117  1.404754 A    
C151  H19   1.110008 S    
C112  C210  1.530452 S    
C177  H30   1.102384 S    
N19   O54   1.300224 A    
N18   O52   1.300115 A    
C65   C69   1.535166 S    
C225  C226  1.531236 S    
C265  H232  1.111827 S    
C189  H59   1.109996 S    
C67   C71   1.533578 S    
C63   C176  1.433486 S    
C76   C80   1.546175 S    
C64   C175  1.434319 S    
C258  H219  1.111361 S    
C252  H206  1.111370 S    
C182  H32   1.110716 S    
C45   O41   1.288969 A    
C74   H10   1.110099 S    
C254  H202  1.110362 S    
C29   C33   1.399507 A    
O25   C13   1.286399 A    
C10   C134  1.432963 S    
O27   C15   1.286183 A    
C249  H199  1.112551 S    
Cu2   Cu6   2.652212 S    
N24   O64   1.300879 A    
C178  H28   1.110120 S    
C191  H54   1.111023 S    
C214  C215  1.522363 S    
C48   O48   1.288989 A    
C197  H69   1.109996 S    
C217  C218  1.524264 S    
C186  H51   1.104883 S    
C225  H142  1.111325 S    
C234  C235  1.531692 S    
C145  C165  1.463809 S    
C192  H66   1.109737 S    
Cu2   O26   1.954296 S    
C216  H121  1.102150 S    
C208  C209  1.525461 S    
O16   Cu8   1.954687 S    
C201  H86   1.103991 S    
C232  H154  1.111476 S    
C50   C66   1.534161 S    
C20   C40   1.424206 A    
O14   C6    1.291599 A    
C15   C119  1.471628 S    
Cu6   O30   1.949283 S    
C36   C40   1.413263 A    
C147  C159  1.540090 S    
C223  C224  1.522975 S    
C54   C70   1.549946 S    
O2    Cu2   1.945829 S    
C251  H195  1.110882 S    
C55   H3    1.109917 S    
Cu11  Cu12  2.662475 S    
N13   C121  1.356609 A    
C210  H108  1.107555 S    
N29   O74   1.300199 A    
C81   C261  1.528673 S    
C154  C162  1.535910 S    
N16   C124  1.357274 A    
C106  C121  1.480914 S    
C1    C57   1.435222 S    
C243  H184  1.109463 S    
O10   C6    1.294729 A    
O3    Cu3   1.945113 S    
C72   C84   1.538488 S    
C203  H83   1.110325 S    
C207  H100  1.104304 S    
C190  H57   1.110918 S    
C261  C262  1.532104 S    
C20   C186  1.528196 S    
C73   H9    1.111508 S    
C269  H236  1.110789 S    
C126  C130  1.543374 S    
C62   C173  1.432985 S    
O35   Cu11  1.947957 S    
C202  H84   1.111655 S    
C256  H211  1.110381 S    
C76   H12   1.110112 S    
N34   O84   1.300682 A    
C99   C103  1.412218 A    
C184  H42   1.111624 S    
C157  C161  1.535728 S    
C185  H41   1.107848 S    
C75   C83   1.551078 S    
C222  C223  1.531539 S    
C116  C120  1.423492 A    
C99   C119  1.404788 A    
O34   C174  1.288928 A    
N26   O68   1.300214 A    
C227  H137  1.111036 S    
C28   C43   1.473935 S    
C109  C113  1.423458 A    
C178  C179  1.530637 S    
H5    C85   1.111427 S    
C54   C86   1.557383 S    
C220  C221  1.522099 S    
C261  H226  1.107752 S    
C112  C116  1.425566 A    
Cu1   O17   1.946111 S    
C4    C60   1.435573 S    
C18   C22   1.428817 A    
C143  H23   1.110026 S    
C127  N27   1.457136 S    
C202  C203  1.525598 S    
O13   Cu5   1.953343 S    
C245  H179  1.109424 S    
C231  H157  1.111482 S    
O15   Cu7   1.953343 S    
N11   C124  1.356549 A    
C194  H60   1.110854 S    
C25   C42   1.473877 S    
C215  H110  1.110641 S    
C130  C146  1.547744 S    
O6    Cu6   1.946824 S    
C27   C44   1.475452 S    
C100  C104  1.412192 A    
C195  H72   1.107314 S    
C163  N31   1.457412 S    
C268  H238  1.111392 S    
C200  H75   1.110868 S    
C16   C120  1.485547 S    
C236  H158  1.110942 S    
C128  C144  1.540949 S    
C188  H48   1.110307 S    
C22   C240  1.528480 S    
C153  C169  1.466494 S    
C198  C199  1.533833 S    
C46   O42   1.289078 A    
C59   C91   1.205617 T    
C182  H34   1.105488 S    
C47   O47   1.289151 A    
C244  C245  1.525101 S    
N10   N14   1.331655 A    
C259  H218  1.111256 S    
C62   C94   1.204145 T    
C241  H175  1.109673 S    
C146  C158  1.540288 S    
N36   O88   1.301217 A    
C194  H61   1.110886 S    
C102  C106  1.418493 A    
C141  C149  1.560663 S    
C250  H196  1.111317 S    
C152  H20   1.110032 S    
C209  H95   1.110490 S    
C151  C159  1.553569 S    
C218  H117  1.111092 S    
C179  H25   1.110045 S    
C226  H141  1.110903 S    
C111  C207  1.529438 S    
C266  H229  1.111051 S    
O8    C4    1.287253 A    
C270  H247  1.111360 S    
C114  C118  1.424492 A    
C127  C143  1.540772 S    
C2    C58   1.436482 S    
C135  C167  1.203621 T    
C68   C72   1.533421 S    
C204  H93   1.102054 S    
O31   C15   1.287627 A    
N35   O85   1.301169 A    
Cu7   O31   1.950645 S    
C105  C109  1.424989 A    
Cu8   O32   1.949283 S    
C271  H246  1.111572 S    
C256  C257  1.524820 S    
C129  C145  1.547289 S    
N30   O75   1.300220 A    
N17   O50   1.300313 A    
C255  C256  1.528350 S    
C196  H70   1.111404 S    
C248  H187  1.110303 S    
C181  C182  1.525494 S    
C97   N21   1.436819 S    
C186  C187  1.539824 S    
C144  C148  1.546373 S    
C204  C205  1.532722 S    
C209  H97   1.110173 S    
O1    C1    1.285700 A    
C264  H234  1.111440 S    
C82   C86   1.547605 S    
C19   C39   1.431533 A    
C128  C132  1.543354 S    
N39   O94   1.301202 A    
C41   N5    1.356754 A    
C72   C92   1.468315 S    
C233  H153  1.110288 S    
C69   C81   1.541332 S    
C188  H46   1.110349 S    
C67   C75   1.540877 S    
C197  H67   1.110822 S    
C82   C264  1.526063 S    
C228  H150  1.111398 S    
C240  H177  1.110487 S    
C217  H120  1.110473 S    
C246  C247  1.534363 S    
C17   C37   1.437147 A    
C78   C86   1.543783 S    
O21   C9    1.286132 A    
C195  H73   1.110065 S    
C180  C181  1.533550 S    
C104  C108  1.418365 A    
O30   C14   1.294258 A    
C51   C79   1.537477 S    
C262  H225  1.112805 S    
C181  H35   1.111631 S    
C133  C165  1.203627 T    
C138  C170  1.204898 T    
C164  N32   1.457514 S    
C207  H101  1.107012 S    
C23   C243  1.528182 S    
C9    C133  1.431983 S    
C212  H104  1.110215 S    
C229  H147  1.111490 S    
C242  H173  1.110978 S    
C97   C101  1.411997 A    
C56   H4    1.110041 S    
C194  H62   1.110164 S    
C155  C163  1.536276 S    
C247  C248  1.525330 S    
C236  H159  1.110965 S    
C195  C196  1.533682 S    
C239  H166  1.111365 S    
C81   C85   1.550233 S    
C114  C216  1.529330 S    
C52   C258  1.529580 S    
C33   N37   1.437131 S    
C238  H168  1.104928 S    
O37   Cu10  1.945383 S    
C84   C88   1.548177 S    
C65   C73   1.542633 S    
C205  C206  1.526209 S    
C46   O46   1.289036 A    
C236  H160  1.110349 S    
C162  N30   1.457543 S    
C263  H221  1.112380 S    
C47   O43   1.289013 A    
C76   C84   1.550419 S    
C77   C85   1.546029 S    
C153  C161  1.536246 S    
C126  C154  1.533883 S    
C75   H11   1.109931 S    
Cu9   O43   1.945320 S    
C80   C88   1.545552 S    
Cu10  O44   1.943237 S    
O26   C14   1.287617 A    
Cu11  O41   1.945320 S    
C159  C231  1.528949 S    
C158  C228  1.528473 S    
C51   C255  1.529152 S    
C25   C29   1.402373 A    
C237  H171  1.098628 S    
C227  H139  1.110337 S    
C27   C31   1.405619 A    
C18   C38   1.431633 A    
C208  H98   1.111471 S    
Cu3   O27   1.952953 S    
C108  C112  1.422100 A    
C257  H209  1.110478 S    
Cu4   O20   1.946826 S    
N32   O79   1.300215 A    
C34   C38   1.415438 A    
Cu5   O21   1.945113 S    
C210  C211  1.533341 S    
C69   C89   1.468015 S    
O5    C1    1.288761 A    
C272  H243  1.111104 S    
C223  H133  1.111439 S    
C265  H231  1.111453 S    
C17   C177  1.544840 S    
C247  H189  1.111368 S    
O12   Cu4   1.949490 S    
C191  H53   1.111254 S    
Cu11  O46   1.948953 S    
C214  H113  1.111275 S    
N21   O57   1.300887 A    
C270  C271  1.530590 S    
N4    C43   1.356637 A    
C219  H129  1.109266 S    
C185  H39   1.110640 S    
C136  C168  1.204167 T    
C24   C246  1.528975 S    
N1    N2    1.332759 A    
C70   C90   1.469227 S    
C233  H151  1.110972 S    
C189  C190  1.534045 S    
O7    C3    1.287843 A    
C107  C124  1.480781 S    
C206  H89   1.111646 S    
C231  C232  1.531138 S    
C108  C123  1.480605 S    
C199  H78   1.110492 S    
C32   N36   1.438285 S    
C245  H180  1.110818 S    
N22   O60   1.301002 A    
N11   N15   1.330349 A    
C152  C160  1.553261 S    
C155  C171  1.466552 S    
N28   O72   1.300218 A    
C246  H192  1.104994 S    
N9    N13   1.330293 A    
C150  C154  1.551759 S    
C239  H165  1.111654 S    
C78   C94   1.464491 S    
C180  H38   1.103411 S    
C230  H144  1.110949 S    
C179  H27   1.110899 S    
C21   C237  1.535649 S    
C220  H126  1.112178 S    
H6    C86   1.110148 S    
O28   C16   1.287701 A    
C221  H125  1.110231 S    
C205  H92   1.111601 S    
C234  H164  1.111396 S    
C145  C157  1.540080 S    
C19   C183  1.529477 S    
C104  C198  1.525360 S    
C189  H58   1.107105 S    
C268  C269  1.525505 S    
Cu2   O18   1.946826 S    
O16   C8    1.290798 A    
C56   C72   1.549686 S    
Cu12  O45   1.948307 S    
C142  H22   1.110044 S    
C240  C241  1.537081 S    
C56   C88   1.557563 S    
C129  H13   1.110102 S    
O14   Cu6   1.954687 S    
N10   C121  1.357204 A    
C254  H201  1.111276 S    
Cu9   Cu10  2.662475 S    
N15   C123  1.356559 A    
O11   C7    1.296104 A    
C249  H198  1.112376 S    
O12   C8    1.289921 A    
C178  H29   1.113178 S    
C193  H63   1.111464 S    
O1    Cu1   1.945113 S    
C197  H68   1.110886 S    
O9    Cu1   1.950853 S    
N17   O49   1.301296 A    
C71   C83   1.539398 S    
O4    Cu4   1.945829 S    
C8    C40   1.483852 S    
O5    Cu5   1.946109 S    
C18   C180  1.528285 S    
N25   O66   1.300210 A    
C53   H1    1.111489 S    
C217  H119  1.111617 S    
C23   C27   1.417820 A    
N35   O86   1.301234 A    
C260  H215  1.110924 S    
O7    Cu7   1.946109 S    
N40   O95   1.300749 A    
C148  C160  1.540232 S    
N33   O82   1.301230 A    
C237  H170  1.106276 S    
C244  H182  1.110185 S    
O8    Cu8   1.946824 S    
C234  H163  1.111236 S    
C44   N8    1.357854 A    
C77   C93   1.464781 S    
C271  C272  1.525878 S    
C58   C90   1.206424 T    
C227  H138  1.111078 S    
C130  C162  1.544701 S    
N5    N6    1.330751 A    
C215  H109  1.108250 S    
C251  H194  1.112547 S    
C141  C145  1.545988 S    
C250  C251  1.527755 S    
C31   N35   1.438611 S    
C115  C119  1.413191 A    
C222  H136  1.106957 S    
O33   Cu9   1.947957 S    
N29   O73   1.300232 A    
O24   C12   1.286090 A    
C111  C115  1.423240 A    
C249  C250  1.529419 S    
C149  C157  1.553561 S    
N12   N16   1.331812 A    
C252  H205  1.111351 S    
C66   C70   1.534701 S    
C103  C107  1.421364 A    
C203  H82   1.111043 S    
N25   O65   1.300228 A    
C250  H197  1.112673 S    
C126  C142  1.540971 S    
C75   C79   1.545932 S    
N27   O69   1.300207 A    
C202  H85   1.111476 S    
C258  C259  1.529923 S    
C242  H172  1.110601 S    
C139  C171  1.204889 T    
C144  H24   1.110028 S    
C243  C244  1.536744 S    
C151  C155  1.552242 S    
C32   C36   1.406360 A    
C184  H43   1.108339 S    
O40   Cu11  1.943286 S    
C185  H40   1.110737 S    
C150  C158  1.553260 S    
C187  H50   1.108710 S    
N38   O92   1.300810 A    
C211  H105  1.111237 S    
N24   O63   1.300989 A    
C64   C96   1.204938 T    
C208  H99   1.111324 S    
C35   C39   1.416004 A    
C255  H213  1.111156 S    
C235  H162  1.110859 S    
O2    C2    1.287166 A    
C183  H45   1.104100 S    
C45   C138  1.433960 S    
C126  N26   1.457029 S    
C187  C188  1.527410 S    
C51   C67   1.533517 S    
C266  H228  1.111078 S    
C263  H223  1.110665 S    
O32   C16   1.293909 A    
C253  H203  1.110832 S    
C70   C82   1.540295 S    
C198  H80   1.109838 S    
C267  H240  1.108881 S    
C257  H208  1.110729 S    
C12   C136  1.432984 S    
C53   C85   1.558800 S    
C132  C164  1.544684 S    
C231  H156  1.111285 S    
C143  C151  1.560647 S    
C159  C163  1.535762 S    
N31   O78   1.300203 A    
O22   C10   1.286185 A    
H7    C87   1.109908 S    
C48   O44   1.289153 A    
C98   N22   1.436520 S    
C267  C268  1.531341 S    
C50   C78   1.538120 S    
C230  H146  1.110361 S    
N18   O51   1.300283 A    
H8    C88   1.109986 S    
C259  C260  1.525169 S    
C235  H161  1.111481 S    
N39   O93   1.301294 A    
C140  C172  1.204926 T    
C268  H239  1.111572 S    
C200  H74   1.110791 S    
C31   C35   1.405845 A    
C101  C189  1.525550 S    
C219  C220  1.536246 S    
O35   C175  1.288589 A    
C149  H17   1.110043 S    
C125  C129  1.543183 S    
C30   N34   1.436574 S    
C229  C230  1.525669 S    
C182  H33   1.110748 S    
C106  C110  1.422704 A    
Cu7   O23   1.945113 S    
C54   H2    1.110100 S    
Cu8   O24   1.945829 S    
C57   C89   1.205906 T    
C224  H130  1.110348 S    
C241  H176  1.108868 S    
C258  H220  1.111277 S    
C156  C164  1.535939 S    
C125  N25   1.457149 S    
C98   C102  1.411763 A    
C211  H106  1.111558 S    
C251  H193  1.112233 S    
C68   N20   1.457073 S    
C46   C137  1.433879 S    
C218  H116  1.111107 S    
C271  H245  1.111656 S    
C191  H55   1.110215 S    
C5    C37   1.490660 S    
C238  C239  1.528668 S    
C186  H52   1.109110 S    
C7    C39   1.494427 S    
C225  H143  1.111489 S    
C177  C178  1.544467 S    
O38   Cu9   1.943286 S    
C66   C74   1.541491 S    
C49   C53   1.552971 S    
C264  C265  1.531427 S    
C71   C91   1.467804 S    
C216  H122  1.106262 S    
