data_mof_unit_37031.cif
_audit_creation_date              2012-12-11T16:35:18-0500
_audit_creation_method            fapswitch 2.2
_symmetry_space_group_name_H-M    P1
_symmetry_Int_Tables_number       1
_space_group_crystal_system       triclinic
_cell_length_a                    6.930405
_cell_length_b                    17.720366
_cell_length_c                    19.473789
_cell_angle_alpha                 109.115529
_cell_angle_beta                  90.456217
_cell_angle_gamma                 90.659969
_cell_volume                      2259.3681571

loop_
_atom_site_label
_atom_site_type_symbol
_atom_type_description
_atom_site_fract_x
_atom_site_fract_y
_atom_site_fract_z
_atom_type_partial_charge
O1    O     O_R   0.505700 0.440210 0.561730 -0.541721
O2    O     O_R   0.169350 0.406300 0.412660 -0.538119
O3    O     O_R   0.005650 0.559790 0.438270 -0.542336
C1    C     C_R   0.337627 0.383664 0.384508 0.699767
O4    O     O_R   0.175560 0.430650 0.559600 -0.544759
O5    O     O_R   0.011900 0.584320 0.586250 -0.535518
C2    C     C_R   0.344703 0.415618 0.581169 0.682708
O6    O     O_R   0.499450 0.415680 0.413750 -0.533651
O7    O     O_3   0.341370 0.550390 0.508570 -0.368494
V1    V     V_3+5 0.063940 0.490650 0.498410 1.413369
O8    O     O_R   0.682570 0.593700 0.587340 -0.538357
C3    C     C_R   0.852788 0.616655 0.614924 0.697379
O9    O     O_R   0.676370 0.569350 0.440400 -0.543774
C4    C     C_R   0.845201 0.584263 0.418835 0.683634
V2    V     V_3+5 0.564750 0.509350 0.501590 1.416920
O10   O     O_3   0.837190 0.449610 0.491430 -0.366946
C5    C     C_R   0.036785 0.719649 0.317910 -0.144932
H1    H     H_    0.168122 0.753369 0.318234 0.101969
C6    C     C_R   0.025548 0.674999 0.365293 -0.169313
H2    H     H_    0.149172 0.674639 0.399575 0.119764
C7    C     C_R   0.855910 0.632536 0.369360 -0.045355
C8    C     C_R   0.698286 0.635165 0.324465 -0.161625
H3    H     H_    0.566234 0.602398 0.325744 0.112297
C9    C     C_R   0.710827 0.678322 0.275876 -0.147291
H4    H     H_    0.588107 0.676391 0.240631 0.098971
C10   C     C_R   0.880003 0.721741 0.272004 0.090277
C11   C     C_R   0.726145 0.803299 0.201731 -0.148231
H5    H     H_    0.586712 0.796533 0.223777 0.097321
C12   C     C_R   0.737376 0.848134 0.154606 -0.170948
H6    H     H_    0.605608 0.871736 0.140184 0.128020
C13   C     C_R   0.915648 0.862919 0.127098 -0.051721
C14   C     C_R   0.081583 0.828293 0.145358 -0.176625
H7    H     H_    0.220878 0.836646 0.123895 0.117380
C15   C     C_R   0.069913 0.781791 0.191229 -0.141059
H8    H     H_    0.200642 0.755020 0.202603 0.096198
C16   C     C_R   0.892248 0.769382 0.221042 0.094425
H9    H     H_    0.603049 0.654729 0.929232 0.115160
C17   C     C_R   0.065378 0.894578 0.749652 -0.143766
C18   C     C_R   0.134817 0.902174 0.685270 -0.122627
C19   C     C_R   0.116271 0.838898 0.620576 -0.121440
C20   C     C_R   0.028258 0.767536 0.619787 -0.130588
C21   C     C_R   0.958419 0.757599 0.684493 0.069911
C22   C     C_R   0.977294 0.822467 0.750798 0.067883
C23   C     C_R   0.867180 0.685191 0.683618 -0.186306
C24   C     C_R   0.794471 0.677681 0.749011 0.069106
C25   C     C_R   0.813509 0.742510 0.815326 0.068742
C26   C     C_R   0.904731 0.814921 0.816201 -0.185059
C27   C     C_R   0.706107 0.605623 0.750129 -0.141847
C28   C     C_R   0.636818 0.597963 0.814501 -0.124935
C29   C     C_R   0.655680 0.661176 0.879224 -0.119345
C30   C     C_R   0.743805 0.732530 0.880035 -0.130516
H10   H     H_    0.080507 0.946153 0.798157 0.109978
H11   H     H_    0.202057 0.957729 0.685534 0.119788
H12   H     H_    0.169010 0.845307 0.570566 0.113277
H13   H     H_    0.014156 0.720787 0.567743 0.102843
H14   H     H_    0.690613 0.554162 0.701588 0.105281
H15   H     H_    0.569457 0.542415 0.814198 0.119823
H16   H     H_    0.758102 0.779238 0.932094 0.104212
H17   H     H_    0.521338 0.482417 0.186751 0.114350
C31   C     C_R   0.258206 0.221128 0.378003 -0.144443
C32   C     C_R   0.236933 0.143957 0.380027 -0.153405
C33   C     C_R   0.285620 0.079480 0.320303 -0.159645
C34   C     C_R   0.353086 0.090850 0.256717 0.193195
C35   C     C_R   0.365862 0.169357 0.251389 0.074881
C36   C     C_R   0.323301 0.235677 0.314770 0.026589
C37   C     C_R   0.423817 0.183617 0.186195 -0.185684
C38   C     C_R   0.449319 0.263460 0.186745 0.045100
C39   C     C_R   0.414652 0.328902 0.251158 0.077816
C40   C     C_R   0.350805 0.315187 0.315128 -0.173747
C41   C     C_R   0.508005 0.279824 0.123483 -0.142877
C42   C     C_R   0.534219 0.358056 0.123908 -0.109784
C43   C     C_R   0.501462 0.421736 0.186790 -0.121548
C44   C     C_R   0.441598 0.407681 0.249681 -0.136177
H18   H     H_    0.223030 0.269204 0.426904 0.113191
H19   H     H_    0.186574 0.134185 0.428973 0.126586
H20   H     H_    0.274861 0.019804 0.323793 0.119939
H21   H     H_    0.535019 0.232566 0.073017 0.096051
H22   H     H_    0.579814 0.369295 0.075055 0.114885
H23   H     H_    0.414742 0.459303 0.296813 0.094682
C45   C     C_R   0.538544 0.320109 0.715926 -0.148773
H24   H     H_    0.671680 0.322458 0.746026 0.103318
C46   C     C_R   0.527297 0.365175 0.668956 -0.164271
H25   H     H_    0.652815 0.399776 0.663747 0.116520
C47   C     C_R   0.355863 0.366690 0.630281 -0.049808
C48   C     C_R   0.196195 0.321429 0.639454 -0.168260
H26   H     H_    0.062274 0.320789 0.610202 0.121743
C49   C     C_R   0.208260 0.275341 0.685673 -0.143317
H27   H     H_    0.083543 0.239812 0.689758 0.100326
C50   C     C_R   0.379539 0.274135 0.724891 0.090630
C51   C     C_R   0.229439 0.213478 0.813118 -0.147093
H28   H     H_    0.092705 0.240169 0.808011 0.101691
C52   C     C_R   0.241062 0.167815 0.859603 -0.168177
H29   H     H_    0.112396 0.159859 0.887844 0.122943
C53   C     C_R   0.416523 0.133811 0.870237 -0.052047
C54   C     C_R   0.579906 0.146264 0.832761 -0.162239
H30   H     H_    0.716916 0.120301 0.839042 0.117682
C55   C     C_R   0.567715 0.190994 0.785416 -0.144362
H31   H     H_    0.695726 0.197270 0.756164 0.098991
C56   C     C_R   0.392340 0.225579 0.774968 0.088890
O11   O     O_R   0.273230 0.084330 0.086440 -0.531014
O12   O     O_R   0.596660 0.069390 0.940470 -0.547014
O13   O     O_R   0.760270 0.915710 0.913690 -0.537019
C57   C     C_R   0.427466 0.084568 0.919079 0.671972
O14   O     O_R   0.603330 0.093680 0.087390 -0.534391
O15   O     O_R   0.766990 0.940160 0.061660 -0.534195
C58   C     C_R   0.435204 0.116440 0.115690 0.790134
O16   O     O_R   0.266510 0.059870 0.938470 -0.545193
O17   O     O_3   0.431050 0.949630 0.991510 -0.364234
V3    V     V_3+5 0.708490 0.009340 0.001580 1.428145
O18   O     O_R   0.096270 0.930570 0.059390 -0.542268
C59   C     C_R   0.927220 0.914264 0.079981 0.687513
O19   O     O_R   0.089600 0.906290 0.912460 -0.539441
C60   C     C_R   0.919312 0.883406 0.884915 0.691956
V4    V     V_3+5 0.207670 0.990600 0.998190 1.427914
O20   O     O_3   0.935250 0.050360 0.008480 -0.370946
N1    N     N_3   0.420530 0.022361 0.200309 -0.677337
H32   H     H_    0.308469 0.980006 0.185570 0.223332
H33   H     H_    0.533539 0.998357 0.221956 0.218548

loop_
_geom_bond_atom_site_label_1
_geom_bond_atom_site_label_2
_ccdc_geom_bond_type
C49   H27   S    
C11   C12   A    
C20   C21   A    
C54   H30   S    
C1    O6    A    
O19   V4    S    
V4    O20   S    
C18   H11   S    
C48   H26   S    
C32   H19   S    
C12   H6    S    
C50   C56   S    
C5    C10   A    
C4    C7    S    
C6    C7    A    
C9    C10   A    
O5    C3    A    
O14   V3    S    
C17   H10   S    
O12   V3    S    
V2    O10   S    
C28   H15   S    
O17   V3    S    
C27   H14   S    
C15   H8    S    
O17   V4    S    
C45   C50   A    
O18   C59   A    
C20   H13   S    
O8    V2    S    
C6    H2    S    
C39   C40   A    
C41   C42   A    
O1    V2    S    
O7    V1    S    
O18   V4    S    
H17   C43   S    
C2    C47   S    
O15   C59   A    
O12   C57   A    
O9    C4    A    
C41   H21   S    
O19   C60   A    
C33   H20   S    
C53   C54   A    
C21   C23   A    
C37   C58   S    
O14   C58   A    
C1    C40   S    
C55   C56   A    
C55   H31   S    
C48   C49   A    
C38   C39   A    
O11   V4    S    
C9    H4    S    
C45   C46   A    
C18   C19   A    
O4    C2    A    
C45   H24   S    
C29   C30   A    
C39   C44   A    
C24   C25   A    
C25   C30   A    
C31   C32   A    
C35   C37   A    
O2    C1    A    
O16   V4    S    
O5    V1    S    
C33   C34   A    
C51   C52   A    
C13   C14   A    
C52   C53   A    
C5    H1    S    
C44   H23   S    
C30   H16   S    
C47   C48   A    
O3    C4    A    
C34   N1    S    
C10   C16   S    
C19   C20   A    
C31   C36   A    
C28   C29   A    
O6    V2    S    
C19   H12   S    
C49   C50   A    
C8    C9    A    
C21   C22   A    
O2    V1    S    
C51   C56   A    
C23   C24   A    
C24   C27   A    
C26   C60   S    
O15   V3    S    
C25   C26   A    
C27   C28   A    
O1    C2    A    
O11   C58   A    
C43   C44   A    
C53   C57   S    
O8    C3    A    
C54   C55   A    
C11   C16   A    
C46   C47   A    
C38   C41   A    
C35   C36   A    
O9    V2    S    
O7    V2    S    
O4    V1    S    
C12   C13   A    
O3    V1    S    
V1    O10   S    
C14   H7    S    
H9    C29   S    
C51   H28   S    
C17   C18   A    
C36   C40   A    
C31   H18   S    
C52   H29   S    
C5    C6    A    
N1    H33   S    
N1    H32   S    
C37   C38   A    
C15   C16   A    
C32   C33   A    
V3    O20   S    
C34   C35   A    
C17   C22   A    
C42   C43   A    
C3    C23   S    
C46   H25   S    
C11   H5    S    
O13   C60   A    
C13   C59   S    
C8    H3    S    
O13   V3    S    
C57   O16   A    
C7    C8    A    
C22   C26   A    
C42   H22   S    
C14   C15   A    
