data_mof_unit_66162.cif
_audit_creation_date              2012-10-26T20:29:36-0400
_audit_creation_method            fapswitch 2.2
_symmetry_space_group_name_H-M    P1
_symmetry_Int_Tables_number       1
_space_group_crystal_system       triclinic
_cell_length_a                    13.823817
_cell_length_b                    15.076617
_cell_length_c                    17.093097
_cell_angle_alpha                 89.577862
_cell_angle_beta                  93.602436
_cell_angle_gamma                 90.702551
_cell_volume                      3555.09742158

loop_
_atom_site_label
_atom_site_type_symbol
_atom_type_description
_atom_site_fract_x
_atom_site_fract_y
_atom_site_fract_z
_atom_type_partial_charge
C1    C     C_R   0.499281 0.329928 0.497921 0.566979
C2    C     C_R   0.559895 0.907786 0.444248 0.142246
C3    C     C_R   0.496885 0.048620 0.495790 0.016967
C4    C     C_R   0.501556 0.951980 0.495827 0.015139
C5    C     C_R   0.110994 0.569577 0.535828 0.088193
C6    C     C_R   0.896341 0.454001 0.559380 0.084514
C7    C     C_R   0.212881 0.567755 0.534672 0.089067
C8    C     C_R   0.794186 0.455338 0.557543 0.082167
C9    C     C_R   0.204927 0.432851 0.465271 0.055365
C10   C     C_R   0.787704 0.543279 0.442462 0.074486
C11   C     C_R   0.102997 0.431796 0.465062 -0.134349
C12   C     C_R   0.500403 0.670226 0.497672 0.568112
C13   C     C_R   0.889536 0.543777 0.441932 -0.128292
C14   C     C_R   0.054354 0.500486 0.500690 0.034219
C15   C     C_R   0.945603 0.499109 0.500872 0.037254
C16   C     C_R   0.511753 0.500750 0.650876 0.564595
C17   C     C_R   0.488339 0.498585 0.349202 0.585441
C18   C     C_R   0.518210 0.499744 0.736561 0.021372
C19   C     C_R   0.482324 0.496867 0.263639 0.028701
C20   C     C_R   0.454965 0.549954 0.779698 0.061365
C21   C     C_R   0.547647 0.447078 0.222016 0.067165
C22   C     C_R   0.459754 0.543096 0.861065 -0.046591
C23   C     C_R   0.555212 0.187107 0.551515 -0.138152
C24   C     C_R   0.542938 0.451341 0.140440 -0.048673
C25   C     C_R   0.527445 0.486707 0.900721 0.208656
C26   C     C_R   0.473308 0.504594 0.099423 0.210410
C27   C     C_R   0.592026 0.439524 0.857658 -0.097560
C28   C     C_R   0.406906 0.551165 0.141130 -0.093198
C29   C     C_R   0.587688 0.445972 0.776193 -0.160009
C30   C     C_R   0.411105 0.547338 0.222602 -0.147853
C31   C     C_R   0.554834 0.095153 0.551787 -0.122739
C32   C     C_R   0.444333 0.904282 0.546207 -0.122675
C33   C     C_R   0.444326 0.812360 0.545762 -0.134714
C34   C     C_R   0.497730 0.233448 0.495181 0.013383
C35   C     C_R   0.501503 0.767003 0.494909 0.004307
C36   C     C_R   0.440033 0.187373 0.437339 0.100653
C37   C     C_R   0.558274 0.814462 0.442436 0.096184
C38   C     C_R   0.438101 0.094039 0.438739 0.141032
Cu1   Cu    Cu3+1 0.596430 0.499990 0.500000 1.011403
Cu2   Cu    Cu3+1 0.403570 0.500010 0.500000 1.002422
H1    H     H_    0.255338 0.621136 0.561687 0.165478
H2    H     H_    0.352558 0.591709 0.110258 0.147842
H3    H     H_    0.637214 0.407309 0.743941 0.133180
H4    H     H_    0.360118 0.585604 0.253714 0.148389
H5    H     H_    0.600243 0.059998 0.595389 0.145863
H6    H     H_    0.399232 0.938503 0.585581 0.150880
H7    H     H_    0.600075 0.222347 0.595634 0.129986
H8    H     H_    0.399868 0.776424 0.585519 0.162219
H9    H     H_    0.757044 0.420264 0.602466 0.137054
H10   H     H_    0.240785 0.379529 0.437462 0.163936
H11   H     H_    0.745895 0.577447 0.396342 0.166392
H12   H     H_    0.062297 0.377502 0.437263 0.139843
H13   H     H_    0.924407 0.578953 0.395709 0.134187
H14   H     H_    0.593694 0.412756 0.109505 0.166916
H15   H     H_    0.410689 0.582505 0.892976 0.170994
H16   H     H_    0.645100 0.396705 0.887384 0.146815
I1    I     I_    0.651348 0.359381 0.276504 -0.260468
I2    I     I_    0.354930 0.642625 0.728442 -0.334763
I3    I     I_    0.364991 0.258132 0.343559 -0.263009
I4    I     I_    0.631899 0.746418 0.354741 -0.277727
I5    I     I_    0.347360 0.020310 0.355835 -0.219036
I6    I     I_    0.649619 0.983488 0.370183 -0.195005
I7    I     I_    0.047280 0.677266 0.591794 -0.269537
I8    I     I_    0.971876 0.384055 0.651736 -0.304045
N1    N     N_2   0.533609 0.476425 0.983453 -0.231651
N2    N     N_2   0.467426 0.513554 0.016664 -0.231460
N3    N     N_R   0.258690 0.500020 0.500000 -0.243636
N4    N     N_R   0.741310 0.499980 0.500000 -0.238039
O1    O     O_R   0.581430 0.371450 0.499990 -0.491322
O2    O     O_R   0.418570 0.628550 0.500010 -0.511803
O3    O     O_R   0.418560 0.371460 0.499990 -0.495319
O4    O     O_R   0.581440 0.628540 0.500010 -0.474761
O5    O     O_R   0.590350 0.499180 0.613920 -0.517323
O6    O     O_R   0.409650 0.500820 0.386080 -0.498028
O7    O     O_R   0.427480 0.499190 0.613920 -0.470185
O8    O     O_R   0.572520 0.500810 0.386080 -0.479847

loop_
_geom_bond_atom_site_label_1
_geom_bond_atom_site_label_2
_ccdc_geom_bond_type
Cu2   O3    S    
C27   C29   A    
C16   O7    A    
Cu1   N4    S    
C36   I3    S    
C1    O3    A    
Cu2   O2    S    
C35   C37   A    
C24   C26   A    
C11   C14   A    
C24   H14   S    
C5    I7    S    
C6    I8    S    
C11   H12   S    
C33   C35   A    
C6    C15   A    
C3    C38   A    
Cu2   N3    S    
C17   O8    A    
Cu1   O4    S    
C18   C20   A    
C38   I5    S    
C7    H1    S    
C12   O4    A    
C29   H3    S    
C30   H4    S    
C10   H11   S    
C1    C34   S    
C13   H13   S    
C23   H7    S    
C16   O5    A    
C26   N2    S    
C25   N1    S    
Cu1   Cu2   S    
C5    C7    A    
C27   H16   S    
C6    C8    A    
C22   C25   A    
C1    O1    A    
C23   C31   A    
C2    C4    A    
C9    N3    A    
C21   I1    S    
C23   C34   A    
Cu1   O1    S    
C18   C29   A    
Cu1   O8    S    
C12   C35   S    
C3    C31   A    
C9    C11   A    
C5    C14   A    
C4    C32   A    
C20   C22   A    
C8    N4    A    
C13   C15   A    
C17   O6    A    
C20   I2    S    
C3    C4    S    
C12   O2    A    
C19   C21   A    
C32   H6    S    
C9    H10   S    
C10   C13   A    
C22   H15   S    
C10   N4    A    
C25   C27   A    
C26   C28   A    
Cu2   O7    S    
C32   C33   A    
C36   C38   A    
C28   C30   A    
C2    C37   A    
C28   H2    S    
C17   C19   S    
Cu2   O6    S    
C34   C36   A    
Cu1   O5    S    
C37   I4    S    
C7    N3    A    
C16   C18   S    
N1    N2    D    
C31   H5    S    
C21   C24   A    
C33   H8    S    
C14   C15   S    
C19   C30   A    
C8    H9    S    
C2    I6    S    
