data_mof_unit_36208.cif
_audit_creation_date              2013-03-05T16:06:22-0500
_audit_creation_method            fapswitch 2.2
_symmetry_space_group_name_H-M    P1
_symmetry_Int_Tables_number       1
_space_group_crystal_system       triclinic
_cell_length_a                    10.838136
_cell_length_b                    9.496165
_cell_length_c                    27.825374
_cell_angle_alpha                 90.260088
_cell_angle_beta                  90.239617
_cell_angle_gamma                 89.941625
_cell_volume                      2863.75176086

loop_
_atom_site_label
_atom_site_type_symbol
_atom_site_description
_atom_site_fract_x
_atom_site_fract_y
_atom_site_fract_z
_atom_type_partial_charge
O1    O     O_R   0.319640 0.618740 0.500000 -0.588536
O2    O     O_R   0.680360 0.381260 0.500000 -0.588233
O3    O     O_R   0.680360 0.618740 0.500000 -0.588434
O4    O     O_R   0.319640 0.381260 0.500000 -0.588669
C1    C     C_R   0.261983 0.500042 0.499969 0.793130
C2    C     C_R   0.738016 0.499959 0.500046 0.793461
O5    O     O_R   0.500020 0.618770 0.430260 -0.584711
O6    O     O_R   0.499980 0.381230 0.569740 -0.584152
O7    O     O_R   0.499980 0.618770 0.569740 -0.586049
O8    O     O_R   0.500020 0.381230 0.430260 -0.584788
C3    C     C_R   0.499733 0.499683 0.407393 0.829785
C4    C     C_R   0.500427 0.500400 0.592594 0.830569
Cu1   Cu    Cu3+1 0.500000 0.640660 0.500000 0.945367
Cu2   Cu    Cu3+1 0.500000 0.359340 0.500000 0.946434
C5    C     C_R   0.400271 0.551979 0.177722 0.534455
C6    C     C_R   0.618777 0.477330 0.822180 0.531721
O9    O     O_2   0.302241 0.598750 0.202927 -0.515162
O10   O     O_2   0.721372 0.446417 0.796947 -0.508024
N1    N     N_R   0.499897 0.498438 0.201887 -0.460833
N2    N     N_R   0.512050 0.508308 0.797987 -0.457302
C7    C     C_R   0.599956 0.446169 0.177995 0.591604
C8    C     C_R   0.405583 0.539406 0.821897 0.602614
C9    C     C_R   0.500534 0.625278 0.278882 -0.171652
C10   C     C_R   0.526699 0.380457 0.721392 -0.178298
C11   C     C_R   0.500028 0.626106 0.328940 -0.219198
C12   C     C_R   0.523387 0.377671 0.671336 -0.221613
C13   C     C_R   0.497691 0.370686 0.328983 -0.298281
C14   C     C_R   0.487270 0.629684 0.670543 -0.312622
C15   C     C_R   0.495997 0.369444 0.278703 0.491656
C16   C     C_R   0.494789 0.634147 0.720905 0.514054
C17   C     C_R   0.499261 0.497546 0.253514 0.259906
C18   C     C_R   0.511441 0.507776 0.746347 0.266403
C19   C     C_R   0.501501 0.501004 0.101770 -0.111546
C20   C     C_R   0.511889 0.508879 0.898155 -0.117526
C21   C     C_R   0.399200 0.556488 0.126992 -0.108547
C22   C     C_R   0.621438 0.477291 0.872994 -0.124185
C23   C     C_R   0.299561 0.614940 0.101054 0.477864
C24   C     C_R   0.730388 0.449859 0.899222 0.499808
C25   C     C_R   0.601944 0.444613 0.127668 -0.015657
C26   C     C_R   0.403929 0.542021 0.872211 -0.005493
C27   C     C_R   0.499012 0.498836 0.354458 -0.100920
C28   C     C_R   0.503414 0.502250 0.645498 -0.092682
H1    H     H_    0.497875 0.271191 0.347875 0.170265
H2    H     H_    0.467184 0.725510 0.651061 0.163557
C29   C     C_R   0.401082 0.548828 0.973903 0.092666
C30   C     C_R   0.609867 0.451894 0.025976 0.094824
C31   C     C_R   0.615828 0.464241 0.975126 -0.025135
C32   C     C_R   0.401836 0.555997 0.024856 -0.025593
C33   C     C_R   0.509814 0.507715 0.949221 0.067644
C34   C     C_R   0.504163 0.502513 0.050721 0.071580
C35   C     C_R   0.294111 0.579205 0.946650 -0.210970
C36   C     C_R   0.706095 0.390263 0.053127 -0.219352
C37   C     C_R   0.296003 0.575807 0.896859 -0.159519
C38   C     C_R   0.702265 0.387462 0.102947 -0.171513
O11   O     O_2   0.301188 0.566581 0.796947 -0.522468
O12   O     O_2   0.697804 0.396864 0.202967 -0.523381
C39   C     C_R   0.304103 0.617801 0.050770 -0.313279
C40   C     C_R   0.725274 0.437343 0.949296 -0.309598
H3    H     H_    0.536099 0.278022 0.652913 0.161957
H4    H     H_    0.501101 0.726424 0.347609 0.168815
H5    H     H_    0.540341 0.283261 0.740939 0.156140
H6    H     H_    0.502525 0.724132 0.259665 0.156590
H7    H     H_    0.212096 0.600230 0.877622 0.167646
H8    H     H_    0.779188 0.340585 0.122068 0.181829
H9    H     H_    0.231448 0.674599 0.032817 0.148174
H10   H     H_    0.810330 0.410452 0.967136 0.140967
C41   C     C_R   0.063956 0.372052 0.499906 -0.179021
C42   C     C_R   0.936043 0.627950 0.500147 -0.178775
C43   C     C_R   0.936292 0.372005 0.499966 -0.178326
C44   C     C_R   0.063707 0.627998 0.500088 -0.178438
H11   H     H_    0.112077 0.272009 0.499805 0.149562
H12   H     H_    0.887921 0.727993 0.500248 0.149625
H13   H     H_    0.888365 0.271952 0.499920 0.149699
H14   H     H_    0.111634 0.728050 0.500135 0.149573
C45   C     C_R   0.871823 0.499951 0.500066 -0.018588
C46   C     C_R   0.128176 0.500051 0.499976 -0.018620
C47   C     C_R   0.423666 0.074196 0.469882 -0.023284
C48   C     C_R   0.576316 0.925803 0.530127 -0.026818
C49   C     C_R   0.576333 0.074802 0.530120 -0.024543
C50   C     C_R   0.423652 0.925198 0.469887 -0.023638
N3    N     N_R   0.500000 0.852070 0.500000 -0.156515
N4    N     N_R   0.500000 0.147930 0.500000 -0.156018
H15   H     H_    0.362594 0.130279 0.445781 0.115647
H16   H     H_    0.637370 0.869722 0.554236 0.116498
H17   H     H_    0.637424 0.131367 0.554218 0.115883
H18   H     H_    0.362548 0.868633 0.445796 0.117992
O13   O     O_3   0.499624 0.242760 0.254169 -0.587129
C51   C     C_3   0.377699 0.194703 0.247207 0.024435
H19   H     H_    0.321654 0.274256 0.227363 0.158002
H20   H     H_    0.333468 0.172253 0.282448 0.139389
C52   C     C_3   0.381130 0.058985 0.217522 -0.320988
H21   H     H_    0.425260 0.080264 0.182293 0.229933
H22   H     H_    0.437245 0.978776 0.236724 0.225372
C53   C     C_3   0.251791 0.000602 0.208873 -0.850112
H23   H     H_    0.206762 0.975908 0.243615 0.258439
H24   H     H_    0.257933 0.902426 0.187234 0.308303
H25   H     H_    0.194571 0.078079 0.188916 0.247192
O14   O     O_3   0.473716 0.758104 0.746160 -0.588745
C54   C     C_3   0.566423 0.858947 0.736499 0.040354
H26   H     H_    0.530902 0.963082 0.748514 0.179742
H27   H     H_    0.586630 0.869816 0.697510 0.119573
C55   C     C_3   0.685041 0.826773 0.764640 -0.386180
H28   H     H_    0.663270 0.815680 0.803449 0.229563
H29   H     H_    0.725372 0.726019 0.751610 0.230947
C56   C     C_3   0.780056 0.943614 0.758331 -0.857906
H30   H     H_    0.800639 0.958891 0.719615 0.253649
H31   H     H_    0.866934 0.914660 0.777103 0.266467
H32   H     H_    0.744985 0.044036 0.773783 0.269664
O15   O     O_3   0.205198 0.684490 0.125092 -0.581628
C57   C     C_3   0.087346 0.631514 0.112088 0.085209
H33   H     H_    0.043559 0.589285 0.145055 0.188489
H34   H     H_    0.088900 0.543128 0.085471 0.108915
C58   C     C_3   0.007691 0.752162 0.092903 -0.362901
H35   H     H_    0.999650 0.835370 0.120955 0.237730
H36   H     H_    0.052251 0.799119 0.060879 0.211705
C59   C     C_3   0.878843 0.701546 0.078947 -0.894267
H37   H     H_    0.884710 0.620623 0.050098 0.252445
H38   H     H_    0.823538 0.791590 0.065389 0.260693
H39   H     H_    0.831426 0.656621 0.110675 0.270090
O16   O     O_3   0.841202 0.428104 0.875551 -0.561188
C60   C     C_3   0.925584 0.538147 0.886123 0.087441
H40   H     H_    0.015475 0.506921 0.870456 0.182537
H41   H     H_    0.941648 0.551025 0.925415 0.104863
C61   C     C_3   0.886236 0.678914 0.863518 -0.364369
H42   H     H_    0.873244 0.664645 0.824192 0.258384
H43   H     H_    0.797471 0.714638 0.879273 0.202604
C62   C     C_3   0.982487 0.793427 0.872346 -0.894503
H44   H     H_    0.005270 0.801491 0.911228 0.250996
H45   H     H_    0.945647 0.896535 0.860276 0.267252
H46   H     H_    0.067531 0.770168 0.851709 0.272591
H47   H     H_    0.205915 0.601594 0.962786 0.128472
H48   H     H_    0.785289 0.340880 0.036918 0.139015

loop_
_geom_bond_atom_site_label_1
_geom_bond_atom_site_label_2
_geom_bond_distance
_ccdc_geom_bond_type
O13   C51   1.410770 S    
C10   H5    1.083149 S    
C30   C36   1.413203 A    
C13   C15   1.399114 A    
O3    C2    1.288936 A    
N1    C17   1.436661 S    
C49   N4    1.366530 A    
C10   C18   1.401504 A    
C32   C39   1.409845 A    
C31   C33   1.415984 A    
C42   C45   1.401279 A    
O5    C3    1.295061 A    
C56   H31   1.109824 S    
C19   C25   1.409575 A    
O1    C1    1.289359 A    
C21   C23   1.411046 A    
C10   C12   1.393271 A    
C29   C32   1.419095 A    
C25   C38   1.397001 A    
C29   C35   1.412939 A    
Cu1   N3    2.007584 S    
C59   H37   1.110728 S    
C55   C56   1.525769 S    
C14   C28   1.404863 A    
O7    Cu1   1.952582 S    
C57   H33   1.111261 S    
C60   C61   1.539031 S    
C50   H18   1.081780 S    
C5    N1    1.368360 A    
C40   H10   1.076228 S    
C9    H6    1.082732 S    
C44   H14   1.083295 S    
C4    C28   1.472336 S    
C43   H13   1.083295 S    
C11   H4    1.083041 S    
C12   H3    1.083120 S    
C23   O15   1.389198 S    
O3    Cu1   1.965607 S    
O6    C4    1.295572 A    
C58   C59   1.525479 S    
C24   O16   1.387010 S    
C32   C34   1.414694 A    
C24   C40   1.400283 A    
Cu1   Cu2   2.671461 S    
O2    C2    1.289359 A    
C5    C21   1.412440 A    
C36   C38   1.387431 A    
C56   H32   1.111597 S    
C15   O13   1.381117 S    
C55   H28   1.111780 S    
C36   H48   1.077282 S    
C2    C45   1.450210 S    
O8    Cu2   1.952582 S    
C11   C27   1.404573 A    
C52   H21   1.111936 S    
C35   H47   1.078346 S    
C48   C49   1.414923 A    
C50   N3    1.366504 A    
C53   H25   1.110932 S    
C19   C34   1.421009 A    
C14   H2    1.082777 S    
C58   H36   1.110747 S    
C42   H12   1.083301 S    
C35   C37   1.385897 A    
C9    C17   1.400684 A    
C55   H29   1.111429 S    
C62   H45   1.109956 S    
C48   H16   1.081816 S    
C52   H22   1.111558 S    
C13   C27   1.405594 A    
C54   H26   1.111378 S    
C7    C25   1.400623 A    
C51   C52   1.528124 S    
C29   C33   1.419962 A    
C6    N2    1.368325 A    
C8    C26   1.400303 A    
C53   H24   1.109620 S    
C57   C58   1.530541 S    
C60   H40   1.108566 S    
C61   C62   1.526054 S    
C6    O10   1.348893 S    
C54   H27   1.112957 S    
N2    C8    1.365742 A    
C26   C37   1.394817 A    
C44   C46   1.400969 A    
C20   C26   1.408396 A    
O1    Cu1   1.966029 S    
Cu2   N4    2.007585 S    
C62   H44   1.111038 S    
C49   H17   1.081797 S    
O16   C60   1.418388 S    
C12   C28   1.403270 A    
C61   H43   1.111002 S    
C58   H35   1.111778 S    
N2    C18   1.436887 S    
C47   C50   1.414915 A    
C5    O9    1.349225 S    
C16   O14   1.387401 S    
C30   C31   1.422052 A    
C20   C33   1.421276 A    
O6    Cu2   1.950706 S    
N1    C7    1.366130 A    
C51   H20   1.114838 S    
O4    C1    1.288941 A    
C52   C53   1.525738 S    
C7    O12   1.349985 S    
C8    O11   1.350267 S    
C56   H30   1.111224 S    
C30   C34   1.421299 A    
C59   H39   1.110481 S    
C1    C46   1.450220 S    
C22   C24   1.410190 A    
C62   H46   1.109487 S    
C15   C17   1.407241 A    
O15   C57   1.418200 S    
C6    C22   1.414110 A    
C31   C40   1.411982 A    
C16   C18   1.407139 A    
C37   H7    1.078859 S    
C48   N3    1.366440 A    
C38   H8    1.083517 S    
C47   N4    1.366419 A    
C14   C16   1.403808 A    
C19   C21   1.414722 A    
C20   C22   1.412142 A    
C59   H38   1.110292 S    
C43   C45   1.400964 A    
C41   H11   1.083300 S    
C9    C11   1.392897 A    
O4    Cu2   1.965607 S    
C53   H23   1.110834 S    
O2    Cu2   1.966029 S    
O7    C4    1.293974 A    
C57   H34   1.116999 S    
C60   H41   1.112585 S    
O8    C3    1.294845 A    
C13   H1    1.083298 S    
O5    Cu1   1.950706 S    
C54   C55   1.533688 S    
C51   H19   1.115621 S    
C42   C44   1.383649 A    
O14   C54   1.416132 S    
C3    C27   1.472918 S    
C47   H15   1.081806 S    
C41   C46   1.401280 A    
C41   C43   1.383648 A    
C23   C39   1.400625 A    
C61   H42   1.110393 S    
C39   H9    1.076495 S    
