data_mof_unit_22323.cif
_audit_creation_date              2013-03-05T15:52:31-0500
_audit_creation_method            fapswitch 2.2
_symmetry_space_group_name_H-M    P1
_symmetry_Int_Tables_number       1
_space_group_crystal_system       triclinic
_cell_length_a                    27.760716
_cell_length_b                    10.849118
_cell_length_c                    9.578672
_cell_angle_alpha                 89.096338
_cell_angle_beta                  90.270345
_cell_angle_gamma                 92.951973
_cell_volume                      2880.6890963

loop_
_atom_site_label
_atom_site_type_symbol
_atom_site_description
_atom_site_fract_x
_atom_site_fract_y
_atom_site_fract_z
_atom_type_partial_charge
O1    O     O_R   0.500000 0.319640 0.618810 -0.596329
O2    O     O_R   0.500000 0.319660 0.381240 -0.572012
C1    C     C_R   0.502931 0.262535 0.502281 0.789869
O3    O     O_R   0.430260 0.500010 0.618770 -0.543537
O4    O     O_R   0.430270 0.500030 0.381200 -0.523023
C2    C     C_R   0.407597 0.499254 0.499613 0.828953
Cu1   Cu    Cu3+1 0.500000 0.499990 0.640660 0.947466
Cu2   Cu    Cu3+1 0.500000 0.500010 0.359340 0.992115
O5    O     O_R   0.500000 0.680340 0.618760 -0.606615
O6    O     O_R   0.500000 0.680360 0.381190 -0.579853
O7    O     O_R   0.569730 0.499970 0.618800 -0.607151
O8    O     O_R   0.569740 0.499990 0.381230 -0.606832
C3    C     C_R   0.496661 0.737005 0.499663 0.786152
C4    C     C_R   0.592507 0.501367 0.500388 0.813532
C5    C     C_R   0.175723 0.411749 0.457645 0.542686
O9    O     O_2   0.197968 0.308374 0.424821 -0.550248
N1    N     N_R   0.202535 0.516991 0.489668 -0.454629
C6    C     C_R   0.181060 0.624105 0.519838 0.545806
C7    C     C_R   0.282196 0.578516 0.392952 -0.105070
C8    C     C_R   0.332243 0.572712 0.395170 -0.266941
C9    C     C_R   0.326576 0.434207 0.597375 0.407328
C10   C     C_R   0.276403 0.443063 0.596333 -0.194084
C11   C     C_R   0.254132 0.513929 0.493677 0.293584
C12   C     C_R   0.102277 0.519237 0.492064 -0.047426
C13   C     C_R   0.125172 0.410811 0.458570 -0.015075
C14   C     C_R   0.097197 0.304832 0.423996 -0.191163
C15   C     C_R   0.130539 0.627458 0.520732 -0.025229
C16   C     C_R   0.354826 0.502076 0.498084 -0.137280
H1    H     H_    0.254599 0.392741 0.673864 0.154994
H2    H     H_    0.113829 0.221980 0.391049 0.190269
C17   C     C_R   0.645543 0.506804 0.502192 -0.091140
C18   C     C_R   0.972580 0.405008 0.497508 -0.067149
C19   C     C_R   0.977406 0.632523 0.512892 0.068181
C20   C     C_R   0.949686 0.518927 0.505830 0.011877
C21   C     C_R   0.943741 0.293350 0.515693 0.436066
C22   C     C_R   0.893459 0.295901 0.514912 -0.231112
C23   C     C_R   0.870624 0.407529 0.509376 -0.108862
C24   C     C_R   0.898580 0.519390 0.507656 -0.048782
C25   C     C_R   0.875303 0.631804 0.507045 -0.003581
C26   C     C_R   0.824686 0.630008 0.505258 0.515243
N2    N     N_R   0.798300 0.520048 0.507597 -0.450633
C27   C     C_R   0.820125 0.409894 0.509544 0.625232
C28   C     C_R   0.721965 0.543931 0.383572 -0.159840
C29   C     C_R   0.671730 0.537892 0.380590 -0.176245
C30   C     C_R   0.670371 0.482486 0.626892 -0.309080
C31   C     C_R   0.720980 0.492114 0.631752 0.511931
C32   C     C_R   0.746653 0.519726 0.508010 0.268716
O10   O     O_2   0.792976 0.303024 0.511042 -0.508022
C33   C     C_R   0.023304 0.407739 0.476197 0.042327
C34   C     C_R   0.051169 0.519404 0.496549 0.063863
C35   C     C_R   0.028459 0.631260 0.520314 0.043559
C36   C     C_R   0.047185 0.303933 0.430299 -0.172894
H3    H     H_    0.653461 0.557189 0.283159 0.176941
H4    H     H_    0.741841 0.565938 0.288637 0.153066
H5    H     H_    0.872469 0.209030 0.522366 0.202388
H6    H     H_    0.027948 0.222064 0.392979 0.205763
O11   O     O_2   0.208490 0.726552 0.550323 -0.540489
C37   C     C_R   0.107844 0.735894 0.551120 -0.142898
H7    H     H_    0.353414 0.624433 0.317271 0.199733
H8    H     H_    0.265168 0.632861 0.312734 0.162086
H9    H     H_    0.128722 0.820018 0.575394 0.186790
C38   C     C_R   0.952976 0.743783 0.511356 -0.211978
C39   C     C_R   0.902910 0.743188 0.507727 -0.150239
O12   O     O_2   0.802007 0.737087 0.501712 -0.541652
C40   C     C_R   0.057787 0.738162 0.550317 -0.211403
H10   H     H_    0.971667 0.833379 0.508500 0.146789
H11   H     H_    0.650475 0.453664 0.719781 0.167168
H12   H     H_    0.885911 0.830896 0.505882 0.190560
H13   H     H_    0.043027 0.824503 0.577687 0.140938
H14   H     H_    0.517622 0.115475 0.286291 0.164589
C41   C     C_R   0.508222 0.108761 0.771268 -0.235702
H15   H     H_    0.527644 0.195949 0.787684 0.188717
C42   C     C_R   0.495082 0.040983 0.891355 -0.212044
H16   H     H_    0.502701 0.079065 0.993163 0.149082
C43   C     C_R   0.471870 0.925130 0.879717 0.423620
C44   C     C_R   0.466100 0.872631 0.748895 -0.200736
H17   H     H_    0.446178 0.784581 0.743534 0.195681
C45   C     C_R   0.485698 0.933029 0.628292 0.027141
C46   C     C_R   0.499849 0.059158 0.636384 0.110053
C47   C     C_R   0.505960 0.128057 0.509126 -0.108042
C48   C     C_R   0.510043 0.065816 0.383173 -0.194900
H18   H     H_    0.512342 0.893120 0.283040 0.218173
C49   C     C_R   0.505759 0.938536 0.380457 -0.155136
C50   C     C_R   0.493412 0.870938 0.501586 -0.098538
C51   C     C_R   0.565144 0.662045 0.142466 -0.171308
H19   H     H_    0.566720 0.672090 0.252289 0.214968
C52   C     C_R   0.597272 0.741178 0.069534 0.360807
C53   C     C_R   0.597697 0.740212 0.925586 -0.253346
H20   H     H_    0.622424 0.802431 0.868159 0.188900
C54   C     C_R   0.565814 0.660961 0.854085 -0.186475
H21   H     H_    0.568264 0.670653 0.743958 0.216589
C55   C     C_R   0.532702 0.578062 0.924309 0.212764
C56   C     C_R   0.532631 0.578092 0.073893 0.107489
N3    N     N_R   0.500460 0.501210 0.147910 -0.215916
C57   C     C_R   0.467212 0.429210 0.075382 0.542920
H22   H     H_    0.440505 0.375138 0.869733 0.169206
C58   C     C_R   0.467658 0.429250 0.926323 -0.152432
N4    N     N_R   0.500480 0.501290 0.852040 -0.215660
O13   O     O_3   0.347834 0.358662 0.694915 -0.601141
C59   C     C_3   0.341808 0.235449 0.649598 0.054969
H23   H     H_    0.360264 0.224842 0.547900 0.126216
H24   H     H_    0.302825 0.207168 0.637972 0.163917
C60   C     C_3   0.363869 0.149460 0.757114 -0.345289
H25   H     H_    0.403066 0.173829 0.767760 0.219819
H26   H     H_    0.346300 0.160877 0.859797 0.228735
C61   C     C_3   0.356917 0.014856 0.714143 -0.868151
H27   H     H_    0.318033 0.989345 0.698323 0.271294
H28   H     H_    0.370834 0.954302 0.797870 0.272636
H29   H     H_    0.376783 0.999450 0.616020 0.254348
O14   O     O_3   0.746104 0.461550 0.751905 -0.590010
C62   C     C_3   0.736789 0.543007 0.861654 0.031252
H30   H     H_    0.747389 0.497200 0.960889 0.185536
H31   H     H_    0.697947 0.561568 0.872635 0.131342
C63   C     C_3   0.767041 0.664582 0.845333 -0.385037
H32   H     H_    0.805683 0.644727 0.833418 0.238019
H33   H     H_    0.755199 0.714954 0.750408 0.250771
C64   C     C_3   0.761468 0.746749 0.971467 -0.804315
H34   H     H_    0.723118 0.768821 0.983945 0.286274
H35   H     H_    0.783438 0.834311 0.956141 0.268165
H36   H     H_    0.774040 0.699890 0.067913 0.251313
Cl1   Cl    Cl    0.452684 0.841032 0.028855 -0.700619
O15   O     O_3   0.428927 0.373300 0.148207 -0.569674
C65   C     C_3   0.425690 0.244974 0.126958 0.049032
H37   H     H_    0.461424 0.204648 0.140360 0.126912
H38   H     H_    0.411290 0.224331 0.021220 0.127563
C66   C     C_3   0.391022 0.186344 0.235375 -0.329728
H39   H     H_    0.405668 0.205020 0.341467 0.211028
H40   H     H_    0.355478 0.228549 0.225706 0.232752
C67   C     C_3   0.383921 0.047296 0.217637 -0.839563
H41   H     H_    0.370198 0.025760 0.111170 0.276043
H42   H     H_    0.357405 0.009111 0.295448 0.251745
H43   H     H_    0.418531 0.002897 0.235397 0.293201
Cl2   Cl    Cl    0.636566 0.844089 0.159977 -0.635261
O16   O     O_3   0.964010 0.180459 0.536296 -0.636769
C68   C     C_3   0.961566 0.144819 0.679141 0.041552
H44   H     H_    0.960704 0.042334 0.684362 0.167250
H45   H     H_    0.928105 0.172438 0.731839 0.144759
C69   C     C_3   0.006328 0.195151 0.758219 -0.350893
H46   H     H_    0.039330 0.165512 0.705696 0.234079
H47   H     H_    0.007231 0.297641 0.757498 0.220965
C70   C     C_3   0.006285 0.148760 0.909431 -0.888137
H48   H     H_    0.973922 0.178931 0.964646 0.261186
H49   H     H_    0.039001 0.187134 0.963843 0.261566
H50   H     H_    0.006482 0.046399 0.913476 0.256411

loop_
_geom_bond_atom_site_label_1
_geom_bond_atom_site_label_2
_geom_bond_distance
_ccdc_geom_bond_type
C68   C69   1.533075 S    
C52   C53   1.379152 A    
C66   H39   1.110490 S    
C10   H1    1.083227 S    
N2    C27   1.367275 A    
C52   Cl2   1.755890 S    
C7    C8    1.394030 A    
C12   C15   1.408091 A    
C4    C17   1.470485 S    
C28   C29   1.392908 A    
C41   C46   1.420958 A    
C63   H32   1.111705 S    
C55   N4    1.381545 A    
C65   H37   1.110713 S    
C30   C31   1.404049 A    
Cu1   O7    1.948040 S    
C3    C50   1.460896 S    
C23   C24   1.406355 A    
C22   C23   1.395727 A    
Cu1   N4    2.024988 S    
C44   C45   1.416064 A    
C64   H35   1.110301 S    
C35   C40   1.414778 A    
C24   C25   1.409217 A    
C9    O13   1.383261 S    
O7    C4    1.300678 A    
C65   H38   1.109011 S    
C61   H27   1.110779 S    
C5    O9    1.349927 S    
C58   N4    1.364758 A    
Cu1   O5    1.964559 S    
C42   H16   1.080819 S    
C23   C27   1.403450 A    
H14   C48   1.081720 S    
O5    C3    1.292545 A    
O14   C62   1.417181 S    
C55   C56   1.432832 A    
C37   C40   1.391085 A    
O1    Cu1   1.971080 S    
C31   C32   1.406176 A    
C51   C56   1.415738 A    
C29   H3    1.082730 S    
C2    C16   1.466844 S    
C21   C22   1.397562 A    
C19   C38   1.414521 A    
C30   H11   1.082856 S    
C60   C61   1.525916 S    
C67   H43   1.107996 S    
C37   H9    1.083458 S    
C68   H44   1.111241 S    
C20   C24   1.419212 A    
C9    C10   1.401049 A    
C42   C43   1.388452 A    
O3    Cu1   1.946383 S    
C1    C47   1.466123 S    
C21   O16   1.384882 S    
C48   C49   1.380518 A    
N1    C6    1.368554 A    
C51   C52   1.388765 A    
C12   C34   1.419753 A    
C17   C29   1.403325 A    
C38   H10   1.078043 S    
C18   C21   1.426011 A    
Cu1   Cu2   2.694669 S    
Cu2   N3    2.025151 S    
C12   C13   1.407655 A    
C60   H26   1.111406 S    
C64   H36   1.110910 S    
C25   C26   1.404337 A    
C41   C42   1.395192 A    
C45   C46   1.407313 A    
C65   C66   1.528015 S    
C27   O10   1.349860 S    
C8    C16   1.404248 A    
C66   C67   1.523341 S    
C13   C14   1.397292 A    
C51   H19   1.059760 S    
C69   C70   1.525832 S    
C59   C60   1.525977 S    
O1    C1    1.290042 A    
C18   C20   1.422066 A    
C7    C11   1.399420 A    
C43   C44   1.389793 A    
C38   C39   1.389824 A    
C14   C36   1.389486 A    
C6    O11   1.349601 S    
C54   C55   1.417018 A    
C49   C50   1.397332 A    
Cu2   O8    1.946378 S    
C33   C36   1.412940 A    
H22   C58   1.080398 S    
C59   H24   1.115097 S    
C34   C35   1.418037 A    
N2    C32   1.433623 S    
C62   H31   1.112856 S    
C56   N3    1.380791 A    
N1    C11   1.434777 S    
C44   H17   1.080692 S    
C8    H7    1.083533 S    
C69   H47   1.110837 S    
C57   O15   1.382525 S    
O3    C2    1.300609 A    
C26   N2    1.367296 A    
C9    C16   1.409689 A    
C53   C54   1.387867 A    
C14   H2    1.083423 S    
C31   O14   1.387516 S    
C70   H50   1.110879 S    
C67   H41   1.111044 S    
C68   H45   1.115935 S    
C39   H12   1.083563 S    
C66   H40   1.111864 S    
C62   H30   1.111120 S    
C43   Cl1   1.752970 S    
O2    Cu2   1.964559 S    
C6    C15   1.404932 A    
O8    C4    1.301991 A    
C47   C48   1.399727 A    
O6    C3    1.304960 A    
O4    Cu2   1.948043 S    
C63   H33   1.110618 S    
C57   C58   1.427888 A    
C5    N1    1.368617 A    
O16   C68   1.416946 S    
C7    H8    1.082817 S    
C19   C35   1.419471 A    
C25   C39   1.397324 A    
C26   O12   1.349435 S    
O13   C59   1.413464 S    
C70   H49   1.110528 S    
O2    C1    1.310186 A    
C41   H15   1.077747 S    
C22   H5    1.083781 S    
C64   H34   1.110597 S    
C54   H21   1.060602 S    
O4    C2    1.299475 A    
C61   H28   1.109347 S    
C15   C37   1.398045 A    
C40   H13   1.078131 S    
C59   H23   1.113108 S    
C19   C20   1.421285 A    
C62   C63   1.533002 S    
N3    C57   1.371684 A    
C28   H4    1.082910 S    
C18   C33   1.422529 A    
C63   C64   1.525867 S    
C5    C13   1.402908 A    
C69   H46   1.111576 S    
C46   C47   1.426026 A    
C45   C50   1.419759 A    
C53   H20   1.083315 S    
Cu2   O6    1.971080 S    
C33   C34   1.418983 A    
C17   C30   1.404428 A    
C60   H25   1.111078 S    
C10   C11   1.399870 A    
H18   C49   1.082718 S    
O15   C65   1.408427 S    
C70   H48   1.110962 S    
C28   C32   1.400130 A    
C36   H6    1.077623 S    
C67   H42   1.110421 S    
C61   H29   1.111224 S    
