data_mof_unit_21989.cif
_audit_creation_date              2012-12-10T17:33:54-0500
_audit_creation_method            fapswitch 2.2
_symmetry_space_group_name_H-M    P1
_symmetry_Int_Tables_number       1
_space_group_crystal_system       triclinic
_cell_length_a                    10.886227
_cell_length_b                    12.136847
_cell_length_c                    13.001823
_cell_angle_alpha                 91.778944
_cell_angle_beta                  91.046223
_cell_angle_gamma                 85.442546
_cell_volume                      1711.38705155

loop_
_atom_site_label
_atom_site_type_symbol
_atom_type_description
_atom_site_fract_x
_atom_site_fract_y
_atom_site_fract_z
_atom_type_partial_charge
C1    C     C_R   0.495173 0.521967 0.701021 0.975821
C2    C     C_3   0.121178 0.503278 0.510877 -0.241567
C3    C     C_3   0.072250 0.441192 0.410414 0.239473
C4    C     C_3   0.055361 0.626732 0.504199 -0.353186
C5    C     C_R   0.520506 0.467676 0.190991 -0.157419
C6    C     C_R   0.482006 0.537235 0.813658 -0.087413
C7    C     C_R   0.406814 0.635666 0.970512 -0.099244
C8    C     C_R   0.421560 0.632984 0.862765 -0.105437
C9    C     C_R   0.526616 0.449237 0.873238 -0.137666
C10   C     C_R   0.512492 0.450267 0.978410 0.088854
C11   C     C_R   0.456277 0.545409 0.027913 0.075656
C12   C     C_R   0.741580 0.500924 0.508204 0.966358
C13   C     C_R   0.454342 0.549043 0.134555 -0.179000
C14   C     C_R   0.587749 0.377803 0.140762 -0.154342
C15   C     C_R   0.563235 0.361126 0.036250 0.131701
C16   C     C_R   0.405297 0.951984 0.385424 0.111866
C17   C     C_R   0.409080 0.838059 0.402296 -0.009085
C18   C     C_R   0.541065 0.856009 0.545774 0.011120
C19   C     C_R   0.535611 0.972342 0.537000 -0.047838
C20   C     C_R   0.471705 0.022510 0.453431 -0.058911
C21   C     C_R   0.481197 0.139033 0.439929 0.042214
C22   C     C_R   0.572245 0.155497 0.605192 0.055865
C23   C     C_R   0.511362 0.479164 0.301051 0.979106
C24   C     C_R   0.590306 0.039172 0.611067 0.059087
C25   C     C_R   0.257956 0.501224 0.504635 0.969346
C26   C     C_3   0.937102 0.429105 0.604960 0.199885
C27   C     C_3   0.080920 0.448499 0.615757 -0.041591
C28   C     C_3   0.928187 0.457400 0.407963 -0.098298
C29   C     C_3   0.916079 0.627075 0.529728 -0.309732
C30   C     C_3   0.878032 0.503582 0.514953 -0.185054
H1    H     H_    0.055226 0.644859 0.421035 0.196742
H2    H     H_    0.405786 0.617977 0.175081 0.190200
H3    H     H_    0.583210 0.383682 0.838508 0.186221
H4    H     H_    0.358582 0.784853 0.351542 0.160160
H5    H     H_    0.595189 0.814504 0.604857 0.224843
H6    H     H_    0.892617 0.376168 0.391687 0.194639
H7    H     H_    0.867314 0.678435 0.469930 0.192520
N1    N     N_R   0.523380 0.207800 0.519350 -0.187508
N2    N     N_R   0.476620 0.792180 0.480650 -0.131570
O1    O     O_R   0.506240 0.421700 0.658830 -0.616625
O2    O     O_R   0.491240 0.609310 0.646410 -0.577099
O3    O     O_R   0.692710 0.406190 0.506230 -0.596448
O4    O     O_R   0.677700 0.593810 0.493810 -0.603813
O5    O     O_R   0.508760 0.390690 0.353590 -0.572825
O6    O     O_R   0.493760 0.578300 0.341170 -0.639247
O7    O     O_R   0.322300 0.406190 0.506190 -0.567999
O8    O     O_R   0.307290 0.593810 0.493770 -0.626728
Zn1   Zn    Zn3+2 0.510020 0.374730 0.508290 1.066727
Zn2   Zn    Zn3+2 0.489980 0.625270 0.491710 1.029720
I1    I     I_    0.900127 0.254137 0.576222 -0.158677
I2    I     I_    0.843653 0.551206 0.279654 -0.243806
I3    I     I_    0.159701 0.494777 0.271346 -0.198485
C31   C     C_2   0.693265 0.308854 0.188527 1.031326
O9    O     O_2   0.769967 0.259214 0.132929 -0.540816
O10   O     O_R   0.710248 0.302745 0.294751 -0.787509
H8    H     H_    0.779459 0.246101 0.314570 0.362459
C32   C     C_2   0.342708 0.734195 0.023058 0.929144
O11   O     O_2   0.383427 0.824853 0.017632 -0.549818
O12   O     O_R   0.235145 0.722610 0.077507 -0.758623
H9    H     H_    0.199350 0.795179 0.109278 0.376042
I4    I     I_    0.560298 0.193268 0.983141 -0.085555
C33   C     C_2   0.369873 0.730203 0.805560 1.074538
O13   O     O_2   0.260276 0.759887 0.812311 -0.549612
O14   O     O_R   0.447931 0.795311 0.754900 -0.759602
H10   H     H_    0.401897 0.863209 0.725021 0.351973
C34   C     C_2   0.476245 0.174354 0.332643 1.017796
O15   O     O_2   0.554108 0.133636 0.273175 -0.599726
O16   O     O_R   0.377096 0.242098 0.295295 -0.736832
H11   H     H_    0.382030 0.254264 0.218711 0.358958
I5    I     I_    0.833690 0.445573 0.747253 -0.181431
C35   C     C_2   0.587711 0.214233 0.701410 0.989851
O17   O     O_2   0.496675 0.236729 0.753662 -0.591728
O18   O     O_R   0.706562 0.222534 0.741238 -0.755632
H12   H     H_    0.711270 0.241531 0.817127 0.361674
I6    I     I_    0.283693 0.999814 0.261634 -0.152587
I7    I     I_    0.684999 0.966226 0.743003 -0.136237
C36   C     C_2   0.119569 0.523196 0.706689 1.002882
O19   O     O_2   0.229169 0.533347 0.721192 -0.640026
O20   O     O_R   0.037472 0.578236 0.775285 -0.740293
H13   H     H_    0.079718 0.620676 0.832318 0.397338
I8    I     I_    0.188579 0.295457 0.664869 -0.085011
I9    I     I_    0.125660 0.266737 0.390897 -0.147968
C37   C     C_2   0.872389 0.687371 0.630270 1.006189
O21   O     O_2   0.768214 0.678410 0.660423 -0.605095
O22   O     O_R   0.944789 0.760000 0.684842 -0.722799
H14   H     H_    0.905410 0.790972 0.750726 0.387844
C38   C     C_2   0.116102 0.728513 0.544568 1.068022
O23   O     O_2   0.182288 0.725594 0.621112 -0.535314
O24   O     O_R   0.094131 0.827735 0.492835 -0.776502
H15   H     H_    0.139320 0.890062 0.525717 0.361173

loop_
_geom_bond_atom_site_label_1
_geom_bond_atom_site_label_2
_ccdc_geom_bond_type
C34   O16   S    
O10   H8    S    
C23   O6    A    
C21   C34   S    
C16   I6    S    
O18   H12   S    
C13   H2    S    
C19   C20   A    
C38   O23   D    
C6    C9    A    
C7    C8    A    
O8    Zn2   S    
C4    C38   S    
C31   O9    D    
C7    C11   A    
C26   C27   S    
C33   O13   D    
C3    C28   S    
C29   C37   S    
C12   O4    A    
C10   C15   A    
C26   I1    S    
C28   I2    S    
C32   O12   S    
C22   N1    A    
C18   C19   A    
C17   N2    A    
C12   O3    A    
C1    O1    A    
O16   H11   S    
C21   N1    A    
C16   C17   A    
C33   O14   S    
C2    C27   S    
C18   H5    S    
C25   O8    A    
N1    Zn1   S    
C4    C29   S    
C36   O19   D    
C12   C30   S    
C36   O20   S    
C34   O15   D    
O12   H9    S    
C9    H3    S    
O2    Zn2   S    
C31   O10   S    
O7    Zn1   S    
C1    C6    S    
C27   I8    S    
C35   O18   S    
O4    Zn2   S    
C6    C8    A    
O22   H14   S    
C23   O5    A    
C2    C4    S    
C18   N2    A    
C29   C30   S    
C37   O21   D    
C5    C23   S    
O6    Zn2   S    
C16   C20   A    
C3    I9    S    
C15   I4    S    
O3    Zn1   S    
C5    C14   A    
C1    O2    A    
N2    Zn2   S    
C26   C30   S    
C38   O24   S    
C26   I5    S    
C22   C24   A    
C17   H4    S    
C22   C35   S    
C9    C10   A    
O1    Zn1   S    
C37   O22   S    
C5    C13   A    
C24   I7    S    
C27   C36   S    
C3    I3    S    
O14   H10   S    
C28   C30   S    
C2    C3    S    
C35   O17   D    
C11   C13   A    
C32   O11   D    
C19   C24   A    
C2    C25   S    
C4    H1    S    
C10   C11   A    
O20   H13   S    
C14   C31   S    
C20   C21   A    
C28   H6    S    
C29   H7    S    
C14   C15   A    
O24   H15   S    
C25   O7    A    
C7    C32   S    
O5    Zn1   S    
C8    C33   S    
