data_mof_unit_21448.cif
_audit_creation_date              2012-12-10T16:45:24-0500
_audit_creation_method            fapswitch 2.2
_symmetry_space_group_name_H-M    P1
_symmetry_Int_Tables_number       1
_space_group_crystal_system       triclinic
_cell_length_a                    7.425847
_cell_length_b                    8.692454
_cell_length_c                    15.759763
_cell_angle_alpha                 94.199775
_cell_angle_beta                  74.489894
_cell_angle_gamma                 103.260842
_cell_volume                      954.014868261

loop_
_atom_site_label
_atom_site_type_symbol
_atom_type_description
_atom_site_fract_x
_atom_site_fract_y
_atom_site_fract_z
_atom_type_partial_charge
C1    C     C_R   0.545152 0.800209 0.502619 0.894201
C2    C     C_R   0.617558 0.512405 0.333323 0.851512
C3    C     C_R   0.307536 0.467907 0.762950 -0.158084
C4    C     C_R   0.692464 0.532093 0.237050 -0.158084
C5    C     C_R   0.075826 0.338637 0.891127 -0.210735
C6    C     C_R   0.924174 0.661363 0.108872 -0.210735
C7    C     C_R   0.129295 0.367102 0.800889 -0.103087
C8    C     C_R   0.870705 0.632898 0.199110 -0.103087
C9    C     C_R   0.426608 0.540706 0.817270 0.284192
C10   C     C_R   0.573392 0.459293 0.182730 0.284192
C11   C     C_R   0.390209 0.486098 0.904028 0.017817
C12   C     C_R   0.454848 0.199791 0.497381 0.894201
C13   C     C_R   0.609791 0.513902 0.095972 0.017817
C14   C     C_R   0.204846 0.395835 0.942525 0.081726
C15   C     C_R   0.795154 0.604164 0.057474 0.081726
C16   C     C_R   0.528829 0.518802 0.954397 0.077750
C17   C     C_R   0.471171 0.481197 0.045603 0.077750
C18   C     C_1   0.002508 0.707825 0.250352 0.300738
C19   C     C_1   0.997492 0.292175 0.749648 0.300739
C20   C     C_R   0.275206 0.420417 0.084286 -0.138461
C21   C     C_R   0.724794 0.579582 0.915714 -0.138461
C22   C     C_R   0.147331 0.368803 0.032817 -0.186393
C23   C     C_R   0.852669 0.631196 0.967183 -0.186393
C24   C     C_2   0.570510 0.968139 0.503955 -0.331506
C25   C     C_2   0.429490 0.031861 0.496045 -0.331506
C26   C     C_R   0.382442 0.487595 0.666677 0.851513
Cl1   Cl    Cl    0.417900 0.273885 0.216746 -0.634365
Cl2   Cl    Cl    0.582100 0.726115 0.783254 -0.634365
Cu1   Cu    Cu3+1 0.322120 0.483240 0.490330 1.012544
Cu2   Cu    Cu3+1 0.677880 0.516760 0.509670 1.012544
H1    H     H_    0.000641 0.312302 0.064385 0.171192
H2    H     H_    0.996694 0.385456 0.430792 0.241141
H3    H     H_    0.999359 0.687697 0.935614 0.171192
H4    H     H_    0.935129 0.267524 0.920980 0.169251
H5    H     H_    0.064871 0.732475 0.079020 0.169251
H6    H     H_    0.217022 0.413051 0.154656 0.199862
H7    H     H_    0.782978 0.586948 0.845344 0.199862
H8    H     H_    0.706318 0.039665 0.511475 0.189959
H9    H     H_    0.293682 0.960335 0.488525 0.189959
H10   H     H_    0.003306 0.614544 0.569207 0.241141
N1    N     N_2   0.945180 0.542040 0.524240 -0.204831
N2    N     N_2   0.054820 0.457960 0.475760 -0.204831
N3    N     N_1   0.108431 0.767847 0.291246 -0.234526
N4    N     N_1   0.891569 0.232153 0.708754 -0.234526
O1    O     O_R   0.384450 0.714270 0.493720 -0.591344
O2    O     O_R   0.615550 0.285730 0.506280 -0.591344
O3    O     O_R   0.684880 0.742590 0.510050 -0.565309
O4    O     O_R   0.315120 0.257410 0.489950 -0.565309
O5    O     O_R   0.265540 0.477900 0.617090 -0.597672
O6    O     O_R   0.734460 0.522100 0.382910 -0.597671
O7    O     O_R   0.565970 0.506210 0.633420 -0.535574
O8    O     O_R   0.434030 0.493790 0.366580 -0.535574

loop_
_geom_bond_atom_site_label_1
_geom_bond_atom_site_label_2
_ccdc_geom_bond_type
C10   Cl1   S    
C2    C4    S    
C24   C25   D    
C10   C13   A    
Cu2   N1    S    
Cu1   Cu2   S    
C3    C9    A    
Cu1   N2    S    
N1    N2    D    
C24   H8    S    
C13   C17   A    
C12   C25   S    
C12   O4    A    
C5    H4    S    
C14   C22   A    
C15   C23   A    
Cu2   O6    S    
Cu1   O5    S    
C18   N3    T    
C25   H9    S    
C9    C11   A    
C1    O1    A    
C5    C14   A    
C16   C21   A    
C2    O8    A    
H10   N1    S    
Cu2   O7    S    
C20   C22   A    
C3    C7    A    
C13   C15   A    
C21   C23   A    
C11   C14   A    
C8    C18   S    
C22   H1    S    
Cu1   O4    S    
C4    C10   A    
C20   H6    S    
Cu2   O3    S    
C17   C20   A    
C21   H7    S    
C19   N4    T    
C1    C24   S    
C12   O2    A    
C11   C16   A    
C26   O5    A    
C4    C8    A    
C5    C7    A    
H2    N2    S    
C1    O3    A    
C7    C19   S    
C6    C8    A    
C2    O6    A    
C6    C15   A    
C26   O7    A    
Cu2   O2    S    
C3    C26   S    
C6    H5    S    
C9    Cl2   S    
Cu1   O1    S    
C16   C17   A    
C23   H3    S    
Cu1   O8    S    
