data_mof_unit_63643.cif
_audit_creation_date              2012-12-10T17:40:22-0500
_audit_creation_method            fapswitch 2.2
_symmetry_space_group_name_H-M    P1
_symmetry_Int_Tables_number       1
_space_group_crystal_system       triclinic
_cell_length_a                    37.615951
_cell_length_b                    30.396933
_cell_length_c                    21.902239
_cell_angle_alpha                 90.000038
_cell_angle_beta                  126.1697
_cell_angle_gamma                 90.000143
_cell_volume                      20216.710943

loop_
_atom_site_label
_atom_site_type_symbol
_atom_type_description
_atom_site_fract_x
_atom_site_fract_y
_atom_site_fract_z
_atom_type_partial_charge
C1    C     C_R   0.414879 0.499996 0.914536 0.812550
C2    C     C_R   0.585120 0.499996 0.085464 0.812544
C3    C     C_R   0.914879 0.999996 0.914536 0.812556
C4    C     C_R   0.085121 0.999996 0.085464 0.812550
C5    C     C_2   0.508375 0.501671 0.824890 -0.475840
C6    C     C_2   0.491625 0.501671 0.175110 -0.475840
C7    C     C_2   0.008375 0.001671 0.824890 -0.475841
C8    C     C_2   0.991625 0.001671 0.175110 -0.475841
C9    C     C_R   0.297126 0.462334 0.811363 -0.203996
C10   C     C_R   0.702874 0.462335 0.188635 -0.203997
C11   C     C_R   0.797126 0.962331 0.811342 -0.204000
C12   C     C_R   0.202874 0.962335 0.188646 -0.204001
C13   C     C_R   0.343026 0.461930 0.857263 -0.151260
C14   C     C_R   0.656974 0.461931 0.142734 -0.151261
C15   C     C_R   0.843025 0.961926 0.857242 -0.151262
C16   C     C_R   0.156975 0.961929 0.142746 -0.151264
C17   C     C_R   0.366521 0.500052 0.865302 -0.029674
C18   C     C_R   0.633479 0.500053 0.134697 -0.029675
C19   C     C_R   0.866521 0.000053 0.865303 -0.029671
C20   C     C_R   0.133479 0.000054 0.134696 -0.029672
C21   C     C_R   0.343435 0.538303 0.825699 -0.221551
C22   C     C_R   0.656565 0.538304 0.174302 -0.221551
C23   C     C_R   0.843435 0.038310 0.825723 -0.221549
C24   C     C_R   0.156565 0.038308 0.174286 -0.221550
C25   C     C_R   0.297589 0.538522 0.779147 -0.079947
C26   C     C_R   0.702411 0.538522 0.220854 -0.079947
C27   C     C_R   0.797589 0.038529 0.779173 -0.079947
C28   C     C_R   0.202411 0.038528 0.220837 -0.079949
C29   C     C_R   0.274104 0.500749 0.772483 0.159149
C30   C     C_R   0.725896 0.500749 0.227517 0.159149
C31   C     C_R   0.774104 0.000750 0.772485 0.159155
C32   C     C_R   0.225895 0.000752 0.227514 0.159154
C33   C     C_R   0.203197 0.535763 0.733699 0.467138
C34   C     C_R   0.796803 0.535764 0.266303 0.467138
C35   C     C_R   0.703197 0.035749 0.733729 0.467124
C36   C     C_R   0.296804 0.035758 0.266285 0.467129
C37   C     C_R   0.156816 0.537197 0.686281 -0.181849
C38   C     C_R   0.843184 0.537198 0.313720 -0.181848
C39   C     C_R   0.656816 0.037182 0.686315 -0.181790
C40   C     C_R   0.343185 0.037190 0.313700 -0.181806
C41   C     C_R   0.133109 0.502296 0.634502 -0.269600
C42   C     C_R   0.866891 0.502296 0.365498 -0.269600
C43   C     C_R   0.633109 0.002295 0.634502 -0.269614
C44   C     C_R   0.366891 0.002297 0.365498 -0.269610
C45   C     C_R   0.502616 0.500118 0.885224 0.917708
C46   C     C_R   0.497383 0.500119 0.114776 0.917711
C47   C     C_R   0.002616 0.000118 0.885224 0.917712
C48   C     C_R   0.997384 0.000118 0.114776 0.917714
C49   C     C_R   0.155780 0.467568 0.628851 0.497025
C50   C     C_R   0.844220 0.467569 0.371149 0.497025
C51   C     C_R   0.655781 0.967582 0.628816 0.497042
C52   C     C_R   0.344219 0.967579 0.371172 0.497038
C53   C     C_R   0.201670 0.467870 0.673428 -0.315642
C54   C     C_R   0.798329 0.467871 0.326572 -0.315643
C55   C     C_R   0.701671 0.967886 0.673396 -0.315652
C56   C     C_R   0.298328 0.967883 0.326592 -0.315658
C57   C     C_R   0.225589 0.501561 0.725852 -0.104185
C58   C     C_R   0.774411 0.501562 0.274149 -0.104184
C59   C     C_R   0.725589 0.001563 0.725852 -0.104180
C60   C     C_R   0.274411 0.001565 0.274148 -0.104176
C61   C     C_R   0.500000 0.414850 0.500000 0.803624
C62   C     C_R   1.000000 0.914850 0.500000 0.803648
C63   C     C_R   0.500167 0.497859 0.617786 0.892271
C64   C     C_R   0.499833 0.497859 0.382214 0.892271
C65   C     C_R   0.000167 0.997859 0.617786 0.892278
C66   C     C_R   0.999833 0.997859 0.382214 0.892279
C67   C     C_R   0.500000 0.585042 0.500000 0.782434
C68   C     C_R   0.000000 0.085042 0.500000 0.782434
C69   C     C_R   0.999999 0.414649 0.499999 0.896568
C70   C     C_R   0.500000 0.914649 0.500000 0.896485
C71   C     C_R   0.084919 0.501565 0.585269 0.871539
C72   C     C_R   0.915081 0.501565 0.414731 0.871538
C73   C     C_R   0.584919 0.001565 0.585269 0.871399
C74   C     C_R   0.415081 0.001565 0.414731 0.871469
C75   C     C_R   0.000000 0.585187 0.500000 0.859002
C76   C     C_R   0.500000 0.085188 0.500000 0.858868
C77   C     C_R   0.538387 0.297295 0.523722 -0.114238
C78   C     C_R   0.461612 0.297295 0.476277 -0.114243
C79   C     C_R   0.038408 0.797294 0.523848 -0.114195
C80   C     C_R   0.961590 0.797294 0.476151 -0.114187
C81   C     C_R   0.000001 0.273180 0.500000 -0.269506
C82   C     C_R   0.500001 0.773179 0.500001 -0.269490
C83   C     C_R   0.538497 0.343152 0.524191 -0.182082
C84   C     C_R   0.461502 0.343152 0.475808 -0.182081
C85   C     C_R   0.038517 0.843151 0.524313 -0.182133
C86   C     C_R   0.961482 0.843151 0.475686 -0.182134
C87   C     C_R   0.500000 0.366470 0.500000 -0.024758
C88   C     C_R   1.000000 0.866469 0.500000 -0.024812
C89   C     C_R   0.499999 0.274275 0.500000 0.180263
C90   C     C_R   0.999999 0.774273 0.499999 0.179982
C91   C     C_R   0.995940 0.702901 0.551249 0.445636
C92   C     C_R   0.004058 0.702901 0.448750 0.445638
C93   C     C_R   0.496113 0.202905 0.551447 0.445636
C94   C     C_R   0.503886 0.202905 0.448552 0.445628
C95   C     C_R   0.995286 0.656889 0.550159 -0.250832
C96   C     C_R   0.004713 0.656889 0.449841 -0.250838
C97   C     C_R   0.495453 0.156893 0.550355 -0.250879
C98   C     C_R   0.504546 0.156893 0.449644 -0.250850
C99   C     C_R   1.000000 0.633606 0.500000 -0.159610
C100  C     C_R   0.500000 0.133608 0.500000 -0.159709
C101  C     C_R   0.999999 0.726003 0.499999 -0.134902
C102  C     C_R   0.499999 0.226005 0.499999 -0.134878
C103  C     C_R   0.537277 0.702202 0.557721 -0.127991
C104  C     C_R   0.462724 0.702203 0.442280 -0.127990
C105  C     C_R   0.037285 0.202204 0.557699 -0.128030
C106  C     C_R   0.962716 0.202204 0.442302 -0.128020
C107  C     C_R   0.537444 0.656410 0.557414 -0.209330
C108  C     C_R   0.462557 0.656411 0.442587 -0.209331
C109  C     C_R   0.037452 0.156412 0.557391 -0.209295
C110  C     C_R   0.962549 0.156412 0.442610 -0.209298
C111  C     C_R   0.500000 0.633218 0.500000 -0.023139
C112  C     C_R   0.000000 0.133219 0.500000 -0.023154
C113  C     C_R   0.003578 0.296013 0.448325 0.342431
C114  C     C_R   0.996421 0.296013 0.551673 0.342434
C115  C     C_R   0.503560 0.796012 0.448304 0.342438
C116  C     C_R   0.496444 0.796012 0.551699 0.342434
C117  C     C_R   0.500001 0.725094 0.500001 0.265549
C118  C     C_R   0.000001 0.225095 0.500000 0.265680
C119  C     C_R   0.999999 0.365780 0.499999 -0.391599
C120  C     C_R   0.500001 0.865779 0.500001 -0.391585
C121  C     C_R   0.001073 0.342127 0.445239 0.325787
C122  C     C_R   0.998925 0.342127 0.554758 0.325781
C123  C     C_R   0.501061 0.842126 0.445227 0.325773
C124  C     C_R   0.498943 0.842126 0.554777 0.325791
C125  C     C_2   0.535439 0.478975 0.752007 0.485020
C126  C     C_2   0.464561 0.478976 0.247992 0.485023
C127  C     C_2   0.035439 0.978975 0.752007 0.485012
C128  C     C_2   0.964561 0.978975 0.247993 0.485013
C129  C     C_2   0.499882 0.492198 0.683860 -0.427198
C130  C     C_2   0.500118 0.492198 0.316139 -0.427202
C131  C     C_2   0.999882 0.992198 0.683860 -0.427198
C132  C     C_2   0.000118 0.992198 0.316140 -0.427200
C133  C     C_2   0.531899 0.472401 0.815553 -0.102335
C134  C     C_2   0.468100 0.472401 0.184446 -0.102334
C135  C     C_2   0.031898 0.972400 0.815552 -0.102333
C136  C     C_2   0.968101 0.972400 0.184447 -0.102333
Cu1   Cu    Cu3+1 0.500000 0.544050 0.000000 0.959246
Cu2   Cu    Cu3+1 1.000000 0.044050 0.000000 0.959242
Cu3   Cu    Cu3+1 0.500000 0.455950 0.000000 1.016137
Cu4   Cu    Cu3+1 0.000000 0.955950 0.000000 1.016100
Cu5   Cu    Cu3+1 0.544050 0.500000 0.544060 0.976774
Cu6   Cu    Cu3+1 0.455950 0.500000 0.455940 0.976773
Cu7   Cu    Cu3+1 0.044050 0.000000 0.544060 0.976773
Cu8   Cu    Cu3+1 0.955950 0.000000 0.455940 0.976774
Cu9   Cu    Cu3+1 0.000010 0.500010 0.438990 1.034044
Cu10  Cu    Cu3+1 0.999990 0.500010 0.561010 1.034042
Cu11  Cu    Cu3+1 0.500010 0.000010 0.438990 1.034092
Cu12  Cu    Cu3+1 0.499990 0.000010 0.561010 1.034101
H1    H     H_    0.218655 0.441729 0.666619 0.176996
H2    H     H_    0.781344 0.441729 0.333380 0.176995
H3    H     H_    0.718657 0.941756 0.666565 0.176999
H4    H     H_    0.281342 0.941749 0.333414 0.176992
H5    H     H_    0.568249 0.279705 0.542308 0.145017
H6    H     H_    0.431750 0.279705 0.457691 0.145016
H7    H     H_    0.068287 0.779705 0.542534 0.145164
H8    H     H_    0.931712 0.779705 0.457464 0.145165
H9    H     H_    0.568563 0.360320 0.542861 0.159227
H10   H     H_    0.431436 0.360320 0.457139 0.159227
H11   H     H_    0.068601 0.860317 0.543082 0.159279
H12   H     H_    0.931399 0.860317 0.456917 0.159280
H13   H     H_    0.991225 0.639554 0.588881 0.190163
H14   H     H_    0.008774 0.639554 0.411118 0.190162
H15   H     H_    0.491523 0.139559 0.589234 0.190269
H16   H     H_    0.508476 0.139559 0.410765 0.190269
H17   H     H_    0.566213 0.719844 0.602474 0.126343
H18   H     H_    0.433789 0.719844 0.397528 0.126343
H19   H     H_    0.066227 0.219846 0.602435 0.126273
H20   H     H_    0.933774 0.219846 0.397566 0.126274
H21   H     H_    0.468539 0.497151 0.675025 0.125811
H22   H     H_    0.531461 0.497150 0.324975 0.125812
H23   H     H_    0.968539 0.997152 0.675025 0.125813
H24   H     H_    0.031461 0.997152 0.324975 0.125813
H25   H     H_    0.566597 0.639174 0.602435 0.152982
H26   H     H_    0.433404 0.639175 0.397566 0.152981
H27   H     H_    0.066612 0.139176 0.602395 0.152989
H28   H     H_    0.933389 0.139176 0.397605 0.152990
H29   H     H_    0.494926 0.530625 0.788887 0.151607
H30   H     H_    0.505075 0.530625 0.211114 0.151607
H31   H     H_    0.994927 0.030625 0.788888 0.151611
H32   H     H_    0.005074 0.030625 0.211112 0.151611
H33   H     H_    0.279577 0.432899 0.807178 0.136165
H34   H     H_    0.720422 0.432900 0.192819 0.136166
H35   H     H_    0.779576 0.932891 0.807137 0.136165
H36   H     H_    0.220424 0.932897 0.192843 0.136163
H37   H     H_    0.360092 0.432029 0.887335 0.177173
H38   H     H_    0.639907 0.432030 0.112661 0.177175
H39   H     H_    0.860092 0.932021 0.887296 0.177152
H40   H     H_    0.139908 0.932026 0.112684 0.177160
H41   H     H_    0.360786 0.567964 0.830177 0.159348
H42   H     H_    0.639214 0.567964 0.169826 0.159347
H43   H     H_    0.860787 0.067974 0.830219 0.159355
H44   H     H_    0.139213 0.067971 0.169800 0.159351
H45   H     H_    0.280432 0.568213 0.748291 0.168856
H46   H     H_    0.719568 0.568214 0.251712 0.168856
H47   H     H_    0.780432 0.068225 0.748335 0.168844
H48   H     H_    0.219567 0.068222 0.251683 0.168846
O1    O     O_R   0.435730 0.537200 0.935720 -0.597796
O2    O     O_R   0.564270 0.537200 0.064280 -0.597796
O3    O     O_R   0.935730 0.037200 0.935720 -0.597801
O4    O     O_R   0.064270 0.037200 0.064280 -0.597799
O5    O     O_R   0.064280 0.500010 0.512760 -0.555126
O6    O     O_R   0.935720 0.500010 0.487240 -0.555126
O7    O     O_R   0.564280 0.000010 0.512760 -0.555066
O8    O     O_R   0.435720 0.000010 0.487240 -0.555079
O9    O     O_R   0.064270 0.500010 0.615800 -0.568685
O10   O     O_R   0.935730 0.500010 0.384200 -0.568685
O11   O     O_R   0.564270 0.000010 0.615800 -0.568664
O12   O     O_R   0.435730 0.000010 0.384200 -0.568670
O13   O     O_R   0.000010 0.564280 0.448470 -0.579058
O14   O     O_R   0.999990 0.564280 0.551530 -0.579058
O15   O     O_R   0.500010 0.064280 0.448470 -0.579062
O16   O     O_R   0.499990 0.064280 0.551530 -0.579078
O17   O     O_R   0.435730 0.462800 0.935730 -0.570883
O18   O     O_R   0.564270 0.462800 0.064270 -0.570883
O19   O     O_R   0.935730 0.962800 0.935730 -0.570890
O20   O     O_R   0.064270 0.962800 0.064270 -0.570889
O21   O     O_R   0.500010 0.537200 0.910980 -0.592918
O22   O     O_R   0.499990 0.537200 0.089020 -0.592918
O23   O     O_R   0.000010 0.037200 0.910980 -0.592914
O24   O     O_R   0.999990 0.037200 0.089020 -0.592915
O25   O     O_R   0.500010 0.462800 0.910980 -0.556300
O26   O     O_R   0.499990 0.462800 0.089020 -0.556300
O27   O     O_R   0.000010 0.962800 0.910980 -0.556308
O28   O     O_R   0.999990 0.962800 0.089020 -0.556308
O29   O     O_R   0.537200 0.435730 0.537210 -0.585447
O30   O     O_R   0.462800 0.435730 0.462790 -0.585447
O31   O     O_R   0.037200 0.935730 0.537210 -0.585461
O32   O     O_R   0.962800 0.935730 0.462790 -0.585461
O33   O     O_R   0.537190 0.500000 0.626220 -0.535441
O34   O     O_R   0.462810 0.500000 0.373780 -0.535442
O35   O     O_R   0.037190 0.000000 0.626220 -0.535445
O36   O     O_R   0.962810 0.000000 0.373780 -0.535446
O37   O     O_R   0.462790 0.500000 0.551820 -0.596880
O38   O     O_R   0.537210 0.500000 0.448180 -0.596880
O39   O     O_R   0.962790 0.000000 0.551820 -0.596872
O40   O     O_R   0.037210 0.000000 0.448180 -0.596871
O41   O     O_R   0.537200 0.564270 0.537200 -0.595793
O42   O     O_R   0.462800 0.564270 0.462800 -0.595794
O43   O     O_R   0.037200 0.064270 0.537200 -0.595796
O44   O     O_R   0.962800 0.064270 0.462800 -0.595796
O45   O     O_R   0.000000 0.435740 0.448480 -0.542960
O46   O     O_R   0.000000 0.435740 0.551520 -0.542960
O47   O     O_R   0.500000 0.935740 0.448480 -0.542956
O48   O     O_R   0.500000 0.935740 0.551520 -0.542949
O49   O     O_3   0.573774 0.466952 0.760633 -0.529229
C137  C     C_3   0.607892 0.495926 0.812328 -0.263357
H49   H     H_    0.617584 0.491131 0.870633 0.153725
H50   H     H_    0.598604 0.530876 0.794615 0.145019
H51   H     H_    0.637215 0.488728 0.813554 0.183616
O50   O     O_3   0.426225 0.466954 0.239366 -0.529228
C138  C     C_3   0.392109 0.495930 0.187674 -0.263356
H52   H     H_    0.382417 0.491137 0.129369 0.153723
H53   H     H_    0.401398 0.530879 0.205392 0.145020
H54   H     H_    0.362785 0.488732 0.186447 0.183616
O51   O     O_3   0.073773 0.966951 0.760632 -0.529239
C139  C     C_3   0.107892 0.995924 0.812327 -0.263353
H55   H     H_    0.117584 0.991128 0.870632 0.153728
H56   H     H_    0.098605 0.030874 0.794614 0.145023
H57   H     H_    0.137214 0.988725 0.813552 0.183616
O52   O     O_3   0.926226 0.966951 0.239368 -0.529239
C140  C     C_3   0.892109 0.995925 0.187674 -0.263352
H58   H     H_    0.882417 0.991132 0.129369 0.153727
H59   H     H_    0.901396 0.030875 0.205391 0.145025
H60   H     H_    0.862786 0.988726 0.186447 0.183616
C141  C     C_2   0.134563 0.576717 0.689467 0.869522
O53   O     O_2   0.102551 0.572976 0.690389 -0.600366
O54   O     O_R   0.151255 0.618561 0.693398 -0.713037
H61   H     H_    0.133632 0.642904 0.695665 0.322144
C142  C     C_2   0.865438 0.576718 0.310536 0.869523
O55   O     O_2   0.897449 0.572976 0.309611 -0.600366
O56   O     O_R   0.848747 0.618562 0.306609 -0.713037
H62   H     H_    0.866371 0.642905 0.304342 0.322143
C143  C     C_2   0.634564 0.076688 0.689539 0.869580
O57   O     O_2   0.602576 0.072927 0.690527 -0.600359
O58   O     O_R   0.651231 0.118540 0.693440 -0.713110
H63   H     H_    0.633611 0.142873 0.695740 0.322082
C144  C     C_2   0.365439 0.076700 0.310492 0.869555
O59   O     O_2   0.397435 0.072946 0.309526 -0.600380
O60   O     O_R   0.348764 0.118550 0.306584 -0.713091
H64   H     H_    0.366387 0.142886 0.304298 0.322083
O61   O     O_3   0.132972 0.434551 0.575932 -0.546699
C145  C     C_3   0.128071 0.398780 0.611344 -0.320616
H65   H     H_    0.108367 0.372891 0.568358 0.193119
H66   H     H_    0.109968 0.408586 0.635019 0.132592
H67   H     H_    0.160568 0.384257 0.656361 0.152437
O62   O     O_3   0.867027 0.434552 0.424068 -0.546698
C146  C     C_3   0.871926 0.398780 0.388655 -0.320617
H68   H     H_    0.891633 0.372892 0.431642 0.193123
H69   H     H_    0.890024 0.408585 0.364972 0.132583
H70   H     H_    0.839429 0.384254 0.343644 0.152441
O63   O     O_3   0.632974 0.934582 0.575863 -0.546682
C147  C     C_3   0.628069 0.898790 0.611234 -0.320528
H71   H     H_    0.608371 0.872910 0.568222 0.193158
H72   H     H_    0.609958 0.908573 0.634903 0.132549
H73   H     H_    0.660564 0.884262 0.656247 0.152407
O64   O     O_3   0.367026 0.934573 0.424113 -0.546689
C148  C     C_3   0.371914 0.898781 0.388720 -0.320579
H74   H     H_    0.391619 0.872901 0.431724 0.193147
H75   H     H_    0.390008 0.908564 0.365020 0.132557
H76   H     H_    0.339412 0.884255 0.343726 0.152433
O65   O     O_3   0.007113 0.273049 0.397602 -0.557979
C149  C     C_3   0.052074 0.270015 0.427656 -0.246383
H77   H     H_    0.071126 0.252280 0.482741 0.136093
H78   H     H_    0.066652 0.303071 0.434145 0.187022
H79   H     H_    0.055059 0.250917 0.387730 0.182924
O66   O     O_3   0.992882 0.273048 0.602392 -0.557988
C150  C     C_3   0.947921 0.270015 0.572333 -0.246392
H80   H     H_    0.928870 0.252282 0.517246 0.136092
H81   H     H_    0.933343 0.303071 0.565845 0.187027
H82   H     H_    0.944933 0.250915 0.612253 0.182924
O67   O     O_3   0.507068 0.773048 0.397552 -0.558006
C151  C     C_3   0.552021 0.770000 0.427566 -0.246401
H83   H     H_    0.571084 0.752269 0.482655 0.136106
H84   H     H_    0.566603 0.803051 0.434031 0.187028
H85   H     H_    0.554985 0.750890 0.387627 0.182921
O68   O     O_3   0.492935 0.773047 0.602451 -0.558010
C152  C     C_3   0.447982 0.770001 0.572438 -0.246400
H86   H     H_    0.428918 0.752272 0.517348 0.136106
H87   H     H_    0.433402 0.803052 0.565976 0.187038
H88   H     H_    0.445018 0.750890 0.612376 0.182919
O69   O     O_3   0.990685 0.725353 0.600309 -0.567759
C153  C     C_3   0.031958 0.727785 0.671412 -0.275918
H89   H     H_    0.056618 0.745190 0.667533 0.156525
H90   H     H_    0.044251 0.694517 0.696539 0.161288
H91   H     H_    0.028115 0.746951 0.710283 0.200739
O70   O     O_3   0.009310 0.725353 0.399687 -0.567758
C154  C     C_3   0.968037 0.727781 0.328584 -0.275916
H92   H     H_    0.943374 0.745180 0.332462 0.156519
H93   H     H_    0.955750 0.694512 0.303457 0.161291
H94   H     H_    0.971877 0.746951 0.289713 0.200738
O71   O     O_3   0.491028 0.225359 0.600708 -0.567681
C155  C     C_3   0.532386 0.227768 0.671670 -0.275937
H95   H     H_    0.556975 0.245154 0.667582 0.156465
H96   H     H_    0.544693 0.194493 0.696752 0.161274
H97   H     H_    0.528677 0.246941 0.710693 0.200774
O72   O     O_3   0.508972 0.225359 0.399291 -0.567684
C156  C     C_3   0.467613 0.227770 0.328330 -0.275938
H98   H     H_    0.443026 0.245160 0.332421 0.156467
H99   H     H_    0.455302 0.194497 0.303248 0.161276
H100  H     H_    0.471323 0.246942 0.289307 0.200773
O73   O     O_3   0.003072 0.363854 0.391833 -0.526997
C157  C     C_3   0.960565 0.364332 0.322756 -0.201739
H101  H     H_    0.961821 0.383424 0.280910 0.175356
H102  H     H_    0.936379 0.380779 0.328818 0.118592
H103  H     H_    0.949131 0.330574 0.299686 0.174954
O74   O     O_3   0.996919 0.363855 0.608157 -0.527006
C158  C     C_3   0.039423 0.364330 0.677243 -0.201740
H104  H     H_    0.038163 0.383429 0.719079 0.175354
H105  H     H_    0.063617 0.380769 0.671192 0.118585
H106  H     H_    0.050848 0.330572 0.700318 0.174978
O75   O     O_3   0.503053 0.863853 0.391813 -0.527023
C159  C     C_3   0.460540 0.864342 0.322750 -0.201719
H107  H     H_    0.461791 0.883431 0.280895 0.175361
H108  H     H_    0.436367 0.880798 0.328836 0.118611
H109  H     H_    0.449094 0.830587 0.299679 0.174949
O76   O     O_3   0.496952 0.863853 0.608191 -0.527020
C160  C     C_3   0.539465 0.864340 0.677254 -0.201729
H110  H     H_    0.538215 0.883432 0.719109 0.175364
H111  H     H_    0.563640 0.880792 0.671169 0.118601
H112  H     H_    0.550907 0.830585 0.700327 0.174959
C161  C     C_2   0.557735 0.435785 0.869175 0.909386
O77   O     O_2   0.576667 0.440603 0.937186 -0.618740
O78   O     O_R   0.562296 0.396362 0.841546 -0.730888
H113  H     H_    0.581232 0.374119 0.883116 0.325370
C162  C     C_2   0.442262 0.435786 0.130822 0.909386
O79   O     O_2   0.423331 0.440606 0.062812 -0.618740
O80   O     O_R   0.437698 0.396364 0.158448 -0.730887
H114  H     H_    0.418761 0.374122 0.116877 0.325369
C163  C     C_2   0.057734 0.935784 0.869174 0.909379
O81   O     O_2   0.076667 0.940603 0.937185 -0.618730
O82   O     O_R   0.062293 0.896360 0.841544 -0.730927
H115  H     H_    0.081229 0.874117 0.883114 0.325359
C164  C     C_2   0.942265 0.935784 0.130825 0.909381
O83   O     O_2   0.923332 0.940603 0.062814 -0.618723
O84   O     O_R   0.937705 0.896361 0.158454 -0.730927
H116  H     H_    0.918770 0.874118 0.116884 0.325360
O85   O     O_3   0.226764 0.568451 0.787080 -0.552128
C165  C     C_3   0.234208 0.555056 0.855398 -0.285864
H117  H     H_    0.254262 0.524434 0.877674 0.154503
H118  H     H_    0.253000 0.581252 0.898190 0.193324
H119  H     H_    0.202665 0.550428 0.848516 0.157946
O86   O     O_3   0.773236 0.568452 0.212924 -0.552129
C166  C     C_3   0.765792 0.555058 0.144605 -0.285867
H120  H     H_    0.745738 0.524437 0.122328 0.154503
H121  H     H_    0.747001 0.581256 0.101814 0.193325
H122  H     H_    0.797336 0.550431 0.151487 0.157947
O87   O     O_3   0.726763 0.068426 0.787134 -0.552157
C167  C     C_3   0.734210 0.055005 0.855444 -0.285916
H123  H     H_    0.754266 0.024384 0.877694 0.154523
H124  H     H_    0.753001 0.081192 0.898256 0.193323
H125  H     H_    0.702668 0.050364 0.848560 0.157973
O88   O     O_3   0.273238 0.068439 0.212891 -0.552148
C168  C     C_3   0.265792 0.055030 0.144578 -0.285902
H126  H     H_    0.245738 0.024409 0.122316 0.154516
H127  H     H_    0.247002 0.081222 0.101775 0.193323
H128  H     H_    0.297335 0.050395 0.151461 0.157965

loop_
_geom_bond_atom_site_label_1
_geom_bond_atom_site_label_2
_ccdc_geom_bond_type
C153  H90   S    
C160  H110  S    
C55   C59   A    
O63   C147  S    
C34   O86   S    
C135  C163  S    
Cu9   Cu10  S    
O65   C149  S    
C77   C89   A    
C145  H65   S    
C128  O52   S    
Cu12  O16   S    
C86   C88   A    
C69   O46   A    
C153  H91   S    
C3    O19   A    
C62   O31   A    
C96   C99   A    
C35   O87   S    
C31   C59   S    
C9    C13   A    
C79   C90   A    
C80   C86   A    
Cu10  O14   S    
C11   C15   A    
C12   C16   A    
C146  H69   S    
C3    C19   S    
O70   C154  S    
C22   H42   S    
O49   C137  S    
C106  C118  A    
C16   H40   S    
C103  C117  A    
C41   C49   A    
C65   O39   A    
C156  H98   S    
C78   C89   A    
C25   C29   A    
C115  C123  A    
C27   C31   A    
Cu7   O43   S    
C28   C32   A    
C68   O44   A    
C157  H101  S    
C72   O10   A    
C62   C88   S    
C69   C119  S    
C17   C21   A    
O68   C152  S    
C114  O66   S    
C152  H88   S    
C19   C23   A    
C51   O63   S    
Cu1   Cu3   S    
C10   C30   A    
C83   H9    S    
Cu11  O47   S    
C16   C20   A    
C131  H23   S    
C159  H107  S    
C42   C72   S    
O66   C150  S    
C52   O64   S    
C44   C74   S    
Cu2   Cu4   S    
O64   C148  S    
Cu1   O1    S    
C40   C144  S    
C2    O18   A    
C160  H112  S    
C142  O56   S    
C10   H34   S    
C105  C118  A    
C166  H120  S    
C26   H46   S    
C79   C85   A    
C156  H100  S    
C104  C117  A    
C47   O27   A    
Cu8   O39   S    
Cu7   O31   S    
O72   C156  S    
C157  H103  S    
O84   H116  S    
C109  H27   S    
C55   H3    S    
C110  H28   S    
C76   C100  S    
C168  H126  S    
C67   O42   A    
C46   O26   A    
C108  C111  A    
C147  H72   S    
C162  O79   D    
C33   O85   S    
C116  O68   S    
C47   O23   A    
C49   C53   A    
Cu11  O7    S    
C96   H14   S    
C95   C99   A    
C38   C142  S    
C127  C131  D    
C79   H7    S    
C4    C20   S    
C125  C129  D    
C71   O9    A    
C94   C102  A    
O69   C153  S    
Cu1   O21   S    
C34   C58   A    
C126  C130  D    
C103  C107  A    
C132  H24   S    
C165  H117  S    
O56   H62   S    
C43   C73   S    
C139  H57   S    
C75   O14   A    
C4    O20   A    
Cu11  Cu12  S    
C54   H2    S    
C5    C133  D    
C73   O7    A    
C127  O51   S    
C124  O76   S    
C130  H22   S    
C82   C115  A    
C95   H13   S    
C140  H58   S    
Cu6   O34   S    
C158  H105  S    
Cu3   O18   S    
C159  H109  S    
C92   C96   A    
C94   O72   S    
C151  H83   S    
Cu8   O44   S    
C68   C112  S    
C61   C87   S    
Cu12  O11   S    
C77   H5    S    
C70   C120  S    
C167  H123  S    
C139  H56   S    
C81   C114  A    
C51   C55   A    
C41   C71   S    
Cu2   O3    S    
Cu3   O25   S    
C144  O59   D    
C53   H1    S    
C148  H75   S    
C91   C101  A    
Cu10  O9    S    
Cu9   O13   S    
C119  C121  A    
C168  H128  S    
C149  H78   S    
Cu9   O45   S    
C155  H95   S    
C10   C14   A    
C154  H93   S    
C84   H10   S    
Cu4   O28   S    
C138  H54   S    
C48   O28   A    
C108  H26   S    
Cu7   O40   S    
C64   O38   A    
C70   O47   A    
C21   H41   S    
O78   H113  S    
Cu10  O46   S    
C75   C99   S    
C24   H44   S    
C141  O54   S    
C126  C134  S    
C42   C50   A    
C113  O65   S    
C64   C130  S    
Cu2   O23   S    
C103  H17   S    
C93   C97   A    
C97   C100  A    
Cu12  O8    S    
C72   O6    A    
C85   C88   A    
C21   C25   A    
C137  H49   S    
C18   C22   A    
C107  C111  A    
C1    O1    A    
C24   C28   A    
O52   C140  S    
C136  C164  S    
C140  H60   S    
O54   H61   S    
C26   C30   A    
C122  O74   S    
C1    C17   S    
C61   O30   A    
C151  H85   S    
C13   C17   A    
C150  H82   S    
C45   O25   A    
C166  H122  S    
Cu10  O6    S    
C158  H106  S    
C64   O34   A    
C69   O45   A    
C74   O8    A    
C167  H125  S    
C62   O32   A    
C49   O61   S    
C28   H48   S    
C37   C41   A    
Cu11  O12   S    
C134  C162  S    
C110  C112  A    
C9    H33   S    
C91   C95   A    
C40   C44   A    
C113  C121  A    
C145  H67   S    
Cu12  O48   S    
Cu7   O35   S    
C163  O82   S    
C137  H51   S    
C83   C87   A    
O86   C166  S    
C46   O22   A    
C8    C136  D    
C125  O49   S    
O58   H63   S    
C155  H97   S    
C138  H52   S    
C15   C19   A    
C161  O78   S    
C50   C54   A    
C127  C135  S    
C128  C136  S    
C54   C58   A    
C157  H102  S    
C94   C98   A    
Cu5   O33   S    
O82   H115  S    
C35   C59   A    
C152  H87   S    
C105  C109  A    
Cu4   O19   S    
C123  O75   S    
Cu6   O37   S    
O75   C159  S    
C97   H15   S    
C159  H108  S    
C33   C57   A    
O60   H64   S    
C56   H4    S    
C120  C123  A    
C63   O33   A    
C39   C143  S    
C153  H89   S    
C73   O11   A    
C160  H111  S    
C34   C38   A    
C142  O55   D    
C6    H30   S    
Cu11  O15   S    
C156  H99   S    
Cu6   O30   S    
C76   O15   A    
C65   O35   A    
C150  H80   S    
C13   H37   S    
C158  H104  S    
C53   C57   A    
C78   H6    S    
O50   C138  S    
C5    C45   S    
C81   C118  S    
C67   O41   A    
C33   C37   A    
C56   C60   A    
C7    C47   S    
C35   C39   A    
O71   C155  S    
C8    C48   S    
C146  H68   S    
C146  H70   S    
C37   C141  S    
C92   C101  A    
C67   C111  S    
C29   C57   S    
C98   C100  A    
C1    O17   A    
C27   H47   S    
C32   C60   S    
C165  H118  S    
C104  C108  A    
C25   H45   S    
C48   O24   A    
Cu6   O42   S    
O87   C167  S    
C75   O13   A    
C116  C124  A    
C145  H66   S    
Cu8   O36   S    
O88   C168  S    
C68   O43   A    
C93   C102  A    
C126  O50   S    
C165  H119  S    
Cu7   Cu8   S    
C82   C116  A    
C154  H92   S    
C43   C51   A    
C12   H36   S    
Cu3   O17   S    
C14   H38   S    
C151  H84   S    
C63   C129  S    
C91   O69   S    
C104  H18   S    
Cu1   O2    S    
C167  H124  S    
C22   C26   A    
C81   C113  A    
C85   H11   S    
C82   C117  S    
C164  O83   D    
C86   H12   S    
Cu2   O4    S    
O67   C151  S    
C89   C102  S    
C2    C18   S    
C45   O21   A    
C148  H74   S    
C14   C18   A    
C115  O67   S    
O80   H114  S    
C84   C87   A    
C23   H43   S    
C74   O12   A    
O73   C157  S    
C168  H127  S    
C149  H79   S    
C129  H21   S    
C147  H71   S    
C155  H96   S    
C38   C42   A    
C162  O80   S    
O62   C146  S    
C93   O71   S    
C138  H53   S    
C77   C83   A    
C66   O36   A    
C8    H32   S    
C143  O58   S    
C30   C58   S    
C120  C124  A    
C20   C24   A    
Cu5   O38   S    
Cu1   O22   S    
C3    O3    A    
C23   C27   A    
C141  O53   D    
C9    C29   A    
C70   O48   A    
C11   C31   A    
C133  C161  S    
C50   O62   S    
C128  C132  D    
Cu9   O10   S    
C65   C131  S    
C80   H8    S    
C66   C132  S    
Cu5   O29   S    
C137  H50   S    
C36   C40   A    
C11   H35   S    
C109  C112  A    
C140  H59   S    
C39   C43   A    
C107  H25   S    
O61   C145  S    
C15   H39   S    
C61   O29   A    
C105  H19   S    
C66   O40   A    
C150  H81   S    
C106  H20   S    
C166  H121  S    
C90   C101  S    
C7    C135  D    
C63   O37   A    
C4    O4    A    
C139  H55   S    
C143  O57   D    
C7    H31   S    
C5    H29   S    
O85   C165  S    
C92   O70   S    
Cu3   O26   S    
C144  O60   S    
C148  H76   S    
O51   C139  S    
C163  O81   D    
C106  C110  A    
C119  C122  A    
C125  C133  S    
C71   O5    A    
C149  H77   S    
Cu5   O41   S    
C6    C46   S    
C2    O2    A    
C147  H73   S    
C36   C60   A    
C121  O73   S    
C44   C52   A    
C154  H94   S    
C98   H16   S    
Cu4   O27   S    
C161  O77   D    
C6    C134  D    
Cu5   Cu6   S    
Cu9   O5    S    
C76   O16   A    
O74   C158  S    
C36   O88   S    
O76   C160  S    
C164  O84   S    
C80   C90   A    
C152  H86   S    
Cu4   O20   S    
Cu2   O24   S    
C114  C122  A    
C78   C84   A    
Cu8   O32   S    
C12   C32   A    
C52   C56   A    
