data_mof_unit_49465.cif
_audit_creation_date              2013-03-05T16:10:49-0500
_audit_creation_method            fapswitch 2.2
_symmetry_space_group_name_H-M    P1
_symmetry_Int_Tables_number       1
_space_group_crystal_system       triclinic
_cell_length_a                    10.735667
_cell_length_b                    9.416348
_cell_length_c                    15.877638
_cell_angle_alpha                 89.970803
_cell_angle_beta                  90.294288
_cell_angle_gamma                 90.020275
_cell_volume                      1605.06127452

loop_
_atom_site_label
_atom_site_type_symbol
_atom_site_description
_atom_site_fract_x
_atom_site_fract_y
_atom_site_fract_z
_atom_type_partial_charge
O1    O     O_R   0.317570 0.620260 0.500050 -0.603489
O2    O     O_R   0.317570 0.379740 0.500050 -0.603601
C1    C     C_R   0.259756 0.500107 0.501990 0.782577
O3    O     O_R   0.499890 0.620310 0.379470 -0.589041
O4    O     O_R   0.499890 0.379690 0.379470 -0.585544
C2    C     C_R   0.499949 0.500025 0.340241 0.828497
Cu1   Cu    Cu3+1 0.499860 0.642410 0.500040 0.933976
Cu2   Cu    Cu3+1 0.499860 0.357590 0.500040 0.933592
O5    O     O_R   0.682190 0.620260 0.500020 -0.582192
O6    O     O_R   0.682190 0.379740 0.500020 -0.582867
O7    O     O_R   0.499870 0.620210 0.620600 -0.576063
O8    O     O_R   0.499870 0.379790 0.620600 -0.570811
C3    C     C_R   0.739521 0.500102 0.506986 0.877142
C4    C     C_R   0.499809 0.499984 0.659860 0.898140
C5    C     C_3   0.462996 0.646086 0.048641 -0.399633
C6    C     C_3   0.411223 0.387570 0.048543 -0.398011
C7    C     C_3   0.412641 0.385775 0.951048 -0.372724
C8    C     C_3   0.464506 0.646839 0.951133 -0.370695
H1    H     H_    0.370227 0.674967 0.926821 0.185519
H2    H     H_    0.316973 0.406368 0.926557 0.191892
H3    H     H_    0.367002 0.670037 0.070760 0.181733
H4    H     H_    0.315566 0.413651 0.070477 0.186131
H5    H     H_    0.432750 0.279778 0.073132 0.197029
H6    H     H_    0.523658 0.732522 0.073133 0.203938
H7    H     H_    0.440904 0.278545 0.928657 0.185344
H8    H     H_    0.530319 0.729842 0.928620 0.193950
C9    C     C_1   0.501173 0.499901 0.749502 -0.107406
C10   C     C_3   0.505328 0.499094 0.082867 0.223096
C11   C     C_3   0.503973 0.499437 0.917203 0.216868
C12   C     C_3   0.636514 0.465290 0.950596 -0.351028
C13   C     C_3   0.638938 0.464346 0.048810 0.282176
C14   C     C_1   0.502529 0.499732 0.825046 -0.051168
C15   C     C_1   0.502796 0.499718 0.175088 -0.034820
C16   C     C_1   0.501144 0.500013 0.250620 -0.147431
H9    H     H_    0.703269 0.545091 0.925690 0.209424
H10   H     H_    0.666849 0.360765 0.925404 0.201757
C17   C     C_3   0.073197 0.649926 0.531614 -0.414847
C18   C     C_3   0.075918 0.390257 0.571705 -0.411028
H11   H     H_    0.095366 0.727262 0.480679 0.142268
H12   H     H_    0.116700 0.283742 0.559030 0.146592
H13   H     H_    0.124029 0.688907 0.588115 0.205156
H14   H     H_    0.111293 0.423765 0.634443 0.217286
C19   C     C_3   0.929990 0.646951 0.543969 0.191809
C20   C     C_3   0.931251 0.377164 0.568232 0.213344
H15   H     H_    0.891507 0.733833 0.503962 0.080861
H16   H     H_    0.909738 0.274651 0.536206 0.089411
H17   H     H_    0.105930 0.534823 0.369542 0.175461
H18   H     H_    0.094167 0.352298 0.401376 0.178616
H19   H     H_    0.895406 0.566332 0.379405 0.195541
H20   H     H_    0.882982 0.377996 0.393050 0.192409
C21   C     C_3   0.067608 0.462780 0.418647 -0.395067
C22   C     C_3   0.121928 0.500552 0.505984 0.052022
C23   C     C_3   0.877678 0.500480 0.511867 -0.070303
C24   C     C_3   0.924755 0.476128 0.420333 -0.506053
C25   C     C_3   0.622701 0.083774 0.476344 -0.188341
C26   C     C_3   0.622658 0.916513 0.476296 -0.190099
H21   H     H_    0.696742 0.120863 0.520344 0.170645
H22   H     H_    0.696622 0.879650 0.520278 0.178018
H23   H     H_    0.648035 0.123736 0.412732 0.149796
H24   H     H_    0.648034 0.876690 0.412693 0.146826
H25   H     H_    0.541934 0.121094 0.633074 0.186428
H26   H     H_    0.541935 0.878768 0.633078 0.187343
C27   C     C_3   0.471734 0.083636 0.586349 -0.181467
C28   C     C_3   0.471735 0.916221 0.586350 -0.180526
C29   C     C_3   0.405909 0.083736 0.442558 -0.191836
C30   C     C_3   0.405882 0.916289 0.442582 -0.191078
N1    N     N_3   0.500250 0.143650 0.501830 -0.123592
N2    N     N_3   0.500250 0.856350 0.501830 -0.123297
H27   H     H_    0.311370 0.121913 0.459552 0.141450
H28   H     H_    0.311355 0.878111 0.459638 0.141545
H29   H     H_    0.423796 0.122448 0.377586 0.154700
H30   H     H_    0.423681 0.877618 0.377617 0.153165
H31   H     H_    0.379643 0.123243 0.607988 0.140925
H32   H     H_    0.379645 0.876504 0.607995 0.141891
I1    I     I_    0.776985 0.614462 0.093836 -0.355705
I2    I     I_    0.705800 0.260444 0.093284 -0.368026
N3    N     N_R   0.893405 0.676572 0.631822 0.149985
O9    O     O_R   0.778678 0.709928 0.648738 -0.363877
O10   O     O_R   0.974494 0.678693 0.693092 -0.323447
N4    N     N_R   0.874197 0.370048 0.652603 0.151451
O11   O     O_R   0.760894 0.323047 0.660036 -0.376939
O12   O     O_R   0.940311 0.384767 0.721034 -0.305673

loop_
_geom_bond_atom_site_label_1
_geom_bond_atom_site_label_2
_geom_bond_distance
_ccdc_geom_bond_type
C6    C10   1.553914 S    
C5    C8    1.548389 S    
C30   N2    1.489951 S    
C25   C26   1.574986 S    
C25   H23   1.112669 S    
C7    C11   1.549117 S    
C8    H8    1.113448 S    
C5    C10   1.553960 S    
Cu1   Cu2   2.681963 S    
C23   C24   1.558267 S    
Cu1   O7    1.925482 S    
H20   C24   1.113892 S    
C12   H9    1.112147 S    
O4    C2    1.292743 A    
C28   N2    1.489147 S    
C18   H14   1.110127 S    
C11   C14   1.463246 S    
C12   C13   1.559509 S    
O7    C4    1.292086 A    
C18   C22   1.554145 S    
H19   C24   1.113804 S    
C7    H2    1.113386 S    
C8    H1    1.113414 S    
H25   C27   1.112257 S    
O5    C3    1.292633 A    
H26   C28   1.112195 S    
Cu1   N2    2.014751 S    
C20   C23   1.572948 S    
C19   C23   1.573106 S    
H18   C21   1.113605 S    
C30   H30   1.111554 S    
C6    C7    1.548236 S    
C29   N1    1.489996 S    
C4    C9    1.423302 S    
N3    O9    1.300602 A    
O3    Cu1   1.925750 S    
C20   H16   1.114822 S    
C3    C23   1.484842 S    
N3    O10   1.302278 A    
C27   N1    1.489055 S    
C21   C22   1.543234 S    
C20   N4    1.477339 S    
O3    C2    1.292891 A    
C17   C22   1.555959 S    
H17   C21   1.113508 S    
C27   H31   1.112859 S    
C26   N2    1.488945 S    
C2    C16   1.423098 S    
O1    C1    1.290699 A    
C17   C19   1.551130 S    
C18   C20   1.558641 S    
C11   C12   1.549698 S    
C13   I1    2.166629 S    
Cu2   O8    1.925694 S    
C15   C16   1.199493 T    
C8    C11   1.549120 S    
C19   H15   1.113775 S    
N4    O12   1.302184 A    
C5    H6    1.111363 S    
O8    C4    1.292377 A    
C10   C15   1.464670 S    
C6    H5    1.111274 S    
C25   H21   1.111851 S    
Cu1   O5    1.968590 S    
C6    H4    1.113628 S    
C9    C14   1.199479 T    
O1    Cu1   1.968016 S    
C10   C13   1.570167 S    
O2    Cu2   1.968163 S    
N4    O11   1.300172 A    
O6    C3    1.294029 A    
O4    Cu2   1.925539 S    
C25   N1    1.488624 S    
C1    C22   1.481367 S    
C19   N3    1.477803 S    
C12   H10   1.112092 S    
C21   C24   1.539185 S    
C7    H7    1.113415 S    
O2    C1    1.292884 A    
C17   H11   1.114561 S    
C29   H29   1.111559 S    
C18   H12   1.113365 S    
C13   I2    2.166728 S    
C30   H28   1.111258 S    
C29   H27   1.111443 S    
C26   H22   1.110380 S    
C17   H13   1.110181 S    
C27   C28   1.576441 S    
C26   H24   1.112636 S    
C5    H3    1.113654 S    
Cu2   N1    2.014725 S    
Cu2   O6    1.968443 S    
C29   C30   1.576740 S    
C28   H32   1.112877 S    
