data_mof_unit_31143.cif
_audit_creation_date              2013-03-05T16:00:42-0500
_audit_creation_method            fapswitch 2.2
_symmetry_space_group_name_H-M    P1
_symmetry_Int_Tables_number       1
_space_group_crystal_system       triclinic
_cell_length_a                    6.969746
_cell_length_b                    31.312142
_cell_length_c                    35.01318
_cell_angle_alpha                 90.000094
_cell_angle_beta                  90.002101
_cell_angle_gamma                 90.000111
_cell_volume                      7641.19504337

loop_
_atom_site_label
_atom_site_type_symbol
_atom_site_description
_atom_site_fract_x
_atom_site_fract_y
_atom_site_fract_z
_atom_type_partial_charge
O1    O     O_R   0.417270 0.211480 0.210950 -0.591372
O2    O     O_R   0.582730 0.788520 0.789050 -0.596736
O3    O     O_R   0.582730 0.788520 0.710950 -0.591374
O4    O     O_R   0.417270 0.211480 0.289050 -0.596745
O5    O     O_R   0.917270 0.288520 0.289050 -0.591371
O6    O     O_R   0.082730 0.711480 0.710950 -0.596745
O7    O     O_R   0.082730 0.711480 0.789050 -0.591379
O8    O     O_R   0.917270 0.288520 0.210950 -0.596735
O9    O     O_R   0.746940 0.206370 0.288750 -0.593800
O10   O     O_R   0.253060 0.793630 0.711250 -0.597093
O11   O     O_R   0.253060 0.793630 0.788750 -0.593801
O12   O     O_R   0.746940 0.206370 0.211250 -0.597116
O13   O     O_R   0.246940 0.293630 0.211250 -0.593800
O14   O     O_R   0.753060 0.706370 0.788750 -0.597092
O15   O     O_R   0.753060 0.706370 0.711250 -0.593801
O16   O     O_R   0.246940 0.293630 0.288750 -0.597097
C1    C     C_R   0.578118 0.196156 0.301963 0.969746
C2    C     C_R   0.421779 0.803897 0.698136 0.967852
C3    C     C_R   0.421887 0.803844 0.801963 0.969774
C4    C     C_R   0.578216 0.196104 0.198136 0.967847
C5    C     C_R   0.078114 0.303844 0.198037 0.969773
C6    C     C_R   0.921784 0.696103 0.801864 0.967854
C7    C     C_R   0.921882 0.696156 0.698037 0.969749
C8    C     C_R   0.078220 0.303897 0.301864 0.967858
O17   O     O_3   0.583760 0.276950 0.250000 -0.273426
O18   O     O_3   0.416240 0.723050 0.750000 -0.273439
O19   O     O_3   0.083760 0.223050 0.250000 -0.273448
O20   O     O_3   0.916240 0.776950 0.750000 -0.273428
V1    V     V_3+5 0.858600 0.245000 0.250000 1.156914
V2    V     V_3+5 0.141400 0.755000 0.750000 1.156941
V3    V     V_3+5 0.358600 0.255000 0.250000 1.156929
V4    V     V_3+5 0.641400 0.745000 0.750000 1.156941
C9    C     C_R   0.979930 0.588515 0.537536 0.463408
C10   C     C_R   0.030783 0.412368 0.461621 0.461328
C11   C     C_R   0.020091 0.411490 0.037541 0.463307
C12   C     C_R   0.969314 0.587635 0.961621 0.461296
C13   C     C_R   0.479964 0.911497 0.962454 0.463298
C14   C     C_R   0.530812 0.087643 0.038371 0.461410
C15   C     C_R   0.520049 0.088518 0.462466 0.463423
C16   C     C_R   0.469196 0.912372 0.538381 0.461303
N1    N     N_R   0.977477 0.574366 0.574722 -0.177708
N2    N     N_R   0.045843 0.426630 0.424590 -0.177976
N3    N     N_R   0.022559 0.425641 0.074726 -0.177723
N4    N     N_R   0.954224 0.573373 0.924590 -0.177980
N5    N     N_R   0.477488 0.925646 0.925269 -0.177722
N6    N     N_R   0.545898 0.073381 0.075402 -0.177962
N7    N     N_R   0.522495 0.074369 0.425280 -0.177705
N8    N     N_R   0.454146 0.926633 0.575412 -0.177981
C17   C     C_R   0.994178 0.531521 0.582712 0.524369
C18   C     C_R   0.054245 0.469658 0.416900 0.533242
C19   C     C_R   0.005894 0.468486 0.082714 0.524362
C20   C     C_R   0.945801 0.530345 0.916902 0.533220
C21   C     C_R   0.494169 0.968491 0.917279 0.524349
C22   C     C_R   0.554328 0.030353 0.083090 0.533259
C23   C     C_R   0.505783 0.031525 0.417291 0.524367
C24   C     C_R   0.445747 0.969661 0.583102 0.533229
C25   C     C_R   0.004020 0.501224 0.552984 -0.079931
C26   C     C_R   0.036766 0.499896 0.446537 -0.080590
C27   C     C_R   0.996069 0.498783 0.052986 -0.079962
C28   C     C_R   0.963279 0.500107 0.946539 -0.080586
C29   C     C_R   0.504018 0.998788 0.947008 -0.079967
C30   C     C_R   0.536842 0.000115 0.053453 -0.080583
C31   C     C_R   0.495941 0.001228 0.447018 -0.079929
C32   C     C_R   0.463221 0.999900 0.553465 -0.080593
C33   C     C_R   0.009313 0.515459 0.514878 -0.006219
C34   C     C_R   0.023365 0.485595 0.484546 -0.006993
C35   C     C_R   0.990752 0.484546 0.014880 -0.006230
C36   C     C_R   0.976707 0.514409 0.984547 -0.006997
C37   C     C_R   0.509342 0.984552 0.985113 -0.006224
C38   C     C_R   0.523406 0.014416 0.015445 -0.006988
C39   C     C_R   0.490659 0.015463 0.485124 -0.006218
C40   C     C_R   0.476612 0.985599 0.515456 -0.006994
C41   C     C_R   0.000758 0.559487 0.507027 -0.055674
C42   C     C_R   0.024096 0.441503 0.492302 -0.055064
C43   C     C_R   0.999275 0.440517 0.007031 -0.055654
C44   C     C_R   0.976005 0.558501 0.992302 -0.055060
C45   C     C_R   0.500805 0.940524 0.992963 -0.055655
C46   C     C_R   0.524116 0.058508 0.007690 -0.055076
C47   C     C_R   0.499221 0.059491 0.492975 -0.055678
C48   C     C_R   0.475876 0.941507 0.507700 -0.055060
C49   C     C_R   0.009072 0.457104 0.560450 -0.100270
C50   C     C_R   0.032279 0.544019 0.439078 -0.100816
C51   C     C_R   0.991053 0.542903 0.060450 -0.100271
C52   C     C_R   0.967737 0.455983 0.939082 -0.100829
C53   C     C_R   0.509049 0.042908 0.939542 -0.100265
C54   C     C_R   0.532374 0.955991 0.060912 -0.100831
C55   C     C_R   0.490881 0.957108 0.439552 -0.100278
C56   C     C_R   0.467714 0.044023 0.560924 -0.100814
C57   C     C_R   0.016642 0.427611 0.530477 -0.109261
C58   C     C_R   0.012166 0.573411 0.468900 -0.108653
C59   C     C_R   0.983489 0.572395 0.030477 -0.109266
C60   C     C_R   0.987844 0.426592 0.968904 -0.108663
C61   C     C_R   0.516630 0.072401 0.969515 -0.109259
C62   C     C_R   0.512245 0.926599 0.031090 -0.108665
C63   C     C_R   0.483317 0.927615 0.469525 -0.109261
C64   C     C_R   0.487824 0.073415 0.531103 -0.108651
O21   O     O_2   0.960439 0.630533 0.529950 -0.543006
O22   O     O_2   0.020007 0.370114 0.468840 -0.543483
O23   O     O_2   0.039554 0.369471 0.029955 -0.543018
O24   O     O_2   0.980113 0.629889 0.968838 -0.543487
O25   O     O_2   0.460483 0.869478 0.970041 -0.543020
O26   O     O_2   0.520018 0.129897 0.031153 -0.543489
O27   O     O_2   0.539549 0.130536 0.470052 -0.543005
O28   O     O_2   0.479970 0.870118 0.531161 -0.543484
O29   O     O_2   0.003479 0.518169 0.619297 -0.510372
O30   O     O_2   0.081060 0.483274 0.380738 -0.511842
O31   O     O_2   0.996609 0.481840 0.119299 -0.510309
O32   O     O_2   0.918965 0.516728 0.880740 -0.511849
O33   O     O_2   0.503448 0.981844 0.880694 -0.510307
O34   O     O_2   0.581171 0.016737 0.119252 -0.511869
O35   O     O_2   0.496472 0.018173 0.380705 -0.510387
O36   O     O_2   0.418941 0.983277 0.619265 -0.511835
H1    H     H_    0.004759 0.445172 0.589469 0.180629
H2    H     H_    0.041798 0.555992 0.410122 0.180468
H3    H     H_    0.995388 0.554836 0.089469 0.180631
H4    H     H_    0.958198 0.444010 0.910125 0.180469
H5    H     H_    0.504711 0.054840 0.910523 0.180631
H6    H     H_    0.541918 0.944018 0.089868 0.180468
H7    H     H_    0.495186 0.945176 0.410533 0.180627
H8    H     H_    0.458203 0.055995 0.589881 0.180469
H9    H     H_    0.017913 0.393892 0.537359 0.178524
H10   H     H_    0.006949 0.607099 0.461971 0.178511
H11   H     H_    0.982243 0.606114 0.037358 0.178523
H12   H     H_    0.993037 0.392903 0.961975 0.178513
H13   H     H_    0.517884 0.106119 0.962634 0.178522
H14   H     H_    0.507043 0.892911 0.038019 0.178513
H15   H     H_    0.482041 0.893896 0.462643 0.178523
H16   H     H_    0.493047 0.107103 0.538032 0.178511
C65   C     C_R   0.915015 0.396838 0.363834 0.700896
C66   C     C_R   0.808378 0.602266 0.632429 0.703613
C67   C     C_R   0.085017 0.603163 0.863833 0.700890
C68   C     C_R   0.191610 0.397739 0.132442 0.703632
C69   C     C_R   0.415030 0.103168 0.136152 0.700874
C70   C     C_R   0.308417 0.897744 0.867556 0.703651
C71   C     C_R   0.584976 0.896840 0.636168 0.700888
C72   C     C_R   0.691603 0.102267 0.367573 0.703595
C73   C     C_R   0.924157 0.366724 0.334015 -0.334350
C74   C     C_R   0.796424 0.632073 0.662561 -0.341089
C75   C     C_R   0.075859 0.633276 0.834013 -0.334333
C76   C     C_R   0.203568 0.367930 0.162569 -0.340976
C77   C     C_R   0.424143 0.133281 0.165974 -0.334462
C78   C     C_R   0.296446 0.867932 0.837429 -0.340969
C79   C     C_R   0.575839 0.866725 0.665986 -0.334330
C80   C     C_R   0.703565 0.132073 0.337440 -0.341115
H17   H     H_    0.819733 0.368223 0.311129 0.162828
H18   H     H_    0.682931 0.628954 0.683512 0.163992
H19   H     H_    0.180273 0.631776 0.811127 0.162838
H20   H     H_    0.317081 0.371045 0.183518 0.164056
H21   H     H_    0.319711 0.131780 0.188856 0.162758
H22   H     H_    0.182931 0.871048 0.816481 0.164065
H23   H     H_    0.680266 0.868224 0.688871 0.162843
H24   H     H_    0.817052 0.128952 0.316488 0.163973
C81   C     C_R   0.068975 0.335562 0.333249 -0.168148
C82   C     C_R   0.932740 0.664884 0.666247 -0.172708
C83   C     C_R   0.931043 0.664439 0.833248 -0.168160
C84   C     C_R   0.067251 0.335119 0.166250 -0.172776
C85   C     C_R   0.568967 0.164443 0.166748 -0.168082
C86   C     C_R   0.432755 0.835120 0.833750 -0.172791
C87   C     C_R   0.431024 0.835562 0.666752 -0.168161
C88   C     C_R   0.567258 0.164886 0.333754 -0.172696
C89   C     C_R   0.204500 0.334659 0.362864 -0.184380
C90   C     C_R   0.080977 0.667714 0.639220 -0.169133
C91   C     C_R   0.795535 0.665342 0.862864 -0.184357
C92   C     C_R   0.919015 0.332291 0.139220 -0.169109
C93   C     C_R   0.704507 0.165348 0.137137 -0.184475
C94   C     C_R   0.580996 0.832293 0.860778 -0.169090
C95   C     C_R   0.295496 0.834661 0.637137 -0.184349
C96   C     C_R   0.419022 0.167718 0.360781 -0.169139
H25   H     H_    0.316892 0.310762 0.363051 0.137400
H26   H     H_    0.187225 0.692874 0.641146 0.139300
H27   H     H_    0.683145 0.689239 0.863052 0.137392
H28   H     H_    0.812762 0.307133 0.141143 0.139289
H29   H     H_    0.816899 0.189246 0.136955 0.137432
H30   H     H_    0.687245 0.807133 0.858855 0.139285
H31   H     H_    0.183105 0.810763 0.636949 0.137392
H32   H     H_    0.312782 0.192880 0.358855 0.139304
C97   C     C_R   0.194765 0.364142 0.392851 -0.163778
C98   C     C_R   0.092689 0.638517 0.609108 -0.171614
C99   C     C_R   0.805286 0.635860 0.892852 -0.163768
C100  C     C_R   0.907318 0.361490 0.109108 -0.171507
C101  C     C_R   0.694790 0.135869 0.107148 -0.163849
C102  C     C_R   0.592708 0.861493 0.890888 -0.171494
C103  C     C_R   0.305227 0.864144 0.607151 -0.163764
C104  C     C_R   0.407302 0.138522 0.390893 -0.171633
H33   H     H_    0.300273 0.362563 0.415490 0.158161
H34   H     H_    0.207804 0.641685 0.588566 0.155724
H35   H     H_    0.699790 0.637439 0.915491 0.158153
H36   H     H_    0.792204 0.358325 0.088563 0.155714
H37   H     H_    0.800299 0.137452 0.084511 0.158164
H38   H     H_    0.707831 0.858329 0.911431 0.155702
H39   H     H_    0.199715 0.862566 0.584512 0.158157
H40   H     H_    0.292194 0.141693 0.411436 0.155739
C105  C     C_R   0.052558 0.395962 0.393482 0.039752
C106  C     C_R   0.959731 0.605010 0.605683 0.046060
C107  C     C_R   0.947493 0.604039 0.893482 0.039737
C108  C     C_R   0.040279 0.394996 0.105688 0.045938
C109  C     C_R   0.552594 0.104047 0.106511 0.039867
C110  C     C_R   0.459753 0.895001 0.894308 0.045935
C111  C     C_R   0.447433 0.895965 0.606520 0.039728
C112  C     C_R   0.540250 0.105013 0.394319 0.046083
O37   O     O_3   0.778007 0.428679 0.362837 -0.582942
C113  C     C_3   0.605108 0.412047 0.377218 -0.228198
H41   H     H_    0.622740 0.400268 0.407033 0.122693
H42   H     H_    0.549386 0.386265 0.358411 0.143622
H43   H     H_    0.496593 0.437960 0.377754 0.207472
O38   O     O_3   0.680119 0.568670 0.630463 -0.582691
C114  C     C_3   0.503192 0.584089 0.616904 -0.226044
H44   H     H_    0.519566 0.600453 0.588835 0.120777
H45   H     H_    0.435235 0.605656 0.638177 0.146010
H46   H     H_    0.405319 0.556580 0.612584 0.202120
O39   O     O_3   0.222024 0.571322 0.862834 -0.582930
C115  C     C_3   0.394898 0.587947 0.877238 -0.228189
H47   H     H_    0.377228 0.599676 0.907068 0.122744
H48   H     H_    0.450582 0.613766 0.858463 0.143544
H49   H     H_    0.503473 0.562042 0.877743 0.207477
O40   O     O_3   0.319890 0.431330 0.130486 -0.582584
C116  C     C_3   0.496650 0.415917 0.116828 -0.226247
H50   H     H_    0.479965 0.399650 0.088719 0.120909
H51   H     H_    0.564673 0.394261 0.138027 0.145898
H52   H     H_    0.594630 0.443418 0.112551 0.202118
O41   O     O_3   0.278042 0.071322 0.137135 -0.582987
C117  C     C_3   0.105028 0.087975 0.122820 -0.228076
H53   H     H_    0.122621 0.099964 0.093065 0.122488
H54   H     H_    0.049059 0.113607 0.141768 0.143952
H55   H     H_    0.996718 0.062016 0.122130 0.207338
O42   O     O_3   0.180145 0.931336 0.869510 -0.582583
C118  C     C_3   0.003395 0.915928 0.883177 -0.226297
H56   H     H_    0.020088 0.899676 0.911296 0.120927
H57   H     H_    0.935359 0.894257 0.861991 0.145873
H58   H     H_    0.905431 0.943431 0.887441 0.202160
O43   O     O_3   0.721980 0.928682 0.637167 -0.582920
C119  C     C_3   0.894859 0.912057 0.622767 -0.228178
H59   H     H_    0.877200 0.900328 0.592938 0.122738
H60   H     H_    0.950537 0.886238 0.641544 0.143535
H61   H     H_    0.003435 0.937960 0.622266 0.207478
O44   O     O_3   0.819847 0.068668 0.369540 -0.582725
C120  C     C_3   0.996795 0.084082 0.383084 -0.225985
H62   H     H_    0.980461 0.100473 0.411139 0.120742
H63   H     H_    0.064783 0.105621 0.361794 0.146061
H64   H     H_    0.094617 0.056567 0.387425 0.202102

loop_
_geom_bond_atom_site_label_1
_geom_bond_atom_site_label_2
_geom_bond_distance
_ccdc_geom_bond_type
O17   V3    1.713215 S    
C16   O28   1.349069 S    
C56   C64   1.398898 A    
O18   V4    1.713217 S    
O12   V1    1.977240 S    
O19   V1    1.713219 S    
O37   C113  1.406049 S    
C37   C45   1.407016 A    
C49   C57   1.398902 A    
C102  C110  1.404940 A    
C32   C40   1.407225 A    
C101  C109  1.405551 A    
C11   N3    1.375416 A    
C76   H20   1.083233 S    
C39   C47   1.407019 A    
C113  H42   1.111833 S    
C97   H33   1.082349 S    
O15   V4    1.977281 S    
O14   V4    1.977244 S    
C99   C107  1.405561 A    
C116  H52   1.109184 S    
C98   C106  1.404940 A    
C75   H19   1.083493 S    
O41   C117  1.406130 S    
C97   C105  1.405562 A    
O8    V1    1.973229 S    
C70   O42   1.382149 S    
C42   C57   1.406597 A    
C73   H17   1.083499 S    
C38   C46   1.407072 A    
C27   C51   1.406430 A    
C41   C58   1.406607 A    
C26   C50   1.406407 A    
C71   C111  1.413254 A    
C72   C80   1.411069 A    
C99   H35   1.082351 S    
C80   C88   1.405286 A    
C46   C61   1.406591 A    
C93   H29   1.083322 S    
C34   C42   1.407071 A    
C45   C62   1.406606 A    
O1    V3    1.973229 S    
C40   C48   1.407072 A    
C17   C25   1.410009 A    
O44   C120  1.406682 S    
C22   O34   1.349034 S    
O3    C2    1.300570 A    
N8    C24   1.375184 A    
C1    C88   1.484402 S    
C16   N8    1.375348 A    
C2    C87   1.481470 S    
C54   C62   1.398895 A    
C27   C35   1.407182 A    
C101  H37   1.082340 S    
C26   C34   1.407226 A    
C95   C103  1.399731 A    
O39   C115  1.406085 S    
O11   V2    1.977238 S    
C87   C95   1.402907 A    
C10   N2    1.375351 A    
C96   C104  1.397878 A    
C113  H43   1.109372 S    
C94   C102  1.397884 A    
C114  H46   1.109118 S    
C69   O41   1.381002 S    
C104  H40   1.082088 S    
C68   O40   1.382157 S    
C56   H8    1.083002 S    
C20   C28   1.410007 A    
C116  H51   1.111519 S    
C100  C108  1.404940 A    
O9    V1    1.977282 S    
C65   O37   1.380993 S    
O15   C7    1.304171 A    
N4    C20   1.375178 A    
C79   H23   1.083499 S    
O2    C3    1.300546 A    
N7    C23   1.375333 A    
N5    C21   1.375331 A    
O16   C8    1.302700 A    
O7    V2    1.973229 S    
C71   O43   1.380989 S    
C120  H62   1.114132 S    
C59   H11   1.082992 S    
C58   H10   1.082988 S    
C30   C38   1.407223 A    
O12   C4    1.302699 A    
C117  H53   1.114137 S    
C53   C61   1.398906 A    
C78   C86   1.405274 A    
C19   O31   1.349027 S    
C11   O23   1.349081 S    
N1    C17   1.375334 A    
C65   C73   1.408276 A    
C82   C90   1.403866 A    
C102  H38   1.082114 S    
O5    V1    1.973203 S    
C6    C83   1.481461 S    
C62   H14   1.082989 S    
C76   C84   1.405274 A    
O17   V1    2.161074 S    
C94   H30   1.083314 S    
C72   C112  1.413227 A    
C113  H41   1.113943 S    
N8    C111  1.452794 S    
C77   H21   1.083495 S    
C114  H44   1.114222 S    
C18   C26   1.410011 A    
C51   H3    1.082998 S    
O20   V4    2.161070 S    
C68   C108  1.413224 A    
O40   C116  1.406911 S    
C50   H2    1.082999 S    
C54   H6    1.082998 S    
C33   C41   1.407020 A    
C85   C93   1.402912 A    
O38   C114  1.406789 S    
N6    C109  1.452782 S    
C17   O29   1.349026 S    
C93   C101  1.399713 A    
C14   C46   1.410107 A    
C117  H55   1.109570 S    
C83   C91   1.402901 A    
C116  H50   1.114291 S    
C7    C82   1.484405 S    
C15   N7    1.375408 A    
C13   C45   1.410059 A    
C119  H61   1.109437 S    
C103  C111  1.405564 A    
C35   C36   1.418421 A    
C23   C31   1.410005 A    
N3    C108  1.452996 S    
O16   V3    1.977279 S    
C15   C47   1.410063 A    
N2    C105  1.452789 S    
C53   H5    1.082997 S    
C49   H1    1.082998 S    
C55   H7    1.082997 S    
N1    C106  1.452994 S    
C66   O38   1.382201 S    
C70   C78   1.411005 A    
C64   H16   1.082987 S    
C30   C54   1.406404 A    
O10   V2    1.977280 S    
C118  H56   1.114377 S    
C90   H26   1.083316 S    
C115  H49   1.109450 S    
C75   C83   1.404135 A    
N2    C18   1.375180 A    
O11   C3    1.304166 A    
N6    C22   1.375179 A    
C16   C48   1.410103 A    
O8    C5    1.300549 A    
O13   C5    1.304164 A    
O3    V4    1.973209 S    
C12   O24   1.349069 S    
C36   C44   1.407073 A    
O9    C1    1.304171 A    
C48   C63   1.406594 A    
C117  H54   1.111994 S    
C28   C36   1.407229 A    
C100  H36   1.082107 S    
C29   C53   1.406429 A    
C43   C60   1.406612 A    
C10   C42   1.410104 A    
O4    C1    1.300546 A    
C77   C85   1.404156 A    
O1    C4    1.300570 A    
C9    C41   1.410062 A    
O6    V2    1.973207 S    
C31   C39   1.407180 A    
O18   V2    2.161075 S    
C4    C85   1.481463 S    
C120  H63   1.111337 S    
O19   V3    2.161072 S    
C67   O39   1.380985 S    
O14   C6    1.302698 A    
C25   C49   1.406433 A    
N7    C112  1.453003 S    
C12   N4    1.375342 A    
C23   O35   1.349026 S    
C35   C43   1.407018 A    
C33   C34   1.418423 A    
C21   C29   1.410008 A    
C66   C74   1.411058 A    
C91   H27   1.083321 S    
C8    C81   1.481465 S    
C86   C94   1.403877 A    
C114  H45   1.111390 S    
C29   C37   1.407178 A    
C96   H32   1.083316 S    
C92   H28   1.083307 S    
C55   C63   1.398905 A    
C73   C81   1.404141 A    
N4    C107  1.452784 S    
C69   C109  1.413235 A    
C70   C110  1.413232 A    
C31   C55   1.406432 A    
C119  H60   1.111917 S    
C3    C86   1.484393 S    
O13   V3    1.977243 S    
C67   C107  1.413248 A    
C11   C43   1.410059 A    
C25   C33   1.407177 A    
C66   C106  1.413225 A    
C92   C100  1.397894 A    
C65   C105  1.413251 A    
C15   O27   1.349083 S    
C104  C112  1.404938 A    
C103  H39   1.082352 S    
C68   C76   1.411006 A    
O7    C6    1.300566 A    
C51   C59   1.398905 A    
C69   C77   1.408301 A    
C50   C58   1.398899 A    
C74   H18   1.083232 S    
C9    N1    1.375407 A    
C78   H22   1.083234 S    
C60   H12   1.082991 S    
C84   C92   1.403878 A    
N5    C110  1.452994 S    
C89   H25   1.083326 S    
C39   C40   1.418425 A    
C14   O26   1.349067 S    
C118  H57   1.111540 S    
C24   O36   1.349032 S    
C14   N6    1.375340 A    
C13   O25   1.349083 S    
C28   C52   1.406410 A    
N3    C19   1.375331 A    
C24   C32   1.410012 A    
O5    C8    1.300567 A    
C57   H9    1.082989 S    
O10   C2    1.302700 A    
O6    C7    1.300547 A    
C72   O44   1.382208 S    
C71   C79   1.408271 A    
C119  H59   1.113934 S    
C10   O22   1.349071 S    
C5    C84   1.484392 S    
O20   V2    1.713218 S    
C95   H31   1.083323 S    
C9    O21   1.349085 S    
C79   C87   1.404138 A    
C88   C96   1.403869 A    
C37   C38   1.418420 A    
C89   C97   1.399727 A    
C61   H13   1.082988 S    
C90   C98   1.397881 A    
O4    V3    1.973209 S    
C67   C75   1.408267 A    
C115  H48   1.111926 S    
C44   C59   1.406594 A    
C98   H34   1.082094 S    
C63   H15   1.082991 S    
C47   C64   1.406611 A    
C118  H58   1.109118 S    
C19   C27   1.410004 A    
C115  H47   1.113954 S    
C20   O32   1.349030 S    
C52   H4    1.083000 S    
O42   C118  1.406908 S    
C120  H64   1.109144 S    
C81   C89   1.402906 A    
O43   C119  1.406094 S    
C18   O30   1.349033 S    
C22   C30   1.410004 A    
C21   O33   1.349026 S    
C52   C60   1.398895 A    
C74   C82   1.405283 A    
C91   C99   1.399728 A    
C13   N5    1.375411 A    
C12   C44   1.410098 A    
C32   C56   1.406408 A    
C80   H24   1.083225 S    
O2    V4    1.973225 S    
