data_mof_unit_66471.cif
_audit_creation_date              2012-12-10T20:19:13-0500
_audit_creation_method            fapswitch 2.2
_symmetry_space_group_name_H-M    P1
_symmetry_Int_Tables_number       1
_space_group_crystal_system       triclinic
_cell_length_a                    41.86381
_cell_length_b                    35.465277
_cell_length_c                    21.556984
_cell_angle_alpha                 89.999975
_cell_angle_beta                  57.972308
_cell_angle_gamma                 90.0
_cell_volume                      27134.3459726

loop_
_atom_site_label
_atom_site_type_symbol
_atom_type_description
_atom_site_fract_x
_atom_site_fract_y
_atom_site_fract_z
_atom_type_partial_charge
C1    C     C_R   0.926553 0.499949 0.572424 0.915071
C2    C     C_R   0.326446 0.503464 0.121406 -0.230475
C3    C     C_R   0.000000 0.807301 0.999999 0.047725
C4    C     C_1   0.500000 0.267147 0.000000 -0.032360
C5    C     C_1   0.000000 0.767147 0.999999 -0.032360
C6    C     C_1   0.000000 0.733429 0.999999 -0.032536
C7    C     C_1   0.500000 0.233429 0.000000 -0.032536
C8    C     C_R   0.022408 0.673980 0.934611 -0.186193
C9    C     C_R   0.977592 0.673980 0.065388 -0.186191
C10   C     C_R   0.522408 0.173980 0.934611 -0.186192
C11   C     C_R   0.477592 0.173980 0.065389 -0.186192
C12   C     C_R   0.022584 0.634384 0.933130 0.194888
C13   C     C_R   0.173554 0.003464 0.878594 -0.230475
C14   C     C_R   0.977416 0.634384 0.066869 0.194888
C15   C     C_R   0.522584 0.134384 0.933131 0.194888
C16   C     C_R   0.477416 0.134384 0.066869 0.194888
C17   C     C_R   0.000000 0.614648 1.000000 -0.179204
C18   C     C_R   0.500000 0.114648 0.000000 -0.179204
C19   C     C_3   0.019475 0.535885 0.191160 -0.688856
C20   C     C_3   0.980526 0.535885 0.808840 -0.688859
C21   C     C_3   0.519474 0.035885 0.191160 -0.688858
C22   C     C_3   0.480526 0.035885 0.808840 -0.688858
C23   C     C_R   0.000000 0.693271 0.999999 0.045902
C24   C     C_R   0.826446 0.003464 0.121406 -0.230474
C25   C     C_R   0.500000 0.193271 0.000000 0.045902
C26   C     C_R   0.500610 0.673648 0.056220 0.219181
C27   C     C_R   0.499389 0.673648 0.943780 0.219181
C28   C     C_R   0.000610 0.173648 0.056220 0.219181
C29   C     C_R   0.999389 0.173648 0.943780 0.219181
C30   C     C_R   0.500548 0.634358 0.055677 -0.210348
C31   C     C_R   0.499452 0.634358 0.944323 -0.210347
C32   C     C_R   0.000548 0.134358 0.055677 -0.210348
C33   C     C_R   0.999452 0.134358 0.944323 -0.210347
C34   C     C_R   0.500000 0.614585 1.000000 -0.146812
C35   C     C_R   0.634400 0.503252 0.919120 -0.183432
C36   C     C_R   1.000000 0.114585 1.000000 -0.146812
C37   C     C_R   0.500000 0.693301 1.000000 0.004906
C38   C     C_R   1.000000 0.193301 1.000000 0.004906
C39   C     C_1   0.500000 0.733436 1.000000 -0.065888
C40   C     C_1   1.000000 0.233436 1.000000 -0.065888
C41   C     C_1   1.000000 0.267047 1.000000 -0.052620
C42   C     C_1   0.500000 0.767047 1.000000 -0.052620
C43   C     C_R   0.034148 0.326368 0.967881 -0.144764
C44   C     C_R   0.965851 0.326368 0.032119 -0.144764
C45   C     C_R   0.534148 0.826368 0.967881 -0.144764
C46   C     C_R   0.365600 0.503252 0.080880 -0.183432
C47   C     C_R   0.465851 0.826368 0.032119 -0.144764
C48   C     C_R   0.034199 0.365544 0.967812 -0.124857
C49   C     C_R   0.965801 0.365544 0.032188 -0.124855
C50   C     C_R   0.534199 0.865544 0.967812 -0.124857
C51   C     C_R   0.465801 0.865544 0.032188 -0.124855
C52   C     C_R   1.000000 0.385379 0.000000 -0.005187
C53   C     C_R   0.500000 0.885379 0.000000 -0.005187
C54   C     C_3   0.017923 0.461590 0.265453 -0.026915
C55   C     C_3   0.982076 0.461590 0.734547 -0.026916
C56   C     C_3   0.517924 0.961590 0.265453 -0.026915
C57   C     C_R   0.134400 0.003253 0.919120 -0.183432
C58   C     C_3   0.482076 0.961590 0.734547 -0.026915
C59   C     C_R   1.000000 0.306977 1.000000 0.147923
C60   C     C_R   0.500000 0.806977 1.000000 0.147923
C61   C     C_3   0.960319 0.503022 0.330207 0.027206
C62   C     C_3   0.039681 0.503022 0.669793 0.027205
C63   C     C_3   0.460319 0.003022 0.330207 0.027204
C64   C     C_3   0.539681 0.003022 0.669793 0.027205
C65   C     C_3   0.002754 0.500284 0.307552 -0.208122
C66   C     C_3   0.997246 0.500284 0.692448 -0.208119
C67   C     C_3   0.502754 0.000284 0.307552 -0.208121
C68   C     C_R   0.865600 0.003253 0.080880 -0.183432
C69   C     C_3   0.497246 0.000284 0.692448 -0.208121
C70   C     C_3   0.998912 0.499477 0.190519 -0.170081
C71   C     C_3   0.001088 0.499477 0.809481 -0.170080
C72   C     C_3   0.498912 0.999477 0.190519 -0.170080
C73   C     C_3   0.501088 0.999477 0.809481 -0.170079
C74   C     C_3   0.023180 0.465371 0.189360 0.163811
C75   C     C_3   0.976819 0.465372 0.810640 0.163811
C76   C     C_3   0.523181 0.965372 0.189360 0.163810
C77   C     C_3   0.476820 0.965372 0.810640 0.163809
C78   C     C_3   0.082615 0.533344 0.270438 -0.764876
C79   C     C_R   0.614492 0.500010 0.883620 -0.105557
C80   C     C_3   0.917385 0.533345 0.729561 -0.764878
C81   C     C_3   0.582615 0.033345 0.270439 -0.764876
C82   C     C_3   0.417385 0.033345 0.729561 -0.764879
C83   C     C_3   0.808163 0.409383 0.748197 -0.789226
C84   C     C_3   0.191837 0.409383 0.251804 -0.789223
C85   C     C_3   0.308163 0.909383 0.748196 -0.789223
C86   C     C_3   0.691837 0.909383 0.251803 -0.789225
C87   C     C_3   0.035077 0.605570 0.255432 -0.751614
C88   C     C_3   0.964924 0.605570 0.744566 -0.751604
C89   C     C_3   0.535076 0.105570 0.255433 -0.751608
C90   C     C_R   0.385508 0.500010 0.116380 -0.105557
C91   C     C_3   0.464924 0.105570 0.744567 -0.751609
C92   C     C_3   0.588860 0.367151 0.815427 -0.758460
C93   C     C_3   0.411141 0.367151 0.184573 -0.758459
C94   C     C_3   0.088860 0.867152 0.815427 -0.758460
C95   C     C_3   0.911141 0.867151 0.184573 -0.758460
C96   C     C_3   0.067439 0.634003 0.797516 -0.800398
C97   C     C_3   0.932562 0.634003 0.202484 -0.800400
C98   C     C_3   0.567439 0.134003 0.797516 -0.800400
C99   C     C_3   0.432561 0.134003 0.202484 -0.800398
C100  C     C_3   0.536327 0.692405 0.109683 -0.759737
C101  C     C_R   0.114492 0.000010 0.883620 -0.105557
C102  C     C_3   0.463673 0.692404 0.890316 -0.759736
C103  C     C_3   0.036327 0.192405 0.109683 -0.759736
C104  C     C_3   0.963672 0.192404 0.890317 -0.759737
C105  C     C_3   0.053724 0.409207 0.276529 -0.692593
C106  C     C_3   0.946274 0.409208 0.723472 -0.692595
C107  C     C_3   0.553726 0.909208 0.276528 -0.692594
C108  C     C_3   0.446275 0.909208 0.723472 -0.692595
C109  C     C_3   0.893800 0.528418 0.310211 -0.619105
C110  C     C_3   0.106200 0.528418 0.689788 -0.619107
C111  C     C_3   0.393800 0.028418 0.310211 -0.619106
C112  C     C_R   0.073446 0.499949 0.427576 0.915070
C113  C     C_R   0.885508 0.000010 0.116380 -0.105557
C114  C     C_3   0.606200 0.028418 0.689788 -0.619105
C115  C     C_R   0.634300 0.496828 0.807051 -0.241951
C116  C     C_R   0.365700 0.496828 0.192949 -0.241951
C117  C     C_R   0.134300 0.996828 0.807051 -0.241951
C118  C     C_R   0.865700 0.996828 0.192949 -0.241951
C119  C     C_R   0.673536 0.496966 0.766344 0.417318
C120  C     C_R   0.326464 0.496966 0.233656 0.417318
C121  C     C_R   0.173536 0.996965 0.766344 0.417318
C122  C     C_R   0.826464 0.996965 0.233656 0.417318
C123  C     C_R   0.693066 0.500383 0.802491 0.054633
C124  C     C_R   0.426553 0.999949 0.572424 0.915071
C125  C     C_R   0.306934 0.500383 0.197509 0.054634
C126  C     C_R   0.193066 0.000383 0.802491 0.054633
C127  C     C_R   0.806934 0.000383 0.197509 0.054633
C128  C     C_1   0.733121 0.500410 0.762374 0.028243
C129  C     C_1   0.266879 0.500410 0.237626 0.028243
C130  C     C_1   0.233121 0.000410 0.762374 0.028242
C131  C     C_1   0.766879 0.000410 0.237626 0.028243
C132  C     C_1   0.766755 0.500105 0.728769 -0.035426
C133  C     C_1   0.233245 0.500105 0.271231 -0.035426
C134  C     C_1   0.266755 0.000105 0.728769 -0.035426
C135  C     C_R   0.573447 0.999949 0.427576 0.915071
C136  C     C_1   0.733245 0.000105 0.271231 -0.035426
C137  C     C_R   0.826467 0.464783 0.671401 0.246964
C138  C     C_R   0.173533 0.464784 0.328599 0.246963
C139  C     C_R   0.326467 0.964783 0.671401 0.246964
C140  C     C_R   0.673533 0.964784 0.328599 0.246963
C141  C     C_R   0.002981 0.500053 0.375641 1.011619
C142  C     C_R   0.997019 0.500053 0.624359 1.011619
C143  C     C_R   0.502981 0.000053 0.375641 1.011620
C144  C     C_R   0.497019 0.000053 0.624359 1.011619
C145  C     C_R   0.865779 0.465402 0.633025 -0.159538
C146  C     C_3   0.957196 0.498649 0.261303 0.532599
C147  C     C_R   0.134221 0.465402 0.366975 -0.159538
C148  C     C_R   0.365779 0.965402 0.633025 -0.159538
C149  C     C_R   0.634221 0.965402 0.366975 -0.159538
C150  C     C_R   0.885364 0.499777 0.612761 -0.074817
C151  C     C_R   0.114636 0.499777 0.387239 -0.074819
C152  C     C_R   0.385364 0.999777 0.612761 -0.074818
C153  C     C_R   0.614636 0.999777 0.387239 -0.074819
C154  C     C_R   0.865366 0.533826 0.631020 -0.202958
C155  C     C_R   0.134634 0.533827 0.368980 -0.202958
C156  C     C_R   0.365366 0.033827 0.631020 -0.202957
C157  C     C_3   0.042804 0.498649 0.738697 0.532598
C158  C     C_R   0.634634 0.033827 0.368980 -0.202958
C159  C     C_R   0.826258 0.533516 0.668845 -0.180589
C160  C     C_R   0.173742 0.533516 0.331155 -0.180589
C161  C     C_R   0.326258 0.033516 0.668845 -0.180589
C162  C     C_R   0.673742 0.033516 0.331155 -0.180589
C163  C     C_R   0.806829 0.499265 0.688822 0.075890
C164  C     C_R   0.193171 0.499265 0.311178 0.075890
C165  C     C_R   0.306829 0.999265 0.688822 0.075890
C166  C     C_R   0.693171 0.999265 0.311178 0.075890
C167  C     C_R   0.000000 0.573322 1.000000 0.819364
C168  C     C_3   0.457196 0.998649 0.261303 0.532599
C169  C     C_R   0.500000 0.073322 0.000000 0.819365
C170  C     C_R   0.999516 0.499740 0.121889 0.999420
C171  C     C_R   0.000484 0.499740 0.878111 0.999421
C172  C     C_R   0.499516 0.999740 0.121889 0.999420
C173  C     C_R   0.500484 0.999740 0.878111 0.999421
C174  C     C_R   0.000000 0.426540 0.000000 0.975543
C175  C     C_R   0.500000 0.926540 0.000000 0.975543
C176  C     C_R   0.500000 0.426934 0.000000 0.842235
C177  C     C_R   0.000000 0.926934 1.000000 0.842235
C178  C     C_R   0.573249 0.500024 0.926202 0.875075
C179  C     C_3   0.542804 0.998649 0.738697 0.532598
C180  C     C_R   0.426751 0.500024 0.073798 0.875077
C181  C     C_R   0.073249 0.000024 0.926202 0.875075
C182  C     C_R   0.926751 0.000024 0.073798 0.875077
C183  C     C_3   0.026334 0.535389 0.255391 0.424595
C184  C     C_3   0.973666 0.535389 0.744608 0.424596
C185  C     C_3   0.526334 0.035389 0.255391 0.424596
C186  C     C_3   0.473666 0.035389 0.744609 0.424595
C187  C     C_R   0.500000 0.573349 0.000000 0.902423
C188  C     C_R   0.000000 0.073349 0.000000 0.902423
C189  C     C_R   0.528358 0.326604 0.939457 -0.182562
C190  C     C_R   0.673554 0.503464 0.878594 -0.230474
C191  C     C_R   0.471642 0.326604 0.060543 -0.182562
C192  C     C_R   0.028358 0.826604 0.939456 -0.182562
C193  C     C_R   0.971642 0.826604 0.060543 -0.182563
C194  C     C_R   0.529149 0.366187 0.938651 0.191713
C195  C     C_R   0.470851 0.366187 0.061349 0.191713
C196  C     C_R   0.029149 0.866187 0.938651 0.191714
C197  C     C_R   0.970851 0.866187 0.061349 0.191714
C198  C     C_R   0.500000 0.385779 0.000000 -0.176052
C199  C     C_R   0.000000 0.885778 1.000000 -0.176053
C200  C     C_R   0.500000 0.307301 0.000000 0.047725
Cl1   Cl    Cl    0.935124 0.454305 0.261995 -0.467751
Cl2   Cl    Cl    0.302629 0.492730 0.329544 -0.601667
Cl3   Cl    Cl    0.197371 0.992729 0.670456 -0.601667
Cl4   Cl    Cl    0.802629 0.992729 0.329544 -0.601666
Cl5   Cl    Cl    0.928943 0.471861 0.404627 -0.553787
Cl6   Cl    Cl    0.071057 0.471859 0.595373 -0.553785
Cl7   Cl    Cl    0.428943 0.971860 0.404627 -0.553786
Cl8   Cl    Cl    0.571057 0.971860 0.595373 -0.553786
Cl9   Cl    Cl    0.064875 0.454305 0.738006 -0.467750
Cl10  Cl    Cl    0.435125 0.954304 0.261994 -0.467750
Cl11  Cl    Cl    0.564875 0.954305 0.738005 -0.467751
Cl12  Cl    Cl    0.015220 0.421075 0.158966 -0.585458
Cl13  Cl    Cl    0.984780 0.421075 0.841035 -0.585457
Cl14  Cl    Cl    0.515220 0.921075 0.158965 -0.585457
Cl15  Cl    Cl    0.484780 0.921075 0.841035 -0.585457
Cl16  Cl    Cl    0.697371 0.492729 0.670456 -0.601666
H1    H     H_    0.995477 0.440135 0.296383 0.268329
H2    H     H_    0.380220 0.505756 0.021921 0.170622
H3    H     H_    0.065675 0.602032 0.232361 0.266262
H4    H     H_    0.014498 0.577104 0.678779 0.207051
H5    H     H_    0.974738 0.629517 0.705482 0.225732
H6    H     H_    0.969537 0.613042 0.789223 0.227026
H7    H     H_    0.934327 0.602033 0.767628 0.266259
H8    H     H_    0.485502 0.077104 0.321223 0.207052
H9    H     H_    0.525264 0.129516 0.294518 0.225734
H10   H     H_    0.530461 0.113043 0.210779 0.227024
H11   H     H_    0.565673 0.102033 0.232367 0.266260
H12   H     H_    0.514497 0.077104 0.678778 0.207052
H13   H     H_    0.119780 0.005756 0.978079 0.170622
H14   H     H_    0.474736 0.129516 0.705482 0.225735
H15   H     H_    0.469539 0.113043 0.789221 0.227025
H16   H     H_    0.434326 0.102033 0.767633 0.266261
H17   H     H_    0.567698 0.410822 0.892089 0.222743
H18   H     H_    0.608001 0.387955 0.773573 0.252828
H19   H     H_    0.577088 0.348980 0.790335 0.245096
H20   H     H_    0.605474 0.350058 0.831734 0.234150
H21   H     H_    0.432302 0.410822 0.107911 0.222743
H22   H     H_    0.391999 0.387955 0.226427 0.252827
H23   H     H_    0.422912 0.348980 0.209665 0.245096
H24   H     H_    0.880220 0.005756 0.021921 0.170622
H25   H     H_    0.394526 0.350057 0.168266 0.234150
H26   H     H_    0.067698 0.910822 0.892089 0.222743
H27   H     H_    0.108001 0.887955 0.773573 0.252828
H28   H     H_    0.077088 0.848980 0.790335 0.245097
H29   H     H_    0.105474 0.850058 0.831734 0.234149
H30   H     H_    0.932302 0.910822 0.107911 0.222743
H31   H     H_    0.891999 0.887954 0.226427 0.252828
H32   H     H_    0.922912 0.848979 0.209664 0.245097
H33   H     H_    0.894526 0.850057 0.168266 0.234150
H34   H     H_    0.031527 0.590227 0.861139 0.218228
H35   H     H_    0.619409 0.494134 0.778750 0.194463
H36   H     H_    0.083698 0.613576 0.752520 0.239308
H37   H     H_    0.088045 0.652365 0.800595 0.252806
H38   H     H_    0.049374 0.650892 0.784505 0.231474
H39   H     H_    0.968473 0.590227 0.138861 0.218228
H40   H     H_    0.916303 0.613577 0.247480 0.239308
H41   H     H_    0.911956 0.652366 0.199405 0.252807
H42   H     H_    0.950627 0.650893 0.215493 0.231474
H43   H     H_    0.531527 0.090227 0.861139 0.218227
H44   H     H_    0.583698 0.113577 0.752520 0.239308
H45   H     H_    0.588044 0.152365 0.800595 0.252806
H46   H     H_    0.380591 0.494135 0.221250 0.194463
H47   H     H_    0.549374 0.150892 0.784506 0.231474
H48   H     H_    0.468473 0.090227 0.138861 0.218227
H49   H     H_    0.416302 0.113577 0.247480 0.239308
H50   H     H_    0.411956 0.152365 0.199405 0.252806
H51   H     H_    0.450626 0.150892 0.215494 0.231474
H52   H     H_    0.487976 0.718999 0.127461 0.241819
H53   H     H_    0.533236 0.706398 0.158664 0.245945
H54   H     H_    0.557857 0.707851 0.060001 0.240933
H55   H     H_    0.545916 0.662984 0.107784 0.244099
H56   H     H_    0.512024 0.718999 0.872539 0.241819
H57   H     H_    0.119409 0.994134 0.778750 0.194463
H58   H     H_    0.466764 0.706398 0.841336 0.245944
H59   H     H_    0.442143 0.707850 0.939998 0.240933
H60   H     H_    0.454084 0.662983 0.892214 0.244098
H61   H     H_    0.987976 0.218999 0.127461 0.241819
H62   H     H_    0.033237 0.206398 0.158663 0.245943
H63   H     H_    0.057857 0.207851 0.060001 0.240933
H64   H     H_    0.045916 0.162984 0.107784 0.244099
H65   H     H_    0.012024 0.218999 0.872539 0.241819
H66   H     H_    0.966763 0.206398 0.841336 0.245944
H67   H     H_    0.942143 0.207850 0.939999 0.240933
H68   H     H_    0.880591 0.994134 0.221250 0.194463
H69   H     H_    0.954084 0.162983 0.892215 0.244099
H70   H     H_    0.077507 0.457833 0.216328 0.228421
H71   H     H_    0.079757 0.403685 0.276824 0.217340
H72   H     H_    0.053920 0.391183 0.234209 0.270342
H73   H     H_    0.029161 0.401814 0.331346 0.256315
H74   H     H_    0.922493 0.457834 0.783673 0.228421
H75   H     H_    0.920241 0.403687 0.723177 0.217340
H76   H     H_    0.946078 0.391183 0.765792 0.270342
H77   H     H_    0.970838 0.401814 0.668654 0.256315
H78   H     H_    0.577507 0.957835 0.216327 0.228421
H79   H     H_    0.880952 0.438907 0.618684 0.176478
H80   H     H_    0.579758 0.903686 0.276823 0.217340
H81   H     H_    0.553922 0.891183 0.234208 0.270341
H82   H     H_    0.529162 0.901814 0.331345 0.256315
H83   H     H_    0.422493 0.957834 0.783673 0.228421
H84   H     H_    0.420242 0.903686 0.723177 0.217340
H85   H     H_    0.446079 0.891183 0.765792 0.270342
H86   H     H_    0.470838 0.901814 0.668654 0.256315
H87   H     H_    0.944448 0.556265 0.259717 0.175906
H88   H     H_    0.880962 0.554995 0.306283 0.201279
H89   H     H_    0.886547 0.525211 0.367484 0.256479
H90   H     H_    0.119048 0.438908 0.381316 0.176478
H91   H     H_    0.881249 0.505103 0.295800 0.284985
H92   H     H_    0.055553 0.556265 0.740282 0.175907
H93   H     H_    0.119038 0.554994 0.693716 0.201279
H94   H     H_    0.113454 0.525210 0.632515 0.256479
H95   H     H_    0.118751 0.505102 0.704201 0.284985
H96   H     H_    0.444447 0.056265 0.259718 0.175906
H97   H     H_    0.380962 0.054994 0.306284 0.201279
H98   H     H_    0.386546 0.025210 0.367485 0.256480
H99   H     H_    0.381248 0.005102 0.295799 0.284985
H100  H     H_    0.555552 0.056265 0.740282 0.175906
H101  H     H_    0.380952 0.938908 0.618684 0.176478
H102  H     H_    0.619038 0.054995 0.693716 0.201279
H103  H     H_    0.613454 0.025210 0.632515 0.256480
H104  H     H_    0.618751 0.005103 0.704201 0.284985
H105  H     H_    0.004522 0.440135 0.703618 0.268329
H106  H     H_    0.619048 0.938908 0.381316 0.176478
H107  H     H_    0.879901 0.560676 0.616056 0.166698
H108  H     H_    0.120099 0.560676 0.383943 0.166698
H109  H     H_    0.379901 0.060676 0.616056 0.166697
H110  H     H_    0.620099 0.060676 0.383944 0.166698
H111  H     H_    0.811118 0.560039 0.682716 0.154246
H112  H     H_    0.188882 0.560039 0.317283 0.154246
H113  H     H_    0.311118 0.060039 0.682716 0.154246
H114  H     H_    0.688882 0.060039 0.317284 0.154246
H115  H     H_    0.549928 0.310347 0.893943 0.151622
H116  H     H_    0.495477 0.940135 0.296382 0.268329
H117  H     H_    0.450072 0.310347 0.106057 0.151622
H118  H     H_    0.049928 0.810348 0.893943 0.151622
H119  H     H_    0.950072 0.810347 0.106056 0.151622
H120  H     H_    0.039080 0.690316 0.885147 0.153162
H121  H     H_    0.960920 0.690316 0.114852 0.153162
H122  H     H_    0.539080 0.190316 0.885148 0.153162
H123  H     H_    0.460919 0.190316 0.114852 0.153162
H124  H     H_    0.500673 0.619360 0.099333 0.180305
H125  H     H_    0.499327 0.619360 0.900667 0.180305
H126  H     H_    0.000674 0.119360 0.099333 0.180305
H127  H     H_    0.504523 0.940135 0.703618 0.268329
H128  H     H_    0.999326 0.119360 0.900667 0.180305
H129  H     H_    0.060633 0.311227 0.942990 0.142012
H130  H     H_    0.939367 0.311226 0.057010 0.142012
H131  H     H_    0.560633 0.811226 0.942990 0.142012
H132  H     H_    0.439367 0.811226 0.057010 0.142012
H133  H     H_    0.060911 0.380230 0.942729 0.168438
H134  H     H_    0.939089 0.380230 0.057271 0.168438
H135  H     H_    0.560911 0.880230 0.942729 0.168438
H136  H     H_    0.439089 0.880230 0.057271 0.168438
H137  H     H_    0.003580 0.561160 0.192772 0.177270
H138  H     H_    0.688629 0.506009 0.906594 0.155039
H139  H     H_    0.996420 0.561160 0.807228 0.177268
H140  H     H_    0.503579 0.061160 0.192772 0.177269
H141  H     H_    0.496420 0.061160 0.807228 0.177270
H142  H     H_    0.046794 0.539259 0.138216 0.215055
H143  H     H_    0.953207 0.539259 0.861783 0.215054
H144  H     H_    0.546793 0.039259 0.138217 0.215054
H145  H     H_    0.453207 0.039259 0.861783 0.215055
H146  H     H_    0.053211 0.471482 0.147818 0.134362
H147  H     H_    0.946789 0.471483 0.852182 0.134362
H148  H     H_    0.553211 0.971483 0.147818 0.134362
H149  H     H_    0.311371 0.506009 0.093406 0.155039
H150  H     H_    0.446789 0.971483 0.852182 0.134363
H151  H     H_    0.949137 0.530870 0.355490 0.109509
H152  H     H_    0.050864 0.530869 0.644509 0.109510
H153  H     H_    0.449136 0.030869 0.355490 0.109509
H154  H     H_    0.550864 0.030870 0.644509 0.109509
H155  H     H_    0.082950 0.516013 0.176912 0.203888
H156  H     H_    0.080683 0.505541 0.295414 0.219627
H157  H     H_    0.068166 0.555079 0.313570 0.278311
H158  H     H_    0.112842 0.541162 0.236345 0.228782
H159  H     H_    0.917050 0.516014 0.823088 0.203888
H160  H     H_    0.188629 0.006009 0.906594 0.155039
H161  H     H_    0.919316 0.505542 0.704588 0.219627
H162  H     H_    0.931836 0.555079 0.686427 0.278311
H163  H     H_    0.887158 0.541165 0.763653 0.228782
H164  H     H_    0.582950 0.016014 0.176912 0.203888
H165  H     H_    0.580684 0.005542 0.295413 0.219627
H166  H     H_    0.568165 0.055080 0.313572 0.278311
H167  H     H_    0.612842 0.041165 0.236346 0.228781
H168  H     H_    0.417050 0.016013 0.823088 0.203888
H169  H     H_    0.419316 0.005542 0.704588 0.219628
H170  H     H_    0.431835 0.055079 0.686428 0.278312
H171  H     H_    0.811371 0.006009 0.093406 0.155038
H172  H     H_    0.387158 0.041164 0.763654 0.228782
H173  H     H_    0.781033 0.429536 0.697514 0.248750
H174  H     H_    0.793996 0.381664 0.757355 0.251113
H175  H     H_    0.793116 0.425858 0.799893 0.236679
H176  H     H_    0.837655 0.404224 0.732853 0.243273
H177  H     H_    0.218967 0.429536 0.302487 0.248750
H178  H     H_    0.206004 0.381664 0.242646 0.251112
H179  H     H_    0.206884 0.425858 0.200107 0.236679
H180  H     H_    0.162346 0.404224 0.267147 0.243272
H181  H     H_    0.281033 0.929536 0.697514 0.248750
H182  H     H_    0.619780 0.505756 0.978079 0.170622
H183  H     H_    0.293996 0.881664 0.757354 0.251112
H184  H     H_    0.293116 0.925858 0.799893 0.236679
H185  H     H_    0.337655 0.904224 0.732853 0.243272
H186  H     H_    0.718967 0.929536 0.302487 0.248750
H187  H     H_    0.706004 0.881664 0.242646 0.251113
H188  H     H_    0.706884 0.925858 0.200107 0.236679
H189  H     H_    0.662346 0.904224 0.267147 0.243273
H190  H     H_    0.985503 0.577104 0.321223 0.207054
H191  H     H_    0.025267 0.629516 0.294517 0.225736
H192  H     H_    0.030460 0.613044 0.210781 0.227025
N1    N     N_2   0.067022 0.531141 0.224529 -0.295380
N2    N     N_2   0.986043 0.571884 0.706297 -0.264628
N3    N     N_2   0.513957 0.071884 0.293702 -0.264628
N4    N     N_2   0.486042 0.071884 0.706298 -0.264628
N5    N     N_2   0.558872 0.386880 0.878233 -0.286244
N6    N     N_2   0.441128 0.386880 0.121767 -0.286245
N7    N     N_2   0.058872 0.886881 0.878233 -0.286244
N8    N     N_2   0.941128 0.886880 0.121767 -0.286245
N9    N     N_2   0.044385 0.613914 0.865771 -0.278091
N10   N     N_2   0.955615 0.613914 0.134229 -0.278091
N11   N     N_2   0.544385 0.113914 0.865771 -0.278090
N12   N     N_2   0.932979 0.531142 0.775470 -0.295377
N13   N     N_2   0.455615 0.113914 0.134229 -0.278090
N14   N     N_2   0.500547 0.692796 0.114452 -0.303039
N15   N     N_2   0.499453 0.692796 0.885548 -0.303039
N16   N     N_2   0.000547 0.192796 0.114452 -0.303039
N17   N     N_2   0.999453 0.192796 0.885548 -0.303039
N18   N     N_2   0.052390 0.448609 0.260538 -0.314199
N19   N     N_2   0.947609 0.448610 0.739462 -0.314200
N20   N     N_2   0.552391 0.948610 0.260538 -0.314199
N21   N     N_2   0.447609 0.948610 0.739462 -0.314199
N22   N     N_2   0.934366 0.529803 0.259927 -0.318892
N23   N     N_2   0.567021 0.031142 0.224529 -0.295379
N24   N     N_2   0.065634 0.529803 0.740073 -0.318893
N25   N     N_2   0.434366 0.029803 0.259927 -0.318892
N26   N     N_2   0.565634 0.029803 0.740073 -0.318892
N27   N     N_2   0.432979 0.031142 0.775471 -0.295378
N28   N     N_2   0.807361 0.429417 0.690594 -0.295313
N29   N     N_2   0.192639 0.429417 0.309407 -0.295313
N30   N     N_2   0.307361 0.929417 0.690593 -0.295313
N31   N     N_2   0.692639 0.929417 0.309407 -0.295314
N32   N     N_2   0.013958 0.571884 0.293702 -0.264628
O1    O     O_R   0.944550 0.531270 0.555450 -0.640106
O2    O     O_R   0.444590 0.500090 0.003140 -0.622743
O3    O     O_R   0.055410 0.000090 0.996860 -0.622743
O4    O     O_R   0.944590 0.000090 0.003140 -0.622743
O5    O     O_R   0.500010 0.555520 0.947680 -0.621708
O6    O     O_R   0.499990 0.555520 0.052320 -0.621709
O7    O     O_R   0.000010 0.055520 0.947680 -0.621708
O8    O     O_R   0.999990 0.055520 0.052320 -0.621709
O9    O     O_R   0.944500 0.468660 0.555500 -0.609436
O10   O     O_R   0.055500 0.468660 0.444500 -0.609435
O11   O     O_R   0.444500 0.968660 0.555500 -0.609435
O12   O     O_R   0.055450 0.531270 0.444550 -0.640105
O13   O     O_R   0.555500 0.968660 0.444500 -0.609435
O14   O     O_R   0.999990 0.531270 0.407410 -0.630472
O15   O     O_R   0.000010 0.531270 0.592590 -0.630472
O16   O     O_R   0.499990 0.031270 0.407410 -0.630472
O17   O     O_R   0.500010 0.031270 0.592590 -0.630472
O18   O     O_R   0.999940 0.468660 0.407460 -0.579911
O19   O     O_R   0.000060 0.468660 0.592540 -0.579911
O20   O     O_R   0.499940 0.968660 0.407460 -0.579911
O21   O     O_R   0.500060 0.968660 0.592540 -0.579910
O22   O     O_R   0.968670 0.555400 0.031330 -0.613372
O23   O     O_R   0.444550 0.031270 0.555450 -0.640106
O24   O     O_R   0.031330 0.555400 0.968670 -0.613373
O25   O     O_R   0.468670 0.055400 0.031330 -0.613372
O26   O     O_R   0.531330 0.055400 0.968670 -0.613373
O27   O     O_R   0.968670 0.499940 0.123930 -0.574696
O28   O     O_R   0.031330 0.499940 0.876070 -0.574696
O29   O     O_R   0.468670 0.999940 0.123930 -0.574696
O30   O     O_R   0.531330 0.999940 0.876070 -0.574696
O31   O     O_R   0.031270 0.499990 0.061330 -0.639494
O32   O     O_R   0.968730 0.499990 0.938670 -0.639494
O33   O     O_R   0.531270 0.999990 0.061330 -0.639494
O34   O     O_R   0.555450 0.031270 0.444550 -0.640105
O35   O     O_R   0.468730 0.999990 0.938670 -0.639494
O36   O     O_R   0.968660 0.444490 0.031330 -0.608864
O37   O     O_R   0.031340 0.444490 0.968670 -0.608864
O38   O     O_R   0.468660 0.944490 0.031330 -0.608864
O39   O     O_R   0.531340 0.944490 0.968670 -0.608864
O40   O     O_R   0.499920 0.444610 0.947830 -0.601810
O41   O     O_R   0.500080 0.444610 0.052170 -0.601811
O42   O     O_R   0.999920 0.944610 0.947830 -0.601811
O43   O     O_R   0.000080 0.944610 0.052170 -0.601811
O44   O     O_R   0.555400 0.500060 0.892310 -0.618628
O45   O     O_R   0.444600 0.500060 0.107690 -0.618629
O46   O     O_R   0.055400 0.000060 0.892310 -0.618628
O47   O     O_R   0.944600 0.000060 0.107690 -0.618629
O48   O     O_R   0.555410 0.500090 0.996860 -0.622743
Zn1   Zn    Zn3+2 1.000000 0.541770 0.500000 0.948722
Zn2   Zn    Zn3+2 0.500040 0.500060 0.069780 0.975080
Zn3   Zn    Zn3+2 0.999960 0.000060 0.930220 0.975080
Zn4   Zn    Zn3+2 0.000040 0.000060 0.069780 0.975080
Zn5   Zn    Zn3+2 0.500000 0.041770 0.500000 0.948722
Zn6   Zn    Zn3+2 1.000000 0.458160 0.500000 1.013629
Zn7   Zn    Zn3+2 0.500000 0.958160 0.500000 1.013630
Zn8   Zn    Zn3+2 0.958170 0.499940 0.041830 1.022375
Zn9   Zn    Zn3+2 0.041830 0.499940 0.958170 1.022374
Zn10  Zn    Zn3+2 0.458170 0.999940 0.041830 1.022374
Zn11  Zn    Zn3+2 0.541830 0.999940 0.958170 1.022374
Zn12  Zn    Zn3+2 0.499960 0.500060 0.930220 0.975080

loop_
_geom_bond_atom_site_label_1
_geom_bond_atom_site_label_2
_ccdc_geom_bond_type
C67   C143  S    
H12   N4    S    
C54   C65   S    
C82   H169  S    
C112  O10   A    
C83   H176  S    
C139  N30   S    
C186  N4    S    
C72   C172  S    
C146  Cl1   S    
C87   H192  S    
C4    C7    T    
H52   N14   S    
C5    C6    T    
C111  H97   S    
C58   N21   S    
C141  O14   A    
H56   N15   S    
O7    Zn3   S    
C172  O29   A    
C29   C33   A    
C13   H160  S    
C197  C199  A    
C149  C153  A    
C176  O40   A    
C81   H165  S    
C54   C74   S    
C189  C194  A    
C80   N12   S    
C152  C156  A    
C83   H174  S    
C70   C74   S    
C24   C127  A    
C20   C71   S    
C151  C155  A    
C149  H106  S    
C22   H145  S    
H92   N24   S    
H43   N11   S    
C20   C184  S    
C195  C198  A    
C167  O24   A    
C173  O30   A    
C177  O42   A    
C91   N4    S    
C171  O28   A    
C130  C134  T    
C169  O26   A    
H96   N25   S    
C71   C157  S    
C50   C53   A    
C21   C72   S    
C27   C31   A    
C144  O17   A    
C182  O47   A    
C28   C32   A    
C117  H57   S    
C145  H79   S    
C148  H101  S    
C62   C66   S    
C107  H80   S    
O37   Zn9   S    
C157  N24   S    
C92   H20   S    
O42   Zn3   S    
C66   C142  S    
O30   Zn11  S    
C36   C188  S    
C63   H153  S    
C61   C146  S    
C102  N15   S    
C54   N18   S    
C58   H127  S    
C98   N11   S    
C62   C157  S    
C1    C150  S    
C26   C37   A    
C20   H143  S    
C80   H162  S    
C102  H58   S    
H78   N20   S    
C143  O16   A    
C84   H180  S    
C22   H141  S    
C97   H40   S    
C129  C133  T    
C81   N23   S    
C84   N29   S    
C35   C190  A    
C125  C129  S    
C88   H6    S    
C50   H135  S    
C19   C183  S    
C168  N25   S    
C192  C196  A    
C100  N14   S    
C137  C145  A    
C138  N29   S    
C112  O12   A    
C187  O6    A    
H4    N2    S    
C21   H144  S    
C194  N5    S    
O40   Zn12  S    
C107  H82   S    
C82   N27   S    
O17   Zn5   S    
C119  C123  A    
C51   H136  S    
C132  C163  S    
C96   H38   S    
C103  N16   S    
C56   N20   S    
O2    Zn12  S    
C22   C73   S    
H34   N9    S    
C45   C50   A    
C55   N19   S    
C107  N20   S    
C94   H29   S    
C127  C131  S    
C105  N18   S    
O23   Zn5   S    
C84   H178  S    
C95   N8    S    
C167  O22   A    
C61   C65   S    
C48   C52   A    
C78   H157  S    
H177  N29   S    
C37   C39   S    
C86   H189  S    
C27   N15   S    
C73   C77   S    
C114  H103  S    
C135  O34   A    
H100  N26   S    
C62   Cl6   S    
C81   H167  S    
C67   C185  S    
C100  H55   S    
C14   N10   S    
C15   C18   A    
O1    Zn1   S    
C157  Cl9   S    
C186  N27   S    
C79   C115  A    
C177  O43   A    
C196  N7    S    
C120  Cl2   S    
C122  C127  A    
C89   H10   S    
C8    C23   A    
H164  N23   S    
C69   C144  S    
C3    C193  A    
H186  N31   S    
H21   N6    S    
C32   C36   A    
C104  H67   S    
C115  H35   S    
O12   Zn1   S    
C11   C25   A    
C44   C59   A    
C82   H172  S    
C61   H151  S    
C109  H89   S    
C44   H130  S    
C110  H94   S    
H181  N30   S    
C118  C122  A    
C161  H113  S    
C153  C158  A    
O21   Zn7   S    
C193  H119  S    
C26   N14   S    
O19   Zn6   S    
C58   C77   S    
C95   H31   S    
C29   C38   A    
O6    Zn2   S    
C138  C147  A    
C145  C150  A    
C43   C59   A    
C55   C75   S    
C109  H88   S    
C119  Cl16  S    
H155  N1    S    
C72   C168  S    
C14   C17   A    
C137  N28   S    
C103  H64   S    
O20   Zn7   S    
C97   H42   S    
C105  H73   S    
C77   H150  S    
C173  O35   A    
C90   C180  S    
C139  C148  A    
O31   Zn9   S    
C30   C34   A    
C62   H152  S    
C191  C200  A    
C121  Cl3   S    
C131  C136  T    
C48   H133  S    
C8    H120  S    
C64   C179  S    
C24   C68   A    
C9    C23   A    
C75   Cl13  S    
C116  C120  A    
C91   H15   S    
C51   C53   A    
C22   C186  S    
C147  C151  A    
C94   H27   S    
O33   Zn11  S    
C75   H147  S    
C94   N7    S    
C56   H116  S    
C106  H76   S    
C65   C141  S    
C106  N19   S    
O44   Zn12  S    
C8    C12   A    
C86   H187  S    
O5    Zn12  S    
C159  H111  S    
C181  O3    A    
C31   C34   A    
C64   C69   S    
C123  C190  A    
C176  O41   A    
C43   H129  S    
C188  O7    A    
C10   C25   A    
C158  H110  S    
C33   H128  S    
C156  C161  A    
C26   C30   A    
C195  N6    S    
C115  C119  A    
C71   C171  S    
C106  H77   S    
C52   C174  S    
C101  C181  S    
C96   N9    S    
C53   C175  S    
H65   N17   S    
C40   C41   T    
C196  C199  A    
O27   Zn8   S    
C170  O27   A    
C148  C152  A    
C176  C198  S    
O25   Zn10  S    
C171  O32   A    
C49   H134  S    
C82   H170  S    
C57   C101  A    
C109  H91   S    
C178  O44   A    
C143  O20   A    
C154  C159  A    
C87   H191  S    
C3    C192  A    
C142  O19   A    
C185  N3    S    
C194  C198  A    
C93   H23   S    
C85   H184  S    
C35   C79   A    
C34   C187  S    
C191  C195  A    
H87   N22   S    
C2    C125  A    
C76   Cl14  S    
C4    C200  S    
C197  N8    S    
C177  C199  S    
C87   N32   S    
C21   H140  S    
O36   Zn8   S    
O22   Zn8   S    
C103  H62   S    
C192  H118  S    
C140  C149  A    
C10   H122  S    
C96   H37   S    
C61   Cl5   S    
C1    O9    A    
C183  N32   S    
C99   H50   S    
C46   H2    S    
C74   H146  S    
C179  N26   S    
C169  O25   A    
O38   Zn10  S    
C100  H54   S    
C147  H90   S    
C105  H71   S    
H61   N16   S    
C137  C163  A    
C160  C164  A    
O11   Zn7   S    
C86   N31   S    
C174  O36   A    
C126  C130  S    
C83   H175  S    
C122  Cl4   S    
O16   Zn5   S    
C104  H66   S    
C162  C166  A    
C99   H49   S    
O39   Zn11  S    
C12   C17   A    
C78   N1    S    
O47   Zn4   S    
C110  N24   S    
C102  H59   S    
C181  O46   A    
C68   C113  A    
C100  H53   S    
C108  H85   S    
C160  H112  S    
C63   Cl7   S    
C189  H115  S    
C30   H124  S    
C24   H171  S    
C1    O1    A    
C45   H131  S    
C124  O11   A    
C175  O38   A    
C39   C42   T    
C140  C166  A    
C187  O5    A    
C28   N16   S    
C105  H72   S    
C168  Cl10  S    
O24   Zn9   S    
C97   N10   S    
C107  H81   S    
C111  N25   S    
C111  H98   S    
C47   C51   A    
C91   H14   S    
C190  H138  S    
C74   Cl12  S    
C104  N17   S    
C9    C14   A    
C2    H149  S    
O28   Zn9   S    
C81   H166  S    
C57   H13   S    
C11   C16   A    
C90   C116  A    
C49   C52   A    
O48   Zn2   S    
C19   H137  S    
O10   Zn6   S    
C83   N28   S    
C13   C126  A    
C15   N11   S    
C78   H158  S    
C85   H185  S    
C161  C165  A    
C140  N31   S    
C134  C165  S    
C89   N3    S    
C114  H104  S    
C96   H36   S    
C133  C164  S    
C55   C66   S    
C77   Cl15  S    
C54   H1    S    
C183  N1    S    
C18   C169  S    
C68   H24   S    
C12   N9    S    
C120  C125  A    
H30   N8    S    
C89   H9    S    
C3    C5    S    
O18   Zn6   S    
H190  N32   S    
C58   C69   S    
C21   C185  S    
C46   C90   A    
C92   H19   S    
C7    C25   S    
C101  C117  A    
C70   C170  S    
C124  O23   A    
C38   C40   S    
H83   N21   S    
C136  C166  S    
C162  H114  S    
C55   H105  S    
C110  H95   S    
C80   H161  S    
C180  O45   A    
C172  O33   A    
C13   C57   A    
C141  O18   A    
C142  O15   A    
C191  H117  S    
C88   H5    S    
C93   H25   S    
C170  O31   A    
C69   C186  S    
H17   N5    S    
H74   N19   S    
C44   C49   A    
C45   C60   A    
C178  O48   A    
C56   C76   S    
C103  H63   S    
C16   N13   S    
C72   C76   S    
C32   H126  S    
C108  N21   S    
C95   H33   S    
C97   H41   S    
C182  O4    A    
C2    C46   A    
O43   Zn4   S    
C64   Cl8   S    
C99   H51   S    
C180  O2    A    
O41   Zn2   S    
O13   Zn7   S    
C184  N2    S    
O29   Zn10  S    
O26   Zn11  S    
C10   C15   A    
O15   Zn1   S    
C179  Cl11  S    
O45   Zn2   S    
C139  C165  A    
C144  O21   A    
C117  C121  A    
H70   N18   S    
C94   H28   S    
C47   C60   A    
C98   H47   S    
C78   H156  S    
C86   H188  S    
C135  O13   A    
C114  H102  S    
C87   H3    S    
C43   C48   A    
C156  H109  S    
C104  H69   S    
C188  O8    A    
C124  C152  S    
C20   H139  S    
C85   N30   S    
C89   H11   S    
C154  H107  S    
C146  N22   S    
O8    Zn4   S    
H39   N10   S    
C108  H84   S    
C93   N6    S    
C63   C67   S    
C112  C151  S    
C35   H182  S    
C33   C36   A    
O32   Zn8   S    
O46   Zn3   S    
C64   H154  S    
C41   C59   S    
C17   C167  S    
C42   C60   S    
H168  N27   S    
C175  O39   A    
C155  H108  S    
C29   N17   S    
C110  H93   S    
C99   N13   S    
C80   H163  S    
C118  H68   S    
C31   H125  S    
C95   H32   S    
C47   H132  S    
C184  N12   S    
C111  H99   S    
C113  C182  S    
C28   C38   A    
C93   H22   S    
C85   H183  S    
C88   H7    S    
O4    Zn3   S    
C70   C146  S    
C189  C200  A    
C63   C168  S    
C19   H142  S    
C159  C163  A    
C79   C178  S    
C65   C183  S    
C98   H44   S    
C66   C184  S    
C128  C132  T    
C155  C160  A    
O3    Zn4   S    
C84   H179  S    
C114  N26   S    
O14   Zn1   S    
H159  N12   S    
O9    Zn6   S    
H173  N28   S    
C9    H121  S    
C56   C67   S    
C135  C153  S    
O35   Zn10  S    
C91   H16   S    
C11   H123  S    
C121  C126  A    
C76   H148  S    
C106  H75   S    
C71   C75   S    
C98   H45   S    
C123  C128  S    
C174  O37   A    
C27   C37   A    
C193  C197  A    
C6    C23   S    
C92   H18   S    
C73   C173  S    
H26   N7    S    
H8    N3    S    
C116  H46   S    
H48   N13   S    
C158  C162  A    
C113  C118  A    
C73   C179  S    
C16   C18   A    
C150  C154  A    
C109  N22   S    
C19   C70   S    
C138  C164  A    
O34   Zn5   S    
C102  H60   S    
C185  N23   S    
C88   N2    S    
C92   N5    S    
C108  H86   S    
