data_mof_unit_42354.cif
_audit_creation_date              2012-12-10T17:17:56-0500
_audit_creation_method            fapswitch 2.2
_symmetry_space_group_name_H-M    P1
_symmetry_Int_Tables_number       1
_space_group_crystal_system       triclinic
_cell_length_a                    14.669701
_cell_length_b                    16.02874
_cell_length_c                    9.620876
_cell_angle_alpha                 90.003996
_cell_angle_beta                  90.555377
_cell_angle_gamma                 90.001145
_cell_volume                      2262.11593781

loop_
_atom_site_label
_atom_site_type_symbol
_atom_type_description
_atom_site_fract_x
_atom_site_fract_y
_atom_site_fract_z
_atom_type_partial_charge
C1    C     C_R   0.385110 0.878035 0.500009 0.820923
C2    C     C_R   0.385114 0.121962 0.500012 0.820889
C3    C     C_R   0.885117 0.378031 0.500014 0.820952
C4    C     C_R   0.885119 0.621967 0.500021 0.820902
C5    C     C_R   0.265710 0.203264 0.382832 -0.131855
C6    C     C_R   0.265724 0.796694 0.382819 -0.131589
C7    C     C_R   0.765719 0.703272 0.382859 -0.131744
C8    C     C_R   0.765756 0.296670 0.382830 -0.131627
C9    C     C_R   0.693144 0.758390 0.384334 0.260014
C10   C     C_R   0.693157 0.241579 0.384336 0.259913
C11   C     C_R   0.193145 0.258394 0.384309 0.259974
C12   C     C_R   0.193123 0.741601 0.384331 0.259947
C13   C     C_R   0.671873 0.801533 0.507342 -0.168442
C14   C     C_R   0.671880 0.198459 0.507352 -0.168433
C15   C     C_R   0.171876 0.301532 0.507328 -0.168439
C16   C     C_R   0.171863 0.698470 0.507344 -0.168415
C17   C     C_R   0.664425 0.999975 0.155554 -0.129828
C18   C     C_R   0.164425 0.500082 0.155553 -0.129820
C19   C     C_R   0.748617 0.999873 0.097152 0.213576
C20   C     C_R   0.248615 0.500250 0.097152 0.213579
C21   C     C_R   0.755801 0.999863 0.956797 -0.231490
C22   C     C_R   0.255797 0.500298 0.956797 -0.231458
C23   C     C_R   0.678751 0.999963 0.868981 0.225105
C24   C     C_R   0.178750 0.500147 0.868982 0.225123
C25   C     C_R   0.585267 0.999992 0.927053 0.097510
C26   C     C_R   0.085267 0.500059 0.927053 0.097526
C27   C     C_R   0.582429 0.999994 0.077904 0.113862
C28   C     C_R   0.082428 0.500046 0.077904 0.113874
C29   C     C_R   0.421612 0.999997 0.070777 0.390985
C30   C     C_R   0.921611 0.499959 0.070777 0.391073
C31   C     C_R   0.611623 0.124626 0.501284 0.868853
C32   C     C_R   0.611624 0.875374 0.501278 0.868898
C33   C     C_R   0.111617 0.624629 0.501283 0.868881
C34   C     C_R   0.111624 0.375373 0.501276 0.868875
C35   C     C_R   0.422069 1.000000 0.923900 -0.044512
C36   C     C_R   0.922067 0.499950 0.923899 -0.044563
C37   C     C_R   0.360690 0.235806 0.741481 -0.160748
C38   C     C_R   0.360557 0.764378 0.741632 -0.160693
C39   C     C_R   0.860595 0.735710 0.741633 -0.160841
C40   C     C_R   0.860540 0.264410 0.741698 -0.160837
C41   C     C_R   0.330592 0.263781 0.870171 0.313335
C42   C     C_R   0.330339 0.736724 0.870391 0.313190
C43   C     C_R   0.830456 0.763658 0.870312 0.313249
C44   C     C_R   0.830345 0.236681 0.870430 0.313247
C45   C     C_R   0.741455 0.791271 0.884061 -0.129137
C46   C     C_R   0.741381 0.208958 0.884100 -0.128965
C47   C     C_R   0.241568 0.291347 0.884008 -0.129000
C48   C     C_R   0.241345 0.709075 0.884094 -0.129262
C49   C     C_R   0.685007 0.797746 0.767575 -0.140677
C50   C     C_R   0.684993 0.202311 0.767578 -0.140688
C51   C     C_R   0.185074 0.297779 0.767568 -0.140575
C52   C     C_R   0.184969 0.702369 0.767565 -0.140787
C53   C     C_R   0.718167 0.779269 0.633139 0.078751
C54   C     C_R   0.718171 0.220737 0.633145 0.078859
C55   C     C_R   0.218191 0.279279 0.633112 0.078729
C56   C     C_R   0.218159 0.720751 0.633125 0.078868
C57   C     C_R   0.301207 0.235528 0.624575 0.049738
C58   C     C_R   0.301175 0.764498 0.624601 0.049704
C59   C     C_R   0.801178 0.735503 0.624640 0.049821
C60   C     C_R   0.801175 0.264507 0.624642 0.049729
C61   C     C_R   0.320331 0.191321 0.500996 -0.144993
C62   C     C_R   0.320338 0.808659 0.500991 -0.145022
C63   C     C_R   0.820332 0.691322 0.501033 -0.144976
C64   C     C_R   0.820348 0.308655 0.501017 -0.145055
Cu1   Cu    Cu3+1 0.499990 0.000000 0.640660 0.975499
Cu2   Cu    Cu3+1 0.999990 0.500000 0.640660 0.975480
Cu3   Cu    Cu3+1 0.500010 0.000000 0.359340 1.059360
Cu4   Cu    Cu3+1 0.000010 0.500000 0.359340 1.059386
H1    H     H_    0.277816 0.168034 0.288864 0.230631
H2    H     H_    0.277838 0.831905 0.288841 0.230819
H3    H     H_    0.777829 0.668044 0.288888 0.230670
H4    H     H_    0.777886 0.331864 0.288839 0.230848
H5    H     H_    0.825160 0.999762 0.918274 0.241298
H6    H     H_    0.325154 0.500406 0.918274 0.241307
H7    H     H_    0.358140 0.999992 0.866834 0.171510
H8    H     H_    0.858136 0.499904 0.866833 0.171520
H9    H     H_    0.430726 0.215393 0.734325 0.166444
H10   H     H_    0.430585 0.784719 0.734532 0.166583
H11   H     H_    0.930611 0.715255 0.734606 0.166564
H12   H     H_    0.930551 0.284800 0.734651 0.166664
H13   H     H_    0.668858 0.000000 0.264419 0.235277
H14   H     H_    0.168859 0.499989 0.264417 0.235271
N1    N     N_R   0.501200 0.000000 0.147910 -0.194580
N2    N     N_R   0.001200 0.500000 0.147910 -0.194581
N3    N     N_R   0.501270 0.000000 0.852040 -0.216215
N4    N     N_R   0.001270 0.500000 0.852040 -0.216234
O1    O     O_R   0.409820 0.909830 0.618810 -0.602747
O2    O     O_R   0.409820 0.090170 0.618810 -0.602719
O3    O     O_R   0.909820 0.409830 0.618810 -0.602785
O4    O     O_R   0.909820 0.590170 0.618810 -0.602761
O5    O     O_R   0.409840 0.909830 0.381240 -0.532707
O6    O     O_R   0.409840 0.090170 0.381240 -0.532922
O7    O     O_R   0.909840 0.409830 0.381240 -0.532722
O8    O     O_R   0.909840 0.590170 0.381240 -0.532863
O9    O     O_R   0.590170 0.090170 0.618760 -0.575098
O10   O     O_R   0.590170 0.909830 0.618760 -0.575128
O11   O     O_R   0.090170 0.590170 0.618760 -0.575111
O12   O     O_R   0.090170 0.409830 0.618760 -0.575098
O13   O     O_R   0.590190 0.090180 0.381190 -0.566288
O14   O     O_R   0.590190 0.909820 0.381190 -0.566211
O15   O     O_R   0.090190 0.590180 0.381190 -0.566268
O16   O     O_R   0.090190 0.409820 0.381190 -0.566231
Br1   Br    Br    0.738105 0.000034 0.688979 -0.482831
Br2   Br    Br    0.238104 0.500009 0.688982 -0.482829
Br3   Br    Br    0.408665 0.259031 0.029296 -0.418770
Br4   Br    Br    0.408187 0.742086 0.029763 -0.419416
Br5   Br    Br    0.908443 0.758792 0.029534 -0.418895
Br6   Br    Br    0.908178 0.242035 0.029822 -0.419439
H15   H     H_    0.716565 0.809911 0.984472 0.203554
H16   H     H_    0.716456 0.190443 0.984518 0.203661
H17   H     H_    0.216706 0.310002 0.984435 0.203488
H18   H     H_    0.216400 0.690639 0.984537 0.203751
H19   H     H_    0.615081 0.814928 0.786199 0.184470
H20   H     H_    0.615073 0.185105 0.786183 0.184444
H21   H     H_    0.115150 0.314954 0.786233 0.184475
H22   H     H_    0.115046 0.685166 0.786157 0.184404
Br7   Br    Br    0.618029 0.761183 0.220221 -0.424793
Br8   Br    Br    0.618000 0.238811 0.220282 -0.424942
Br9   Br    Br    0.118065 0.261227 0.220162 -0.424924
Br10  Br    Br    0.117926 0.738850 0.220315 -0.424898
Br11  Br    Br    0.304441 0.999972 0.155868 -0.444589
Br12  Br    Br    0.804441 0.499922 0.155871 -0.444468
Br13  Br    Br    0.856008 0.999746 0.212017 -0.340658
Br14  Br    Br    0.356005 0.500366 0.212017 -0.340636

loop_
_geom_bond_atom_site_label_1
_geom_bond_atom_site_label_2
_ccdc_geom_bond_type
C58   C62   A    
Cu2   Cu4   S    
C49   C53   A    
Cu3   N1    S    
C40   C60   A    
C28   N2    A    
C9    Br7   S    
C13   C32   S    
C49   H19   S    
C14   C31   S    
C11   Br9   S    
C1    C62   S    
C53   C59   A    
Cu2   O4    S    
C54   C60   A    
C3    C64   S    
C4    C63   S    
C19   Br13  S    
C50   C54   A    
C57   C61   A    
C41   Br3   S    
C33   O15   A    
Cu2   O11   S    
C19   C21   A    
C24   C26   A    
C29   N1    A    
C6    C12   A    
C45   H15   S    
C21   H5    S    
C6    H2    S    
C1    O1    A    
C9    C13   A    
C5    H1    S    
C36   H8    S    
C34   O12   A    
C38   C58   A    
C11   C15   A    
Cu1   O10   S    
C23   Br1   S    
C30   Br12  S    
Cu1   Cu3   S    
C29   Br11  S    
C40   H12   S    
C2    O2    A    
C31   O13   A    
C17   H13   S    
C15   C34   S    
C13   C53   A    
C2    C61   S    
Cu3   O13   S    
C44   Br6   S    
C1    O5    A    
C12   Br10  S    
C37   C41   A    
Cu3   O5    S    
C44   C46   A    
C60   C64   A    
Cu1   O1    S    
Cu2   O3    S    
C4    O4    A    
C52   H22   S    
C37   C57   A    
C8    H4    S    
Cu1   O9    S    
Cu4   N2    S    
C12   C16   A    
C18   C28   A    
Cu4   O15   S    
C10   C14   A    
C17   C19   A    
C47   C51   A    
C38   H10   S    
C51   C55   A    
C36   N4    A    
C43   Br5   S    
C37   H9    S    
C51   H21   S    
C32   O14   A    
C24   Br2   S    
C39   H11   S    
C42   C48   A    
C16   C56   A    
C10   Br8   S    
C16   C33   S    
C43   C45   A    
C45   C49   A    
C26   N4    A    
C39   C59   A    
C25   N3    A    
C41   C47   A    
C5    C61   A    
C3    O7    A    
C34   O16   A    
C2    O6    A    
C42   Br4   S    
C7    C63   A    
Cu3   O14   S    
C8    C64   A    
C4    O8    A    
C14   C54   A    
C20   C22   A    
C55   C57   A    
C5    C11   A    
C22   C24   A    
C22   H6    S    
C40   C44   A    
Cu1   O2    S    
C7    C9    A    
C46   C50   A    
C48   H18   S    
C59   C63   A    
C35   H7    S    
Cu4   O16   S    
Cu2   N4    S    
C39   C43   A    
Cu1   N3    S    
C25   C27   A    
C29   C35   A    
C26   C28   A    
Cu4   O7    S    
C47   H17   S    
C30   C36   A    
C3    O3    A    
C6    C62   A    
C21   C23   A    
C32   O10   A    
C46   H16   S    
C7    H3    S    
C35   N3    A    
Cu2   O12   S    
C31   O9    A    
C27   N1    A    
Cu3   O6    S    
C18   H14   S    
C56   C58   A    
C18   C20   A    
C23   C25   A    
C30   N2    A    
Cu4   O8    S    
C20   Br14  S    
C38   C42   A    
C48   C52   A    
C8    C10   A    
C33   O11   A    
C50   H20   S    
C17   C27   A    
C52   C56   A    
C15   C55   A    
