data_mof_unit_49463.cif
_audit_creation_date              2012-12-10T19:16:18-0500
_audit_creation_method            fapswitch 2.2
_symmetry_space_group_name_H-M    P1
_symmetry_Int_Tables_number       1
_space_group_crystal_system       triclinic
_cell_length_a                    10.626965
_cell_length_b                    9.680461
_cell_length_c                    27.688228
_cell_angle_alpha                 89.780417
_cell_angle_beta                  90.045268
_cell_angle_gamma                 89.992591
_cell_volume                      2848.37472656

loop_
_atom_site_label
_atom_site_type_symbol
_atom_type_description
_atom_site_fract_x
_atom_site_fract_y
_atom_site_fract_z
_atom_type_partial_charge
C1    C     C_R   0.257560 0.500284 0.499931 0.846616
C2    C     C_R   0.487759 0.624614 0.277267 -0.093973
C3    C     C_R   0.493579 0.499115 0.252516 0.314767
C4    C     C_R   0.495791 0.479936 0.101305 -0.058200
C5    C     C_R   0.390276 0.433091 0.127308 -0.022846
C6    C     C_R   0.287504 0.377357 0.102582 -0.116509
C7    C     C_R   0.597780 0.539891 0.126047 -0.026160
C8    C     C_R   0.498408 0.500289 0.353152 -0.046692
C9    C     C_R   0.499939 0.497592 0.646818 -0.046368
C10   C     C_R   0.389340 0.429497 0.974448 0.051317
C11   C     C_R   0.616970 0.481328 0.974897 -0.104315
C12   C     C_R   0.499926 0.500210 0.405888 0.877204
C13   C     C_R   0.502942 0.458672 0.949400 0.037980
C14   C     C_R   0.277309 0.413236 0.947619 -0.178375
C15   C     C_R   0.277047 0.424804 0.897674 -0.083985
C16   C     C_R   0.388802 0.450970 0.872763 -0.027061
C17   C     C_R   0.502390 0.465809 0.898477 -0.051561
C18   C     C_R   0.615287 0.488632 0.873216 -0.106158
C19   C     C_R   0.612153 0.499285 0.822813 0.546843
C20   C     C_R   0.390005 0.462449 0.822426 0.511931
C21   C     C_R   0.490755 0.367905 0.721549 -0.098896
C22   C     C_R   0.490678 0.370921 0.671466 -0.221760
C23   C     C_R   0.742671 0.500273 0.499915 0.846943
C24   C     C_R   0.509380 0.621169 0.672983 -0.225243
C25   C     C_R   0.509851 0.617687 0.723222 -0.094941
C26   C     C_R   0.500363 0.491041 0.747379 0.315591
C27   C     C_R   0.390951 0.421325 0.025452 0.048679
C28   C     C_R   0.498939 0.468098 0.050500 0.084654
C29   C     C_R   0.609277 0.506187 0.025098 0.072208
C30   C     C_R   0.287201 0.372397 0.052450 -0.218561
C31   C     C_R   0.699648 0.592718 0.099939 -0.130201
C32   C     C_R   0.732346 0.479866 0.948566 0.424842
C33   C     C_R   0.729259 0.491937 0.898355 -0.172831
C34   C     C_R   0.500051 0.499613 0.594080 0.879384
C35   C     C_R   0.703869 0.578479 0.050087 -0.114652
C36   C     C_3   0.071519 0.652257 0.499256 -0.397655
C37   C     C_3   0.072422 0.427271 0.545879 -0.397011
C38   C     C_3   0.928677 0.652249 0.499269 -0.397667
C39   C     C_3   0.928002 0.427231 0.545868 -0.396915
C40   C     C_3   0.072265 0.425412 0.454409 -0.397155
C41   C     C_3   0.121304 0.501264 0.499866 0.176619
C42   C     C_3   0.878930 0.501249 0.499859 0.176907
C43   C     C_3   0.927820 0.425429 0.454400 -0.398381
C44   C     C_3   0.388699 0.081693 0.473032 -0.232968
C45   C     C_3   0.388674 0.918916 0.473054 -0.234583
C46   C     C_3   0.613487 0.081621 0.474898 -0.233644
C47   C     C_3   0.613476 0.918893 0.474896 -0.234341
C48   C     C_3   0.497030 0.080741 0.548720 -0.232403
C49   C     C_3   0.497084 0.918251 0.548722 -0.229845
C50   C     C_R   0.390686 0.442575 0.177687 0.508158
C51   C     C_R   0.594127 0.547524 0.176434 0.516450
C52   C     C_R   0.501971 0.374376 0.277921 -0.098890
C53   C     C_R   0.504210 0.374744 0.328036 -0.226776
C54   C     C_R   0.490293 0.625374 0.327467 -0.228661
H1    H     H_    0.485476 0.723446 0.346080 0.151492
H2    H     H_    0.507118 0.277301 0.258707 0.142537
H3    H     H_    0.776252 0.645732 0.117852 0.196512
H4    H     H_    0.516775 0.719983 0.654724 0.149142
H5    H     H_    0.817327 0.496663 0.878709 0.232086
H6    H     H_    0.517260 0.712934 0.743406 0.139853
H7    H     H_    0.780139 0.628147 0.031206 0.204139
H8    H     H_    0.105826 0.707860 0.466511 0.169752
H9    H     H_    0.107086 0.318768 0.547250 0.171974
H10   H     H_    0.105961 0.709395 0.531525 0.172461
H11   H     H_    0.107728 0.480662 0.578759 0.167195
H12   H     H_    0.894399 0.709316 0.531561 0.172069
H13   H     H_    0.892764 0.480564 0.578751 0.167140
H14   H     H_    0.481135 0.721175 0.257553 0.143524
H15   H     H_    0.894174 0.707925 0.466546 0.170395
H16   H     H_    0.893416 0.318708 0.547217 0.171965
H17   H     H_    0.107501 0.477438 0.421133 0.165754
H18   H     H_    0.106867 0.316848 0.453869 0.170679
H19   H     H_    0.892475 0.477499 0.421126 0.165713
H20   H     H_    0.893217 0.316874 0.453842 0.170363
H21   H     H_    0.387339 0.120852 0.435211 0.147274
H22   H     H_    0.387180 0.880454 0.435250 0.145490
H23   H     H_    0.300615 0.119217 0.490213 0.145199
H24   H     H_    0.300647 0.881204 0.490300 0.144739
H25   H     H_    0.618998 0.120880 0.437146 0.145606
H26   H     H_    0.619011 0.880423 0.437150 0.147136
H27   H     H_    0.579792 0.118832 0.569388 0.147097
H28   H     H_    0.579932 0.879821 0.569371 0.146033
H29   H     H_    0.412108 0.118920 0.567993 0.145284
H30   H     H_    0.412228 0.879646 0.568030 0.147270
H31   H     H_    0.699626 0.118994 0.493555 0.145501
H32   H     H_    0.699585 0.881173 0.493574 0.144855
H33   H     H_    0.206053 0.338628 0.121854 0.201483
H34   H     H_    0.483153 0.274193 0.652145 0.149821
H35   H     H_    0.483623 0.270008 0.740413 0.138436
H36   H     H_    0.188494 0.413463 0.878673 0.219194
H37   H     H_    0.187291 0.396565 0.964424 0.200224
H38   H     H_    0.205448 0.326795 0.035806 0.174828
H39   H     H_    0.510696 0.276952 0.347022 0.151957
N1    N     N_R   0.492225 0.497706 0.201036 -0.358097
N2    N     N_R   0.500560 0.486564 0.798764 -0.359232
N3    N     N_3   0.499750 0.138610 0.498940 -0.032920
N4    N     N_3   0.499750 0.861390 0.498940 -0.032777
O1    O     O_R   0.314910 0.616040 0.499990 -0.634831
O2    O     O_R   0.314910 0.383960 0.499990 -0.633996
O3    O     O_R   0.500140 0.616020 0.428740 -0.626978
O4    O     O_R   0.500140 0.383980 0.428740 -0.627429
O5    O     O_R   0.685320 0.616040 0.499970 -0.634873
O6    O     O_R   0.685320 0.383960 0.499970 -0.634249
O7    O     O_R   0.500090 0.616050 0.571230 -0.629394
O8    O     O_R   0.500090 0.383950 0.571230 -0.629503
O9    O     O_2   0.290520 0.397564 0.203239 -0.553974
O10   O     O_2   0.281889 0.449642 0.797201 -0.543882
O11   O     O_2   0.692237 0.602121 0.200773 -0.553337
O12   O     O_2   0.719603 0.520593 0.797900 -0.542339
Zn1   Zn    Zn3+2 0.500150 0.654960 0.499980 0.906244
Zn2   Zn    Zn3+2 0.500150 0.345040 0.499980 0.906332
S1    S     S_3+6 0.879579 0.429950 0.973851 -0.014381
O13   O     O_2   0.861436 0.353593 0.020736 -0.304197
O14   O     O_2   0.946589 0.336497 0.939083 -0.299190
O15   O     O_3   0.969003 0.571065 0.982685 -0.581294
H40   H     H_    0.029381 0.544670 0.008386 0.371213

loop_
_geom_bond_atom_site_label_1
_geom_bond_atom_site_label_2
_ccdc_geom_bond_type
C10   C27   A    
C43   H19   S    
C21   C26   A    
O3    Zn1   S    
O1    Zn1   S    
C40   H17   S    
C1    O2    A    
S1    O14   D    
C21   H35   S    
C44   C45   S    
C23   C42   S    
C45   H22   S    
C49   H30   S    
C28   C29   A    
C38   C42   S    
C2    H14   S    
C46   H25   S    
C9    C22   A    
C23   O5    A    
C15   C16   A    
C48   N3    S    
C48   H27   S    
O6    Zn2   S    
C18   C19   A    
C4    C28   A    
C54   H1    S    
C40   C43   S    
C23   O6    A    
C38   H12   S    
C16   C17   A    
C37   H11   S    
C45   H24   S    
C25   H6    S    
C22   H34   S    
C32   S1    S    
C8    C12   S    
C20   O10   S    
C43   H20   S    
O8    Zn2   S    
C38   H15   S    
C33   H5    S    
C21   C22   A    
C27   C30   A    
C36   C41   S    
C47   H26   S    
C4    C7    A    
C36   H8    S    
S1    O13   D    
C37   H9    S    
C39   C42   S    
C19   O12   S    
N3    Zn2   S    
C7    C31   A    
C53   H39   S    
C47   H32   S    
C24   C25   A    
C30   H38   S    
C10   C14   A    
C8    C54   A    
C51   O11   S    
C25   C26   A    
C34   O7    A    
C6    H33   S    
C49   H28   S    
C8    C53   A    
C44   H21   S    
C44   N3    S    
C16   C20   A    
O2    Zn2   S    
C17   C18   A    
C35   H7    S    
C1    C41   S    
C48   C49   S    
C6    C30   A    
C20   N2    A    
C11   C32   A    
C2    C54   A    
C9    C34   S    
C31   C35   A    
C5    C50   A    
O5    Zn1   S    
C42   C43   S    
C19   N2    A    
C52   C53   A    
C26   N2    S    
C46   C47   S    
C44   H23   S    
C40   H18   S    
C34   O8    A    
C39   H13   S    
C50   N1    A    
C4    C5    A    
C10   C13   A    
C1    O1    A    
C3    C52   A    
C9    C24   A    
O4    Zn2   S    
C29   C35   A    
C47   N4    S    
C48   H29   S    
C13   C17   A    
C32   C33   A    
C46   H31   S    
C36   C38   S    
C2    C3    A    
C7    C51   A    
C12   O4    A    
C37   C39   S    
C45   N4    S    
C15   H36   S    
O7    Zn1   S    
N4    Zn1   S    
C11   C13   A    
C31   H3    S    
O15   H40   S    
C5    C6    A    
C39   H16   S    
C3    N1    S    
C37   C41   S    
C18   C33   A    
C14   H37   S    
C12   O3    A    
C51   N1    A    
C49   N4    S    
C46   N3    S    
C11   C29   A    
C24   H4    S    
C27   C28   A    
C50   O9    S    
C14   C15   A    
C40   C41   S    
C36   H10   S    
S1    O15   S    
C52   H2    S    
