data_mof_unit_61316.cif
_audit_creation_date              2013-03-05T15:59:36-0500
_audit_creation_method            fapswitch 2.2
_symmetry_space_group_name_H-M    P1
_symmetry_Int_Tables_number       1
_space_group_crystal_system       monoclinic
_cell_length_a                    21.640803
_cell_length_b                    21.640808
_cell_length_c                    30.266888
_cell_angle_alpha                 90.0
_cell_angle_beta                  90.0
_cell_angle_gamma                 90.000061
_cell_volume                      14174.7240599

loop_
_atom_site_label
_atom_site_type_symbol
_atom_site_description
_atom_site_fract_x
_atom_site_fract_y
_atom_site_fract_z
_atom_type_partial_charge
O1    O     O_R   0.091600 0.448290 0.500030 -0.603188
O2    O     O_R   0.448290 0.908400 0.500030 -0.603186
O3    O     O_R   0.908400 0.551710 0.500030 -0.603186
O4    O     O_R   0.551710 0.091600 0.500030 -0.603186
O5    O     O_R   0.091600 0.551710 0.499970 -0.603182
O6    O     O_R   0.448290 0.091600 0.499970 -0.603183
O7    O     O_R   0.908400 0.448290 0.499970 -0.603182
O8    O     O_R   0.551710 0.908400 0.499970 -0.603182
O9    O     O_R   0.591600 0.948290 0.000030 -0.603189
O10   O     O_R   0.948290 0.408400 0.000030 -0.603186
O11   O     O_R   0.408400 0.051710 0.000030 -0.603186
O12   O     O_R   0.051710 0.591600 0.000030 -0.603187
O13   O     O_R   0.591600 0.051710 0.999970 -0.603181
O14   O     O_R   0.948290 0.591600 0.999970 -0.603184
O15   O     O_R   0.408400 0.948290 0.999970 -0.603182
O16   O     O_R   0.051710 0.408400 0.999970 -0.603183
C1    C     C_R   0.120030 0.500000 0.500000 1.009954
C2    C     C_R   0.500000 0.879970 0.500000 1.009955
C3    C     C_R   0.879970 0.500000 0.500000 1.009954
C4    C     C_R   0.500000 0.120030 0.500000 1.009959
C5    C     C_R   0.620030 0.000000 0.000000 1.009956
C6    C     C_R   1.000000 0.379970 0.000000 1.009954
C7    C     C_R   0.379970 1.000000 0.000000 1.009954
C8    C     C_R   1.000000 0.620030 1.000000 1.009967
O17   O     O_R   0.999980 0.448290 0.434550 -0.618044
O18   O     O_R   0.448290 0.000020 0.434550 -0.618043
O19   O     O_R   0.000020 0.551710 0.434550 -0.618043
O20   O     O_R   0.551710 0.999980 0.434550 -0.618044
O21   O     O_R   0.999980 0.551710 0.565450 -0.618039
O22   O     O_R   0.448290 0.999980 0.565450 -0.618040
O23   O     O_R   0.000020 0.448290 0.565450 -0.618039
O24   O     O_R   0.551710 0.000020 0.565450 -0.618039
O25   O     O_R   0.499980 0.948290 0.934550 -0.618045
O26   O     O_R   0.948290 0.500020 0.934550 -0.618042
O27   O     O_R   0.500020 0.051710 0.934550 -0.618043
O28   O     O_R   0.051710 0.499980 0.934550 -0.618046
O29   O     O_R   0.499980 0.051710 0.065450 -0.618039
O30   O     O_R   0.948290 0.499980 0.065450 -0.618042
O31   O     O_R   0.500020 0.948290 0.065450 -0.618039
O32   O     O_R   0.051710 0.500020 0.065450 -0.618038
C9    C     C_R   0.281941 0.528233 0.534700 -0.216645
C10   C     C_R   0.528233 0.718059 0.534699 -0.216645
C11   C     C_R   0.718059 0.471767 0.534699 -0.216645
C12   C     C_R   0.471768 0.281941 0.534700 -0.216644
C13   C     C_R   0.281941 0.471767 0.465301 -0.216643
C14   C     C_R   0.528232 0.281941 0.465300 -0.216642
C15   C     C_R   0.718059 0.528233 0.465301 -0.216643
C16   C     C_R   0.471766 0.718059 0.465301 -0.216643
C17   C     C_R   0.781941 0.028233 0.034700 -0.216646
C18   C     C_R   0.028233 0.218059 0.034699 -0.216644
C19   C     C_R   0.218058 0.971766 0.034699 -0.216645
C20   C     C_R   0.971770 0.781941 0.034701 -0.216642
C21   C     C_R   0.781941 0.971767 0.965301 -0.216642
C22   C     C_R   0.028229 0.781941 0.965299 -0.216642
C23   C     C_R   0.218059 0.028233 0.965301 -0.216643
C24   C     C_R   0.971766 0.218059 0.965301 -0.216643
C25   C     C_R   0.000000 0.500000 0.413731 0.971098
C26   C     C_R   0.500000 1.000000 0.413731 0.971102
C27   C     C_R   1.000000 0.500000 0.586269 0.971097
C28   C     C_R   0.500000 1.000000 0.586269 0.971097
C29   C     C_R   0.500000 0.000000 0.913730 0.971098
C30   C     C_R   1.000000 0.500000 0.913730 0.971109
C31   C     C_R   0.500000 0.000000 0.086269 0.971098
C32   C     C_R   0.000000 0.500000 0.086269 0.971100
Zn1   Zn    Zn3+2 0.000000 0.430950 0.500000 1.074050
Zn2   Zn    Zn3+2 0.430950 0.000000 0.500000 1.074050
Zn3   Zn    Zn3+2 0.000000 0.569050 0.500000 1.074051
Zn4   Zn    Zn3+2 0.569050 0.000000 0.500000 1.074050
Zn5   Zn    Zn3+2 0.500000 0.930950 0.000000 1.074049
Zn6   Zn    Zn3+2 0.930950 0.500000 0.000000 1.074049
Zn7   Zn    Zn3+2 0.500000 0.069050 0.000000 1.074051
Zn8   Zn    Zn3+2 0.069050 0.500000 0.000000 1.074048
C33   C     C_R   0.186089 0.500000 0.500000 -0.273962
C34   C     C_R   0.500000 0.813911 0.500000 -0.273963
C35   C     C_R   0.813911 0.500000 0.500000 -0.273962
C36   C     C_R   0.500000 0.186089 0.500000 -0.273961
C37   C     C_R   0.686089 0.000000 0.000000 -0.273962
C38   C     C_R   1.000000 0.313911 0.000000 -0.273962
C39   C     C_R   0.313911 1.000000 0.000000 -0.273962
C40   C     C_R   0.000000 0.686089 1.000000 -0.273960
C41   C     C_R   0.217958 0.528222 0.535325 0.282682
C42   C     C_R   0.528223 0.782042 0.535324 0.282683
C43   C     C_R   0.782042 0.471777 0.535324 0.282682
C44   C     C_R   0.471779 0.217958 0.535325 0.282681
C45   C     C_R   0.217958 0.471778 0.464676 0.282685
C46   C     C_R   0.528221 0.217958 0.464675 0.282683
C47   C     C_R   0.782042 0.528223 0.464676 0.282683
C48   C     C_R   0.471777 0.782042 0.464676 0.282684
C49   C     C_R   0.717958 0.028222 0.035325 0.282680
C50   C     C_R   0.028223 0.282042 0.035324 0.282682
C51   C     C_R   0.282042 0.971777 0.035324 0.282682
C52   C     C_R   0.971781 0.717958 0.035326 0.282679
C53   C     C_R   0.717958 0.971778 0.964676 0.282685
C54   C     C_R   0.028219 0.717958 0.964674 0.282679
C55   C     C_R   0.282042 0.028223 0.964676 0.282683
C56   C     C_R   0.971777 0.282042 0.964676 0.282683
C57   C     C_R   0.017801 0.553246 0.296888 -0.145523
C58   C     C_R   0.553246 0.982200 0.296888 -0.145524
C59   C     C_R   0.982199 0.446754 0.296888 -0.145525
C60   C     C_R   0.446754 0.017800 0.296888 -0.145524
C61   C     C_R   0.017823 0.446761 0.703111 -0.145523
C62   C     C_R   0.553239 0.017823 0.703111 -0.145522
C63   C     C_R   0.982177 0.553238 0.703112 -0.145521
C64   C     C_R   0.446761 0.982177 0.703111 -0.145522
C65   C     C_R   0.517801 0.053246 0.796888 -0.145524
C66   C     C_R   0.053246 0.482199 0.796888 -0.145523
C67   C     C_R   0.482199 0.946754 0.796888 -0.145524
C68   C     C_R   0.946754 0.517800 0.796888 -0.145525
C69   C     C_R   0.517823 0.946761 0.203111 -0.145523
C70   C     C_R   0.053239 0.517823 0.203111 -0.145523
C71   C     C_R   0.482177 0.053239 0.203111 -0.145523
C72   C     C_R   0.946761 0.482177 0.203111 -0.145521
H1    H     H_    0.031308 0.594707 0.279297 0.153160
H2    H     H_    0.594707 0.968693 0.279297 0.153159
H3    H     H_    0.968692 0.405293 0.279297 0.153159
H4    H     H_    0.405293 0.031307 0.279297 0.153159
H5    H     H_    0.031348 0.405306 0.720703 0.153157
H6    H     H_    0.594694 0.031347 0.720703 0.153157
H7    H     H_    0.968653 0.594694 0.720703 0.153158
H8    H     H_    0.405306 0.968652 0.720703 0.153157
H9    H     H_    0.531308 0.094707 0.779297 0.153159
H10   H     H_    0.094707 0.468692 0.779297 0.153159
H11   H     H_    0.468692 0.905293 0.779297 0.153159
H12   H     H_    0.905293 0.531307 0.779297 0.153159
H13   H     H_    0.531347 0.905306 0.220703 0.153157
H14   H     H_    0.094694 0.531347 0.220703 0.153157
H15   H     H_    0.468652 0.094694 0.220703 0.153158
H16   H     H_    0.905306 0.468652 0.220703 0.153157
C73   C     C_R   0.017438 0.553394 0.342693 -0.121940
C74   C     C_R   0.553394 0.982563 0.342693 -0.121944
C75   C     C_R   0.982562 0.446606 0.342693 -0.121943
C76   C     C_R   0.446606 0.017437 0.342693 -0.121939
C77   C     C_R   0.017460 0.446613 0.657306 -0.121940
C78   C     C_R   0.553387 0.017460 0.657306 -0.121938
C79   C     C_R   0.982540 0.553387 0.657306 -0.121941
C80   C     C_R   0.446613 0.982540 0.657306 -0.121941
C81   C     C_R   0.517438 0.053394 0.842693 -0.121939
C82   C     C_R   0.053394 0.482562 0.842693 -0.121946
C83   C     C_R   0.482562 0.946606 0.842693 -0.121943
C84   C     C_R   0.946606 0.517437 0.842693 -0.121936
C85   C     C_R   0.517459 0.946613 0.157306 -0.121941
C86   C     C_R   0.053387 0.517459 0.157306 -0.121934
C87   C     C_R   0.482540 0.053387 0.157306 -0.121940
C88   C     C_R   0.946613 0.482540 0.157306 -0.121944
H17   H     H_    0.031271 0.594953 0.360013 0.165846
H18   H     H_    0.594953 0.968730 0.360013 0.165846
H19   H     H_    0.968729 0.405047 0.360013 0.165846
H20   H     H_    0.405047 0.031270 0.360013 0.165846
H21   H     H_    0.031310 0.405060 0.639986 0.165840
H22   H     H_    0.594940 0.031310 0.639986 0.165841
H23   H     H_    0.968690 0.594940 0.639986 0.165841
H24   H     H_    0.405060 0.968690 0.639986 0.165840
H25   H     H_    0.531271 0.094953 0.860013 0.165846
H26   H     H_    0.094953 0.468730 0.860013 0.165845
H27   H     H_    0.468729 0.905047 0.860013 0.165846
H28   H     H_    0.905047 0.531270 0.860013 0.165846
H29   H     H_    0.531310 0.905060 0.139986 0.165840
H30   H     H_    0.094940 0.531310 0.139986 0.165841
H31   H     H_    0.468690 0.094940 0.139986 0.165840
H32   H     H_    0.905060 0.468690 0.139986 0.165840
C89   C     C_R   1.000000 0.500000 0.365752 0.016156
C90   C     C_R   0.500000 1.000000 0.365752 0.016156
C91   C     C_R   0.000000 0.500000 0.634247 0.016162
C92   C     C_R   0.500000 1.000000 0.634247 0.016162
C93   C     C_R   0.500000 1.000000 0.865752 0.016156
C94   C     C_R   1.000000 0.500000 0.865752 0.016157
C95   C     C_R   0.500000 1.000000 0.134247 0.016162
C96   C     C_R   0.000000 0.500000 0.134247 0.016164
C97   C     C_R   1.000000 0.500000 0.273974 0.096316
C98   C     C_R   0.500000 1.000000 0.273974 0.096316
C99   C     C_R   0.000000 0.500000 0.726025 0.096316
C100  C     C_R   0.500000 1.000000 0.726025 0.096316
C101  C     C_R   0.500000 1.000000 0.773974 0.096317
C102  C     C_R   1.000000 0.500000 0.773974 0.096317
C103  C     C_R   0.500000 1.000000 0.226025 0.096316
C104  C     C_R   1.000000 0.500000 0.226025 0.096316
O33   O     O_R   0.499980 0.408290 0.536960 -0.619965
O34   O     O_R   0.408290 0.500020 0.536960 -0.619965
O35   O     O_R   0.500020 0.591710 0.536960 -0.619964
O36   O     O_R   0.591710 0.499980 0.536960 -0.619965
O37   O     O_R   0.499980 0.591710 0.463040 -0.619963
O38   O     O_R   0.408290 0.499980 0.463040 -0.619963
O39   O     O_R   0.500020 0.408290 0.463040 -0.619964
O40   O     O_R   0.591710 0.500020 0.463040 -0.619963
O41   O     O_R   0.999980 0.908290 0.036960 -0.619965
O42   O     O_R   0.908290 0.000020 0.036960 -0.619965
O43   O     O_R   0.000020 0.091710 0.036960 -0.619964
O44   O     O_R   0.091710 0.999980 0.036960 -0.619965
O45   O     O_R   0.999980 0.091710 0.963040 -0.619963
O46   O     O_R   0.908290 0.999980 0.963040 -0.619963
O47   O     O_R   0.000020 0.908290 0.963040 -0.619964
O48   O     O_R   0.091710 0.000020 0.963040 -0.619963
C105  C     C_R   0.500000 0.379651 0.500000 0.914765
C106  C     C_R   0.379650 0.500000 0.500000 0.914764
C107  C     C_R   0.500000 0.620349 0.500000 0.914764
C108  C     C_R   0.620349 0.500000 0.500000 0.914764
C109  C     C_R   1.000000 0.879650 0.000000 0.914764
C110  C     C_R   0.879650 1.000000 0.000000 0.914765
C111  C     C_R   0.000000 0.120349 0.000000 0.914764
C112  C     C_R   0.120349 0.000000 0.000000 0.914764
C113  C     C_R   0.313463 0.500000 0.500000 -0.146271
C114  C     C_R   0.500000 0.686537 0.500000 -0.146271
C115  C     C_R   0.686537 0.500000 0.500000 -0.146271
C116  C     C_R   0.500000 0.313463 0.500000 -0.146272
C117  C     C_R   0.813463 1.000000 0.000000 -0.146271
C118  C     C_R   1.000000 0.186537 0.000000 -0.146271
C119  C     C_R   0.186537 0.000000 0.000000 -0.146271
C120  C     C_R   0.000000 0.813463 1.000000 -0.146275
Zn9   Zn    Zn3+2 0.500000 0.500000 0.549370 1.017133
Zn10  Zn    Zn3+2 0.500000 0.500000 0.450630 1.017136
Zn11  Zn    Zn3+2 0.000000 0.000000 0.049370 1.017133
Zn12  Zn    Zn3+2 1.000000 0.000000 0.950630 1.017136
H33   H     H_    0.307194 0.549739 0.561538 0.200820
H34   H     H_    0.549739 0.692806 0.561538 0.200819
H35   H     H_    0.692806 0.450261 0.561538 0.200819
H36   H     H_    0.450263 0.307194 0.561539 0.200820
H37   H     H_    0.307194 0.450261 0.438462 0.200818
H38   H     H_    0.549737 0.307194 0.438461 0.200821
H39   H     H_    0.692806 0.549739 0.438462 0.200819
H40   H     H_    0.450260 0.692806 0.438462 0.200819
H41   H     H_    0.807194 0.049738 0.061538 0.200821
H42   H     H_    0.049739 0.192806 0.061538 0.200819
H43   H     H_    0.192806 0.950260 0.061538 0.200819
H44   H     H_    0.950267 0.807194 0.061541 0.200821
H45   H     H_    0.807194 0.950261 0.938462 0.200818
H46   H     H_    0.049732 0.807194 0.938459 0.200824
H47   H     H_    0.192806 0.049739 0.938462 0.200819
H48   H     H_    0.950260 0.192806 0.938462 0.200819
N1    N     N_R   0.186326 0.555303 0.572388 0.218616
O49   O     O_R   0.209389 0.603570 0.592032 -0.358012
O50   O     O_R   0.140135 0.526680 0.590734 -0.423149
N2    N     N_R   0.555303 0.813674 0.572387 0.218616
O51   O     O_R   0.603572 0.790613 0.592031 -0.358012
O52   O     O_R   0.526680 0.859864 0.590735 -0.423149
N3    N     N_R   0.813674 0.444696 0.572387 0.218616
O53   O     O_R   0.790612 0.396428 0.592031 -0.358012
O54   O     O_R   0.859864 0.473320 0.590734 -0.423149
N4    N     N_R   0.444700 0.186326 0.572388 0.218615
O55   O     O_R   0.396432 0.209388 0.592033 -0.358013
O56   O     O_R   0.473324 0.140136 0.590735 -0.423151
N5    N     N_R   0.186325 0.444698 0.427613 0.218614
O57   O     O_R   0.209385 0.396427 0.407970 -0.358013
O58   O     O_R   0.140138 0.473324 0.409264 -0.423144
N6    N     N_R   0.555301 0.186326 0.427611 0.218614
O59   O     O_R   0.603568 0.209389 0.407966 -0.358014
O60   O     O_R   0.526677 0.140136 0.409265 -0.423147
N7    N     N_R   0.813674 0.555303 0.427613 0.218615
O61   O     O_R   0.790613 0.603572 0.407969 -0.358013
O62   O     O_R   0.859864 0.526679 0.409265 -0.423144
N8    N     N_R   0.444696 0.813674 0.427613 0.218615
O63   O     O_R   0.396427 0.790612 0.407969 -0.358014
O64   O     O_R   0.473320 0.859864 0.409266 -0.423145
N9    N     N_R   0.686326 0.055303 0.072388 0.218616
O65   O     O_R   0.709390 0.103569 0.092033 -0.358013
O66   O     O_R   0.640134 0.026681 0.090733 -0.423150
N10   N     N_R   0.055304 0.313674 0.072387 0.218616
O67   O     O_R   0.103572 0.290613 0.092031 -0.358012
O68   O     O_R   0.026680 0.359864 0.090735 -0.423150
N11   N     N_R   0.313674 0.944696 0.072387 0.218616
O69   O     O_R   0.290612 0.896428 0.092031 -0.358012
O70   O     O_R   0.359864 0.973320 0.090734 -0.423149
N12   N     N_R   0.944704 0.686326 0.072390 0.218614
O71   O     O_R   0.896437 0.709387 0.092036 -0.358013
O72   O     O_R   0.973330 0.640136 0.090736 -0.423154
N13   N     N_R   0.686325 0.944698 0.927612 0.218614
O73   O     O_R   0.709385 0.896428 0.907970 -0.358013
O74   O     O_R   0.640139 0.973324 0.909264 -0.423145
N14   N     N_R   0.055295 0.686326 0.927609 0.218614
O75   O     O_R   0.103557 0.709392 0.907959 -0.358016
O76   O     O_R   0.026672 0.640132 0.909266 -0.423151
N15   N     N_R   0.313674 0.055303 0.927613 0.218615
O77   O     O_R   0.290613 0.103572 0.907969 -0.358014
O78   O     O_R   0.359864 0.026679 0.909265 -0.423144
N16   N     N_R   0.944696 0.313674 0.927613 0.218616
O79   O     O_R   0.896427 0.290612 0.907969 -0.358014
O80   O     O_R   0.973320 0.359864 0.909265 -0.423146

loop_
_geom_bond_atom_site_label_1
_geom_bond_atom_site_label_2
_geom_bond_distance
_ccdc_geom_bond_type
O6    C4    1.277023 A    
C1    C33   1.429572 S    
O30   Zn6   2.016194 S    
C14   H38   1.084031 S    
C36   C46   1.411301 A    
C74   H18   1.083178 S    
C56   N16   1.438906 S    
O9    C5    1.277023 A    
C61   C99   1.398980 A    
C10   C42   1.384784 A    
C67   H11   1.083503 S    
O5    Zn3   2.017504 S    
C11   H35   1.084030 S    
O16   Zn8   2.017506 S    
C36   C44   1.411301 A    
C81   C93   1.401666 A    
C9    H33   1.084032 S    
C47   N7    1.438905 S    
C78   C92   1.401665 A    
C107  C114  1.432357 S    
O35   C107  1.278882 A    
O10   C6    1.277023 A    
O39   Zn10  2.019909 S    
O20   C26   1.284265 A    
O34   C106  1.278882 A    
C37   C49   1.411304 A    
C105  C116  1.432357 S    
O33   C105  1.278882 A    
C88   C96   1.401668 A    
C71   C103  1.398982 A    
C64   H8    1.083506 S    
O20   Zn4   2.016197 S    
C34   C42   1.411301 A    
N16   O79   1.301420 A    
O31   C31   1.284264 A    
C59   H3    1.083503 S    
N9    O65   1.301422 A    
C35   C47   1.411301 A    
O44   Zn11  2.019906 S    
O11   Zn7   2.017505 S    
C58   H2    1.083505 S    
C53   N13   1.438903 S    
O44   C112  1.278882 A    
O33   Zn9   2.019909 S    
N15   O77   1.301421 A    
C78   H22   1.083180 S    
C16   C114  1.393431 A    
C11   C43   1.384784 A    
O26   C30   1.284267 A    
C58   C98   1.398977 A    
C57   C97   1.398977 A    
N6    O59   1.301423 A    
C4    C36   1.429572 S    
N15   O78   1.300480 A    
N5    O57   1.301420 A    
C23   H47   1.084029 S    
O11   C7    1.277024 A    
C83   C93   1.401668 A    
C63   C79   1.386413 A    
C22   H46   1.084032 S    
O46   Zn12  2.019908 S    
C19   C51   1.384784 A    
O21   Zn3   2.016194 S    
C42   N2    1.438901 S    
C15   H39   1.084029 S    
C18   C50   1.384784 A    
O48   Zn12  2.019906 S    
O21   C27   1.284263 A    
C72   H16   1.083506 S    
C19   H43   1.084030 S    
C68   C102  1.398977 A    
O41   C109  1.278883 A    
C21   C117  1.393429 A    
N3    O53   1.301422 A    
C16   C48   1.384782 A    
O3    C3    1.277024 A    
O38   C106  1.278885 A    
C79   C91   1.401666 A    
C88   H32   1.083180 S    
O32   Zn8   2.016194 S    
N13   O73   1.301418 A    
O26   Zn6   2.016197 S    
C73   H17   1.083178 S    
C16   H40   1.084031 S    
C62   H6    1.083506 S    
O25   Zn5   2.016197 S    
O47   Zn12  2.019909 S    
O24   Zn4   2.016194 S    
C21   H45   1.084031 S    
C74   C90   1.401667 A    
C62   C100  1.398979 A    
O15   C7    1.277024 A    
O31   Zn5   2.016194 S    
O12   Zn8   2.017504 S    
C19   C119  1.393429 A    
O27   Zn7   2.016197 S    
C2    C34   1.429572 S    
C65   C101  1.398977 A    
O42   Zn11  2.019908 S    
C69   H13   1.083505 S    
C110  C117  1.432357 S    
C63   C99   1.398978 A    
N3    O54   1.300479 A    
C66   H10   1.083505 S    
O14   Zn6   2.017503 S    
C61   C77   1.386410 A    
O14   C8    1.277023 A    
C68   H12   1.083505 S    
O28   C30   1.284265 A    
C77   C91   1.401666 A    
C33   C41   1.411302 A    
C80   H24   1.083181 S    
C8    C40   1.429572 S    
O30   C32   1.284264 A    
C98   C103  1.451270 S    
N7    O62   1.300479 A    
O38   Zn10  2.019908 S    
C84   C94   1.401666 A    
O15   Zn5   2.017506 S    
C99   C102  1.451270 S    
N4    O56   1.300480 A    
C71   C87   1.386410 A    
C85   C95   1.401666 A    
C17   C49   1.384784 A    
C24   H48   1.084032 S    
C81   H25   1.083179 S    
C46   N6    1.438902 S    
C76   H20   1.083181 S    
C25   C89   1.452151 S    
C65   H9    1.083505 S    
O17   Zn1   2.016197 S    
C6    C38   1.429572 S    
C23   C55   1.384784 A    
O19   C25   1.284266 A    
C38   C56   1.411302 A    
N9    O66   1.300483 A    
C77   H21   1.083182 S    
O23   Zn1   2.016194 S    
O48   C112  1.278885 A    
N12   O72   1.300481 A    
O13   Zn7   2.017504 S    
O2    Zn2   2.017506 S    
N8    O63   1.301419 A    
O40   C108  1.278885 A    
C106  C113  1.432357 S    
C60   C98   1.398977 A    
C59   C75   1.386413 A    
C111  C118  1.432357 S    
C38   C50   1.411299 A    
O34   Zn9   2.019908 S    
N10   O68   1.300480 A    
O37   Zn10  2.019907 S    
N5    O58   1.300480 A    
O18   Zn2   2.016197 S    
C69   C85   1.386410 A    
C40   C52   1.411301 A    
C13   C45   1.384781 A    
C62   C78   1.386410 A    
C39   C55   1.411301 A    
N1    O49   1.301421 A    
C10   H34   1.084030 S    
O7    Zn1   2.017506 S    
C86   C96   1.401665 A    
C70   C86   1.386410 A    
C68   C84   1.386410 A    
O1    Zn1   2.017503 S    
C20   C52   1.384782 A    
C83   H27   1.083179 S    
O29   C31   1.284263 A    
C87   C95   1.401666 A    
N10   O67   1.301420 A    
C58   C74   1.386410 A    
O41   Zn11  2.019909 S    
O4    Zn4   2.017504 S    
C66   C102  1.398977 A    
C15   C115  1.393431 A    
O27   C29   1.284266 A    
O19   Zn3   2.016197 S    
C69   C103  1.398979 A    
N14   O75   1.301422 A    
C108  C115  1.432357 S    
C55   N15   1.438905 S    
O18   C26   1.284267 A    
C33   C45   1.411303 A    
O22   Zn2   2.016194 S    
C63   H7    1.083505 S    
C70   H14   1.083506 S    
O39   C105  1.278885 A    
C57   H1    1.083505 S    
C18   C118  1.393428 A    
C85   H29   1.083179 S    
C30   C94   1.452151 S    
C66   C82   1.386410 A    
C43   N3    1.438903 S    
C20   H44   1.084029 S    
O5    C1    1.277023 A    
C22   C120  1.393429 A    
O29   Zn7   2.016194 S    
C11   C115  1.393428 A    
N1    O50   1.300479 A    
C10   C114  1.393428 A    
O24   C28   1.284262 A    
C9    C113  1.393432 A    
N11   O69   1.301422 A    
C26   C90   1.452151 S    
O10   Zn6   2.017506 S    
O17   C25   1.284267 A    
C35   C43   1.411302 A    
O22   C28   1.284264 A    
C100  C101  1.451270 S    
O46   C110  1.278885 A    
C48   N8    1.438903 S    
C80   C92   1.401667 A    
O43   Zn11  2.019907 S    
O23   C27   1.284264 A    
C24   C56   1.384782 A    
C50   N10   1.438904 S    
N4    O55   1.301421 A    
C18   H42   1.084031 S    
O16   C6    1.277024 A    
C64   C80   1.386410 A    
C17   H41   1.084030 S    
N2    O52   1.300479 A    
N14   O76   1.300477 A    
C39   C51   1.411302 A    
C44   N4    1.438904 S    
O47   C109  1.278886 A    
O9    Zn5   2.017503 S    
O2    C2    1.277023 A    
N11   O70   1.300477 A    
O45   Zn12  2.019907 S    
O36   C108  1.278882 A    
C9    C41   1.384784 A    
C67   C101  1.398979 A    
N7    O61   1.301421 A    
C60   C76   1.386410 A    
O40   Zn10  2.019906 S    
N12   O71   1.301422 A    
C59   C97   1.398977 A    
C70   C104  1.398981 A    
C14   C116  1.393431 A    
C112  C119  1.432357 S    
C54   N14   1.438906 S    
O35   Zn9   2.019907 S    
O7    C3    1.277024 A    
O32   C32   1.284262 A    
C64   C100  1.398981 A    
C82   C94   1.401667 A    
C61   H5    1.083505 S    
C60   H4    1.083505 S    
C72   C88   1.386410 A    
O8    Zn4   2.017506 S    
C3    C35   1.429572 S    
C57   C73   1.386410 A    
C23   C119  1.393430 A    
C32   C96   1.452145 S    
N13   O74   1.300477 A    
C34   C48   1.411304 A    
O13   C5    1.277023 A    
C72   C104  1.398979 A    
C71   H15   1.083505 S    
C37   C53   1.411299 A    
O45   C111  1.278885 A    
O3    Zn3   2.017505 S    
N8    O64   1.300480 A    
O25   C29   1.284267 A    
C79   H23   1.083181 S    
C5    C37   1.429572 S    
C73   C89   1.401668 A    
C31   C95   1.452145 S    
N2    O51   1.301420 A    
C28   C92   1.452145 S    
C97   C104  1.451270 S    
N6    O60   1.300476 A    
C86   H30   1.083180 S    
O8    C2    1.277024 A    
C29   C93   1.452151 S    
C87   H31   1.083181 S    
C84   H28   1.083178 S    
C67   C83   1.386410 A    
O12   C8    1.277022 A    
O37   C107  1.278885 A    
C49   N9    1.438905 S    
C76   C90   1.401666 A    
C22   C54   1.384784 A    
C51   N11   1.438903 S    
C45   N5    1.438901 S    
C17   C117  1.393430 A    
C65   C81   1.386410 A    
O4    C4    1.277022 A    
O6    Zn2   2.017503 S    
C24   C118  1.393431 A    
O1    C1    1.277023 A    
C12   C44   1.384784 A    
C13   C113  1.393429 A    
O43   C111  1.278882 A    
O36   Zn9   2.019906 S    
C12   C116  1.393429 A    
C27   C91   1.452145 S    
C75   C89   1.401665 A    
O42   C110  1.278882 A    
C109  C120  1.432357 S    
C41   N1    1.438903 S    
C75   H19   1.083178 S    
C7    C39   1.429572 S    
C82   H26   1.083180 S    
C40   C54   1.411302 A    
C12   H36   1.084030 S    
C21   C53   1.384783 A    
C52   N12   1.438905 S    
C13   H37   1.084031 S    
O28   Zn8   2.016197 S    
C15   C47   1.384784 A    
C14   C46   1.384784 A    
N16   O80   1.300479 A    
C20   C120  1.393431 A    
