data_mof_unit_11551.cif
_audit_creation_date              2013-03-05T15:50:25-0500
_audit_creation_method            fapswitch 2.2
_symmetry_space_group_name_H-M    P1
_symmetry_Int_Tables_number       1
_space_group_crystal_system       triclinic
_cell_length_a                    18.309969
_cell_length_b                    25.888837
_cell_length_c                    18.287538
_cell_angle_alpha                 90.001032
_cell_angle_beta                  89.72576
_cell_angle_gamma                 90.002462
_cell_volume                      8668.62900126

loop_
_atom_site_label
_atom_site_type_symbol
_atom_site_description
_atom_site_fract_x
_atom_site_fract_y
_atom_site_fract_z
_atom_type_partial_charge
Zn1   Zn    Zn3+2 0.249990 0.293780 0.913250 0.954177
Zn2   Zn    Zn3+2 0.249990 0.706220 0.086750 0.962183
Zn3   Zn    Zn3+2 0.249990 0.706220 0.913250 0.954193
Zn4   Zn    Zn3+2 0.249990 0.293780 0.086750 0.962179
Zn5   Zn    Zn3+2 0.749990 0.793780 0.413250 0.954186
Zn6   Zn    Zn3+2 0.749990 0.206220 0.586750 0.962179
Zn7   Zn    Zn3+2 0.749990 0.206220 0.413250 0.954177
Zn8   Zn    Zn3+2 0.749990 0.793780 0.586750 0.962202
Zn9   Zn    Zn3+2 0.336760 0.206240 0.000000 0.973681
Zn10  Zn    Zn3+2 0.336760 0.793760 0.000000 0.973667
Zn11  Zn    Zn3+2 0.836760 0.706240 0.500000 0.973691
Zn12  Zn    Zn3+2 0.836760 0.293760 0.500000 0.973669
Zn13  Zn    Zn3+2 0.163250 0.206230 0.000000 0.961232
Zn14  Zn    Zn3+2 0.163250 0.793770 0.000000 0.961289
Zn15  Zn    Zn3+2 0.663250 0.706230 0.500000 0.961243
Zn16  Zn    Zn3+2 0.663250 0.293770 0.500000 0.961265
O1    O     O_3   0.249990 0.250010 0.000000 -0.490287
O2    O     O_3   0.249990 0.749990 0.000000 -0.490306
O3    O     O_3   0.749990 0.750010 0.500000 -0.490300
O4    O     O_3   0.749990 0.249990 0.500000 -0.490293
O5    O     O_R   0.335430 0.280650 0.146160 -0.639062
O6    O     O_R   0.335430 0.719350 0.853840 -0.643664
O7    O     O_R   0.335430 0.719350 0.146160 -0.639032
O8    O     O_R   0.335430 0.280650 0.853840 -0.643691
O9    O     O_R   0.835430 0.780650 0.646160 -0.639037
O10   O     O_R   0.835430 0.219350 0.353840 -0.643691
O11   O     O_R   0.835430 0.219350 0.646160 -0.639050
O12   O     O_R   0.835430 0.780650 0.353840 -0.643679
O13   O     O_R   0.164550 0.280640 0.853840 -0.639363
O14   O     O_R   0.164550 0.719360 0.146160 -0.629101
O15   O     O_R   0.164550 0.719360 0.853840 -0.639346
O16   O     O_R   0.164550 0.280640 0.146160 -0.629097
O17   O     O_R   0.664550 0.780640 0.353840 -0.639346
O18   O     O_R   0.664550 0.219360 0.646160 -0.629100
O19   O     O_R   0.664550 0.219360 0.353840 -0.639373
O20   O     O_R   0.664550 0.780640 0.646160 -0.629075
O21   O     O_R   0.396160 0.219380 0.914560 -0.625101
O22   O     O_R   0.396160 0.780620 0.085440 -0.634256
O23   O     O_R   0.396160 0.780620 0.914560 -0.625110
O24   O     O_R   0.396160 0.219380 0.085440 -0.634266
O25   O     O_R   0.896160 0.719380 0.414560 -0.625093
O26   O     O_R   0.896160 0.280620 0.585440 -0.634284
O27   O     O_R   0.896160 0.280620 0.414560 -0.625108
O28   O     O_R   0.896160 0.719380 0.585440 -0.634227
O29   O     O_R   0.103840 0.219370 0.085450 -0.642269
O30   O     O_R   0.103840 0.780630 0.914550 -0.634642
O31   O     O_R   0.103840 0.780630 0.085450 -0.642213
O32   O     O_R   0.103840 0.219370 0.914550 -0.634687
O33   O     O_R   0.603840 0.719370 0.585450 -0.642263
O34   O     O_R   0.603840 0.280630 0.414550 -0.634677
O35   O     O_R   0.603840 0.280630 0.585450 -0.642242
O36   O     O_R   0.603840 0.719370 0.414550 -0.634664
O37   O     O_R   0.310730 0.133160 0.000000 -0.634314
O38   O     O_R   0.310730 0.866840 0.000000 -0.634389
O39   O     O_R   0.810730 0.633160 0.500000 -0.634342
O40   O     O_R   0.810730 0.366840 0.500000 -0.634355
O41   O     O_R   0.249970 0.366860 0.060720 -0.642877
O42   O     O_R   0.249970 0.633140 0.939280 -0.643294
O43   O     O_R   0.249970 0.633140 0.060720 -0.642880
O44   O     O_R   0.249970 0.366860 0.939280 -0.643287
O45   O     O_R   0.749970 0.866860 0.560720 -0.642880
O46   O     O_R   0.749970 0.133140 0.439280 -0.643290
O47   O     O_R   0.749970 0.133140 0.560720 -0.642873
O48   O     O_R   0.749970 0.866860 0.439280 -0.643291
O49   O     O_R   0.189290 0.133150 0.000000 -0.640134
O50   O     O_R   0.189290 0.866850 0.000000 -0.640052
O51   O     O_R   0.689290 0.633150 0.500000 -0.640135
O52   O     O_R   0.689290 0.366850 0.500000 -0.640054
C1    C     C_R   0.389792 0.250020 0.139841 0.779355
C2    C     C_R   0.389765 0.749897 0.860241 0.785278
C3    C     C_R   0.389792 0.749982 0.139841 0.779381
C4    C     C_R   0.389764 0.250104 0.860242 0.785257
C5    C     C_R   0.889791 0.750019 0.639842 0.779381
C6    C     C_R   0.889765 0.249896 0.360242 0.785290
C7    C     C_R   0.889793 0.249981 0.639841 0.779363
C8    C     C_R   0.889765 0.750105 0.360243 0.785256
C9    C     C_R   0.110149 0.250024 0.860133 0.783746
C10   C     C_R   0.110305 0.750050 0.139809 0.784428
C11   C     C_R   0.110151 0.749975 0.860132 0.783747
C12   C     C_R   0.110303 0.249950 0.139808 0.784456
C13   C     C_R   0.610150 0.750023 0.360132 0.783758
C14   C     C_R   0.610304 0.250049 0.639808 0.784426
C15   C     C_R   0.610150 0.249975 0.360133 0.783732
C16   C     C_R   0.610304 0.749949 0.639809 0.784455
C17   C     C_R   0.250089 0.109330 0.999777 0.785909
C18   C     C_R   0.250095 0.890670 0.999775 0.785897
C19   C     C_R   0.750089 0.609329 0.499778 0.785902
C20   C     C_R   0.750093 0.390669 0.499785 0.785909
C21   C     C_R   0.249960 0.391400 0.000094 0.744872
C22   C     C_R   0.249960 0.608599 0.000093 0.744856
C23   C     C_R   0.749960 0.891400 0.500094 0.744855
C24   C     C_R   0.749960 0.108599 0.500093 0.744872
C25   C     C_3   0.249919 0.470310 0.079971 -0.369370
C26   C     C_3   0.181124 0.529888 0.961174 -0.389338
C27   C     C_3   0.249920 0.529692 0.079970 -0.369354
C28   C     C_3   0.181124 0.470107 0.961174 -0.389327
C29   C     C_3   0.749919 0.970310 0.579971 -0.369361
C30   C     C_3   0.681124 0.029888 0.461173 -0.389336
C31   C     C_3   0.749919 0.029692 0.579970 -0.369350
C32   C     C_3   0.681124 0.970107 0.461174 -0.389330
H1    H     H_    0.298956 0.456156 0.109650 0.181381
H2    H     H_    0.179660 0.544111 0.903770 0.186316
H3    H     H_    0.298956 0.543850 0.109649 0.181382
H4    H     H_    0.179660 0.455881 0.903771 0.186316
H5    H     H_    0.798956 0.956156 0.609650 0.181382
H6    H     H_    0.679661 0.044111 0.403770 0.186315
H7    H     H_    0.798956 0.043850 0.609649 0.181382
H8    H     H_    0.679660 0.955882 0.403771 0.186318
H9    H     H_    0.200855 0.456152 0.110078 0.195840
H10   H     H_    0.130972 0.544289 0.989112 0.163511
H11   H     H_    0.200855 0.543848 0.110077 0.195838
H12   H     H_    0.130972 0.455703 0.989114 0.163518
H13   H     H_    0.700854 0.956152 0.610077 0.195848
H14   H     H_    0.630972 0.044289 0.489112 0.163518
H15   H     H_    0.700854 0.043848 0.610077 0.195847
H16   H     H_    0.630972 0.955703 0.489113 0.163509
H17   H     H_    0.186358 0.904645 0.123481 0.133785
H18   H     H_    0.186145 0.095350 0.123397 0.133974
H19   H     H_    0.686350 0.404647 0.623488 0.133778
H20   H     H_    0.686109 0.595351 0.623387 0.133997
H21   H     H_    0.368948 0.455709 0.988025 0.153688
H22   H     H_    0.320306 0.544115 0.903130 0.187009
H23   H     H_    0.368948 0.544298 0.988024 0.153685
H24   H     H_    0.320306 0.455885 0.903131 0.187010
H25   H     H_    0.868948 0.955709 0.488026 0.153682
H26   H     H_    0.820306 0.044115 0.403130 0.187009
H27   H     H_    0.868948 0.044298 0.488024 0.153688
H28   H     H_    0.820306 0.955885 0.403131 0.187012
C33   C     C_3   0.318808 0.470111 0.960549 -0.392879
C34   C     C_3   0.318808 0.529891 0.960548 -0.392886
C35   C     C_3   0.818808 0.970111 0.460549 -0.392883
C36   C     C_3   0.818808 0.029891 0.460548 -0.392884
C37   C     C_3   0.249954 0.449155 0.000427 0.181667
C38   C     C_3   0.249954 0.550845 0.000426 0.181675
C39   C     C_3   0.749954 0.949155 0.500427 0.181672
C40   C     C_3   0.749954 0.050845 0.500426 0.181663
H29   H     H_    0.876724 0.303396 0.968206 0.132789
H30   H     H_    0.912196 0.635121 0.066167 0.128340
H31   H     H_    0.876815 0.696290 0.968115 0.132705
H32   H     H_    0.912134 0.364788 0.066094 0.128379
H33   H     H_    0.376784 0.803595 0.468149 0.132754
H34   H     H_    0.412120 0.135211 0.566090 0.128369
H35   H     H_    0.376721 0.196602 0.468203 0.132790
H36   H     H_    0.412222 0.864888 0.566178 0.128354
C41   C     C_R   0.144907 0.221389 0.711896 -0.140006
C42   C     C_R   0.125428 0.813220 0.267498 -0.149923
C43   C     C_R   0.144862 0.778764 0.711943 -0.140021
C44   C     C_R   0.125460 0.186828 0.267536 -0.149987
C45   C     C_R   0.644881 0.721302 0.211922 -0.140011
C46   C     C_R   0.625471 0.313167 0.767542 -0.149946
C47   C     C_R   0.644911 0.278609 0.211896 -0.140009
C48   C     C_R   0.625409 0.686769 0.767486 -0.149947
C49   C     C_R   0.162532 0.207958 0.640204 -0.140674
C50   C     C_R   0.132940 0.844335 0.329188 -0.163856
C51   C     C_R   0.162459 0.792295 0.640277 -0.140565
C52   C     C_R   0.132993 0.155742 0.329249 -0.163874
C53   C     C_R   0.662491 0.707820 0.140243 -0.140602
C54   C     C_R   0.633007 0.344254 0.829256 -0.163883
C55   C     C_R   0.662536 0.292042 0.140205 -0.140667
C56   C     C_R   0.632916 0.655655 0.829175 -0.163835
C57   C     C_R   0.608860 0.707457 0.086915 -0.139728
C58   C     C_R   0.579379 0.344030 0.883312 -0.153940
C59   C     C_R   0.608906 0.292406 0.086877 -0.139769
C60   C     C_R   0.579290 0.655883 0.883233 -0.153897
C61   C     C_R   0.108904 0.207596 0.586875 -0.139774
C62   C     C_R   0.079309 0.844116 0.383240 -0.153864
C63   C     C_R   0.108826 0.792665 0.586951 -0.139716
C64   C     C_R   0.079365 0.155967 0.383306 -0.153948
C65   C     C_R   0.537333 0.720776 0.104885 -0.140212
C66   C     C_R   0.517831 0.312814 0.875861 -0.145033
C67   C     C_R   0.537364 0.279139 0.104861 -0.140196
C68   C     C_R   0.517773 0.687127 0.875810 -0.145026
C69   C     C_R   0.037362 0.220864 0.604859 -0.140204
C70   C     C_R   0.017784 0.812874 0.375814 -0.144989
C71   C     C_R   0.037308 0.779305 0.604910 -0.140189
C72   C     C_R   0.017823 0.187184 0.375858 -0.145039
C73   C     C_R   0.518265 0.736020 0.177009 0.072962
C74   C     C_R   0.508614 0.281269 0.813290 0.077481
C75   C     C_R   0.518279 0.263937 0.176997 0.072970
C76   C     C_R   0.508584 0.718700 0.813263 0.077477
C77   C     C_R   0.018279 0.236065 0.676996 0.072966
C78   C     C_R   0.008592 0.781299 0.313267 0.077463
C79   C     C_R   0.018253 0.764019 0.677020 0.072970
C80   C     C_R   0.008610 0.218729 0.313288 0.077482
C81   C     C_R   0.072816 0.236229 0.731379 0.073598
C82   C     C_R   0.063179 0.781377 0.258530 0.079550
C83   C     C_R   0.072794 0.763848 0.731402 0.073573
C84   C     C_R   0.063195 0.218648 0.258549 0.079550
C85   C     C_R   0.572803 0.736185 0.231392 0.073589
C86   C     C_R   0.563201 0.281349 0.758552 0.079558
C87   C     C_R   0.572818 0.263770 0.231379 0.073596
C88   C     C_R   0.563169 0.718618 0.758524 0.079542
C89   C     C_R   0.445879 0.749969 0.195950 -0.155710
C90   C     C_R   0.445749 0.250352 0.803943 -0.143091
C91   C     C_R   0.445878 0.250034 0.195951 -0.155750
C92   C     C_R   0.445750 0.749649 0.803943 -0.143089
C93   C     C_R   0.945880 0.249968 0.695950 -0.155753
C94   C     C_R   0.945749 0.750355 0.303942 -0.143083
C95   C     C_R   0.945877 0.750036 0.695952 -0.155677
C96   C     C_R   0.945750 0.249648 0.303943 -0.143105
C97   C     C_R   0.427107 0.764050 0.268412 0.073241
C98   C     C_R   0.435832 0.220247 0.740333 0.078625
C99   C     C_R   0.427092 0.235998 0.268426 0.073244
C100  C     C_R   0.435861 0.779784 0.740359 0.078611
C101  C     C_R   0.927094 0.264003 0.768425 0.073248
C102  C     C_R   0.935851 0.720227 0.240351 0.078602
C103  C     C_R   0.927114 0.735923 0.768404 0.073223
C104  C     C_R   0.935836 0.279754 0.240335 0.078608
C105  C     C_R   0.981534 0.263953 0.822912 0.073139
C106  C     C_R   0.990895 0.719755 0.186101 0.077759
C107  C     C_R   0.981557 0.735965 0.822888 0.073139
C108  C     C_R   0.990877 0.280220 0.186081 0.077775
C109  C     C_R   0.481548 0.764001 0.322898 0.073134
C110  C     C_R   0.490874 0.219779 0.686080 0.077781
C111  C     C_R   0.481534 0.236045 0.322910 0.073144
C112  C     C_R   0.490902 0.780248 0.686104 0.077777
C113  C     C_R   0.054007 0.250072 0.803977 -0.157690
C114  C     C_R   0.054150 0.750156 0.195879 -0.143527
C115  C     C_R   0.054008 0.749923 0.803976 -0.157611
C116  C     C_R   0.054147 0.249843 0.195877 -0.143554
C117  C     C_R   0.554007 0.750072 0.303977 -0.157646
C118  C     C_R   0.554149 0.250155 0.695878 -0.143541
C119  C     C_R   0.554008 0.249925 0.303976 -0.157683
C120  C     C_R   0.554147 0.749842 0.695877 -0.143539
C121  C     C_R   0.355130 0.779381 0.287581 -0.138670
C122  C     C_R   0.371998 0.190333 0.729652 -0.106373
C123  C     C_R   0.355098 0.220715 0.287610 -0.138670
C124  C     C_R   0.372055 0.809731 0.729703 -0.106368
C125  C     C_R   0.855102 0.279288 0.787610 -0.138668
C126  C     C_R   0.872030 0.690295 0.229683 -0.106409
C127  C     C_R   0.855143 0.720570 0.787565 -0.138673
C128  C     C_R   0.872006 0.309669 0.229655 -0.106363
C129  C     C_R   0.337385 0.792996 0.359143 -0.139646
C130  C     C_R   0.363591 0.160352 0.666954 -0.077575
C131  C     C_R   0.337337 0.207157 0.359187 -0.139702
C132  C     C_R   0.363674 0.839737 0.667028 -0.077475
C133  C     C_R   0.837341 0.292845 0.859188 -0.139700
C134  C     C_R   0.863641 0.660293 0.167003 -0.077469
C135  C     C_R   0.837408 0.706922 0.859118 -0.139625
C136  C     C_R   0.863601 0.339649 0.166958 -0.077520
C137  C     C_R   0.890736 0.292619 0.912768 -0.142294
C138  C     C_R   0.918403 0.659135 0.114182 -0.112992
C139  C     C_R   0.890808 0.707137 0.912696 -0.142211
C140  C     C_R   0.918357 0.340797 0.114127 -0.113122
C141  C     C_R   0.390782 0.792772 0.412723 -0.142237
C142  C     C_R   0.418346 0.159203 0.614124 -0.113130
C143  C     C_R   0.390733 0.207380 0.412766 -0.142298
C144  C     C_R   0.418427 0.840879 0.614194 -0.113053
C145  C     C_R   0.962260 0.279007 0.895054 -0.141367
C146  C     C_R   0.981358 0.688644 0.123140 -0.137970
C147  C     C_R   0.962310 0.720830 0.895005 -0.141353
C148  C     C_R   0.981323 0.311305 0.123100 -0.138001
C149  C     C_R   0.462291 0.779103 0.395024 -0.141374
C150  C     C_R   0.481316 0.188694 0.623099 -0.137976
C151  C     C_R   0.462258 0.220990 0.395051 -0.141358
C152  C     C_R   0.481370 0.811358 0.623145 -0.137988
H37   H     H_    0.188439 0.219652 0.751528 0.130739
H38   H     H_    0.168532 0.814716 0.226843 0.104872
H39   H     H_    0.188394 0.780485 0.751578 0.130631
H40   H     H_    0.168561 0.185329 0.226878 0.104889
H41   H     H_    0.688411 0.719571 0.251556 0.130674
H42   H     H_    0.668573 0.314666 0.726885 0.104881
H43   H     H_    0.688443 0.280344 0.251527 0.130744
H44   H     H_    0.668508 0.685268 0.726827 0.104875
H45   H     H_    0.217945 0.197455 0.625985 0.130151
H46   H     H_    0.180519 0.868792 0.334982 0.127407
H47   H     H_    0.217853 0.802869 0.626077 0.130077
H48   H     H_    0.180585 0.131304 0.335059 0.127462
H49   H     H_    0.717893 0.697279 0.126035 0.130121
H50   H     H_    0.680603 0.368690 0.835068 0.127444
H51   H     H_    0.717951 0.302545 0.125987 0.130147
H52   H     H_    0.680487 0.631194 0.834965 0.127415
H53   H     H_    0.622664 0.696496 0.031453 0.138595
H54   H     H_    0.585348 0.368279 0.931131 0.126605
H55   H     H_    0.622723 0.303330 0.031405 0.138628
H56   H     H_    0.585238 0.631613 0.931034 0.126584
H57   H     H_    0.122720 0.196673 0.531402 0.138628
H58   H     H_    0.085257 0.868390 0.431038 0.126544
H59   H     H_    0.122620 0.803664 0.531500 0.138528
H60   H     H_    0.085332 0.131717 0.431124 0.126605
H61   H     H_    0.497470 0.718617 0.061583 0.130899
H62   H     H_    0.477432 0.314045 0.919223 0.107305
H63   H     H_    0.497504 0.281305 0.061557 0.130959
H64   H     H_    0.477374 0.685899 0.919172 0.107305
H65   H     H_    0.997503 0.218700 0.561554 0.130963
H66   H     H_    0.977382 0.814108 0.419172 0.107296
H67   H     H_    0.997441 0.781466 0.561611 0.130819
H68   H     H_    0.977424 0.185954 0.419220 0.107306
H69   H     H_    0.311791 0.781428 0.247751 0.131187
H70   H     H_    0.328318 0.189446 0.769709 0.104778
H71   H     H_    0.311756 0.218663 0.247784 0.131268
H72   H     H_    0.328378 0.810622 0.769764 0.104754
H73   H     H_    0.811761 0.281343 0.747783 0.131256
H74   H     H_    0.828347 0.689412 0.269737 0.104776
H75   H     H_    0.811802 0.718533 0.747735 0.131162
H76   H     H_    0.828327 0.310557 0.269713 0.104787
H77   H     H_    0.781995 0.303909 0.873053 0.138927
H78   H     H_    0.815053 0.637029 0.160085 0.135779
H79   H     H_    0.782079 0.695800 0.872967 0.138852
H80   H     H_    0.815005 0.362900 0.160030 0.135789
H81   H     H_    0.282051 0.804102 0.372997 0.138888
H82   H     H_    0.314991 0.137102 0.660025 0.135756
H83   H     H_    0.281989 0.196095 0.373052 0.138930
H84   H     H_    0.315099 0.863013 0.660121 0.135732
H85   H     H_    0.001958 0.280839 0.938535 0.131236
H86   H     H_    0.022378 0.686661 0.080426 0.108464
H87   H     H_    0.002016 0.718999 0.938481 0.131095
H88   H     H_    0.022337 0.313282 0.080380 0.108475
H89   H     H_    0.501993 0.780931 0.438503 0.131161
H90   H     H_    0.522331 0.186715 0.580380 0.108468
H91   H     H_    0.501957 0.219155 0.438531 0.131230
H92   H     H_    0.522383 0.813332 0.580424 0.108468
H93   H     H_    0.130662 0.047699 0.223131 0.141624
H94   H     H_    0.130825 0.952297 0.223198 0.141601
H95   H     H_    0.630646 0.547700 0.723128 0.141628
H96   H     H_    0.630815 0.452300 0.723204 0.141602
C153  C     C_R   0.323831 0.053614 0.885526 -0.289234
C154  C     C_R   0.323899 0.946394 0.885558 -0.289374
C155  C     C_R   0.823853 0.553604 0.385539 -0.289291
C156  C     C_R   0.823813 0.446383 0.385523 -0.289271
C157  C     C_R   0.364069 0.026901 0.832866 0.389163
C158  C     C_R   0.364119 0.973112 0.832892 0.389135
C159  C     C_R   0.864048 0.526883 0.332856 0.389143
C160  C     C_R   0.864028 0.473094 0.332847 0.389178
C161  C     C_R   0.287130 0.972860 0.942929 0.015193
C162  C     C_R   0.287109 0.027143 0.942921 0.015202
C163  C     C_R   0.787101 0.472855 0.442923 0.015191
C164  C     C_R   0.787111 0.527139 0.442926 0.015202
C165  C     C_R   0.250611 0.946312 0.000046 -0.106624
C166  C     C_R   0.250585 0.053688 0.000035 -0.106637
C167  C     C_R   0.750602 0.446310 0.500051 -0.106614
C168  C     C_R   0.750588 0.553687 0.500041 -0.106642
C169  C     C_R   0.217043 0.972832 0.058891 0.068569
C170  C     C_R   0.217010 0.027165 0.058877 0.068529
C171  C     C_R   0.717037 0.472832 0.558897 0.068545
C172  C     C_R   0.717000 0.527165 0.558879 0.068545
C173  C     C_R   0.185810 0.946297 0.119398 -0.144028
C174  C     C_R   0.185692 0.053697 0.119349 -0.144130
C175  C     C_R   0.685802 0.446299 0.619405 -0.144039
C176  C     C_R   0.685670 0.553698 0.619345 -0.144150
C177  C     C_R   0.154368 0.973189 0.177523 -0.140143
C178  C     C_R   0.154290 0.026805 0.177490 -0.140196
C179  C     C_R   0.654357 0.473192 0.677527 -0.140116
C180  C     C_R   0.654272 0.526806 0.677489 -0.140222
H97   H     H_    0.323174 0.095219 0.881134 0.186728
H98   H     H_    0.323297 0.904790 0.881192 0.186824
H99   H     H_    0.823241 0.595209 0.381166 0.186792
H100  H     H_    0.823162 0.404779 0.381138 0.186736
Cl1   Cl    Cl    0.415520 0.061755 0.768263 -0.573411
Cl2   Cl    Cl    0.415674 0.938269 0.768352 -0.573352
Cl3   Cl    Cl    0.915526 0.561725 0.268260 -0.573450
Cl4   Cl    Cl    0.915477 0.438239 0.268238 -0.573436

loop_
_geom_bond_atom_site_label_1
_geom_bond_atom_site_label_2
_geom_bond_distance
_ccdc_geom_bond_type
C153  C162  1.420069 A    
C87   C119  1.416085 A    
C94   C102  1.412658 A    
C109  C149  1.418649 A    
C164  C168  1.415572 A    
C99   C123  1.418741 A    
C75   C91   1.415144 A    
C169  C170  1.406618 A    
C97   C121  1.418766 A    
O26   C7    1.277267 A    
C160  Cl4   1.757007 S    
C73   C89   1.415161 A    
C66   C74   1.416549 A    
C99   C111  1.412788 A    
C4    C90   1.449405 S    
O30   C11   1.277667 A    
C22   C38   1.495207 S    
C30   H14   1.113028 S    
C91   C99   1.415145 A    
C136  C140  1.389310 A    
C89   C97   1.415160 A    
H93   C178  1.083029 S    
Zn12  O26   1.938117 S    
C110  C118  1.412326 A    
C51   C63   1.387322 A    
H34   C142  1.082283 S    
C161  C165  1.415548 A    
C92   C100  1.412660 A    
C43   C51   1.392893 A    
C76   C92   1.413011 A    
C32   C39   1.551304 S    
C158  Cl2   1.757049 S    
C29   H5    1.113427 S    
C96   C104  1.412661 A    
C34   C38   1.551363 S    
C44   H40   1.082372 S    
O11   C7    1.277434 A    
C45   H41   1.080823 S    
C42   C82   1.416795 A    
O34   C15   1.277660 A    
C135  H79   1.082077 S    
C55   H51   1.080961 S    
C155  C159  1.393431 A    
C62   C70   1.393927 A    
C41   H37   1.080815 S    
C159  C160  1.392542 A    
C137  C145  1.392896 A    
Zn14  O30   1.938344 S    
Zn1   O44   1.950914 S    
C25   H1    1.113426 S    
Zn2   O43   1.950914 S    
C108  C116  1.412334 A    
C141  C149  1.392946 A    
Zn5   O48   1.950914 S    
H32   C140  1.082286 S    
Zn6   O47   1.950914 S    
C112  C120  1.412328 A    
Zn7   O46   1.950930 S    
O16   C12   1.277636 A    
C11   C115  1.456525 S    
C42   C50   1.393547 A    
C169  C173  1.420308 A    
Zn16  O4    1.951198 S    
Zn12  O4    1.951419 S    
Zn1   O13   1.938992 S    
C71   H67   1.080985 S    
C98   C110  1.410906 A    
C26   C28   1.547650 S    
C72   H68   1.082303 S    
Zn4   O16   1.930590 S    
C57   H53   1.081977 S    
C104  C128  1.416397 A    
C9    C113  1.456520 S    
C33   C37   1.551369 S    
C6    C96   1.449399 S    
C28   H4    1.112934 S    
C150  H90   1.082262 S    
C125  C133  1.392223 A    
C63   H59   1.082014 S    
C31   H7    1.113428 S    
C64   H60   1.082457 S    
C71   C79   1.418796 A    
C72   C80   1.416556 A    
C14   C118  1.448627 S    
C44   C84   1.416788 A    
C45   C85   1.418615 A    
C30   H6    1.112933 S    
Zn10  O22   1.938117 S    
C105  C113  1.416166 A    
C48   C88   1.416790 A    
O25   C8    1.278393 A    
C163  C167  1.415498 A    
C129  C141  1.387506 A    
C13   C117  1.456522 S    
Zn10  O2    1.951419 S    
C154  H98   1.080077 S    
C31   C40   1.554344 S    
O29   C12   1.276738 A    
C65   H61   1.080971 S    
Zn15  O33   1.929946 S    
C171  C172  1.406621 A    
C75   C87   1.412729 A    
C26   H2    1.112932 S    
C147  H87   1.080947 S    
C157  C158  1.392538 A    
C41   C81   1.418602 A    
C135  C139  1.387518 A    
O48   C23   1.280801 A    
C130  C142  1.389305 A    
Zn13  O29   1.929946 S    
C132  C144  1.389312 A    
C101  C125  1.418751 A    
C156  C160  1.393386 A    
Zn16  O35   1.929939 S    
C77   C93   1.415147 A    
C70   C78   1.416566 A    
C82   C114  1.412490 A    
Zn7   O10   1.930546 S    
C123  H71   1.081018 S    
O33   C16   1.276734 A    
C25   C37   1.554337 S    
C86   C118  1.412476 A    
Zn8   O20   1.930590 S    
O40   C20   1.270186 A    
C52   C64   1.390016 A    
C70   H66   1.082305 S    
C1    C91   1.455196 S    
C102  C106  1.410904 A    
H95   C180  1.082990 S    
C80   C96   1.413011 A    
Zn5   O17   1.938992 S    
H33   C141  1.081251 S    
H31   C139  1.081261 S    
C57   C65   1.392128 A    
C53   H49   1.080981 S    
C25   C27   1.537328 S    
C129  H81   1.082092 S    
C103  C107  1.412800 A    
C67   C75   1.418751 A    
C161  C162  1.405345 A    
C17   C166  1.440549 S    
C61   H57   1.081954 S    
C65   C73   1.418759 A    
H96   C179  1.082880 S    
C27   H3    1.113427 S    
C32   H8    1.112933 S    
Zn8   O3    1.949557 S    
C21   C37   1.495204 S    
O38   C18   1.270168 A    
C145  H85   1.080922 S    
H22   C34   1.112948 S    
O5    C1    1.277455 A    
C47   C55   1.392805 A    
O32   C9    1.277653 A    
C151  H91   1.080922 S    
H25   C35   1.113010 S    
C52   H48   1.082516 S    
H26   C36   1.112948 S    
C36   C40   1.551366 S    
Zn15  O51   1.951129 S    
C111  C151  1.418633 A    
Zn11  O28   1.938091 S    
C121  H69   1.081025 S    
H23   C34   1.113011 S    
C42   H38   1.082373 S    
C29   C39   1.554337 S    
H28   C35   1.112947 S    
O8    C4    1.276710 A    
C63   C71   1.392148 A    
C33   C34   1.547632 S    
C64   C72   1.393912 A    
C49   C61   1.387294 A    
H20   C176  1.080890 S    
O37   C17   1.270218 A    
C107  C115  1.416178 A    
C100  C112  1.410905 A    
Zn1   O1    1.949592 S    
C122  C130  1.393719 A    
C133  C137  1.387489 A    
Zn2   O14   1.930607 S    
C15   C119  1.456524 S    
C58   H54   1.082455 S    
C68   C76   1.416558 A    
C167  C171  1.414543 A    
H29   C137  1.081216 S    
O9    C5    1.277445 A    
C43   H39   1.080840 S    
O36   C13   1.277655 A    
C60   C68   1.393915 A    
O13   C9    1.277687 A    
Zn1   O8    1.930563 S    
C2    C92   1.449399 S    
C155  H99   1.080145 S    
Zn2   O7    1.938949 S    
C165  C169  1.414536 A    
Zn3   O6    1.930546 S    
O18   C14   1.277669 A    
O31   C10   1.276775 A    
C106  C146  1.416610 A    
C25   H9    1.113467 S    
H94   C177  1.082878 S    
C110  C150  1.416598 A    
C93   C101  1.415145 A    
C32   H16   1.113029 S    
H18   C174  1.080918 S    
C98   C122  1.416379 A    
C59   H55   1.081954 S    
Zn15  O3    1.951119 S    
C74   C90   1.413004 A    
Zn11  O3    1.951498 S    
O41   C21   1.277846 A    
C56   C60   1.390018 A    
C66   H62   1.082305 S    
Zn16  O34   1.938344 S    
C31   H15   1.113466 S    
C74   C86   1.411179 A    
C3    C89   1.455191 S    
Zn2   O2    1.949590 S    
C90   C98   1.412647 A    
C78   C82   1.411181 A    
C109  C117  1.416186 A    
C162  C166  1.415546 A    
C108  C148  1.416604 A    
C59   C67   1.392091 A    
C47   H43   1.080814 S    
C48   H44   1.082373 S    
C157  Cl1   1.756923 S    
C69   C77   1.418751 A    
C112  C152  1.416601 A    
Zn8   O9    1.938979 S    
C24   C40   1.495207 S    
C131  H83   1.082052 S    
C132  H84   1.082237 S    
C133  H77   1.082056 S    
C84   C116  1.412484 A    
C56   H52   1.082518 S    
C154  C158  1.393405 A    
C138  C146  1.393175 A    
O7    C3    1.277433 A    
C88   C120  1.412484 A    
C95   C103  1.415176 A    
C16   C120  1.448618 S    
O19   C15   1.277707 A    
Zn13  O49   1.951129 S    
C142  C150  1.393174 A    
C43   C83   1.418613 A    
O44   C21   1.280801 A    
C26   H10   1.113029 S    
Zn9   O24   1.938091 S    
Zn6   O18   1.930607 S    
Zn10  O23   1.929697 S    
C49   H45   1.080961 S    
O50   C18   1.272676 A    
C79   C83   1.412742 A    
C170  C174  1.420410 A    
H19   C175  1.080953 S    
C58   C66   1.393908 A    
C130  H82   1.082235 S    
Zn15  O36   1.938370 S    
O15   C11   1.277698 A    
O42   C22   1.280808 A    
C97   C109  1.412791 A    
Zn14  O31   1.929939 S    
C46   H42   1.082373 S    
Zn4   O1    1.949557 S    
C30   C32   1.547650 S    
Zn9   O37   1.951047 S    
C35   C36   1.547632 S    
O12   C8    1.276704 A    
C53   C57   1.387310 A    
Zn11  O39   1.951047 S    
C146  H86   1.082263 S    
C46   C54   1.393530 A    
C60   H56   1.082459 S    
C176  C180  1.392827 A    
H21   C33   1.113009 S    
C7    C93   1.455194 S    
Zn5   O3    1.949592 S    
Zn13  O1    1.951119 S    
Zn6   O4    1.949590 S    
C54   H50   1.082512 S    
C121  C129  1.392266 A    
C139  C147  1.392935 A    
C163  C164  1.405350 A    
C8    C94   1.449408 S    
H17   C173  1.080965 S    
C10   C114  1.448624 S    
C136  H80   1.082242 S    
C153  H97   1.080166 S    
H35   C143  1.081213 S    
H24   C33   1.112948 S    
C27   C38   1.554346 S    
O28   C5    1.277281 A    
C152  H92   1.082266 S    
Zn3   O42   1.950930 S    
C153  C157  1.393448 A    
C23   C39   1.495201 S    
Zn7   O4    1.949559 S    
O21   C4    1.278385 A    
C50   C62   1.390017 A    
C44   C52   1.393534 A    
C45   C53   1.392837 A    
C173  C177  1.392893 A    
C105  C145  1.418635 A    
C143  C151  1.392887 A    
C175  C179  1.392899 A    
C179  C180  1.388018 A    
C48   C56   1.393538 A    
C102  C126  1.416381 A    
Zn14  O2    1.951198 S    
C78   C94   1.413019 A    
C172  C176  1.420432 A    
C83   C115  1.416120 A    
C177  C178  1.388041 A    
C28   H12   1.113027 S    
C81   C113  1.416086 A    
Zn12  O27   1.929697 S    
C35   C39   1.551370 S    
C20   C167  1.440527 S    
C85   C117  1.416096 A    
C46   C86   1.416782 A    
C61   C69   1.392095 A    
C30   C40   1.551304 S    
Zn3   O2    1.949559 S    
C127  C135  1.392293 A    
C156  C163  1.420090 A    
H27   C36   1.113009 S    
C122  H70   1.082213 S    
O46   C24   1.280808 A    
O47   C24   1.277839 A    
Zn16  O52   1.951089 S    
C100  C124  1.416400 A    
H30   C138  1.082290 S    
C104  C108  1.410902 A    
Zn8   O45   1.950931 S    
C41   C49   1.392803 A    
O27   C6    1.278353 A    
C47   C87   1.418600 A    
C159  Cl3   1.756935 S    
C18   C165  1.440554 S    
C67   H63   1.080959 S    
C131  C143  1.387489 A    
C29   C31   1.537328 S    
C148  H88   1.082265 S    
C73   C85   1.412732 A    
O24   C1    1.277276 A    
C149  H89   1.080933 S    
C26   C38   1.551302 S    
C76   C88   1.411176 A    
C77   C81   1.412728 A    
C174  C178  1.392830 A    
C79   C95   1.415159 A    
C80   C84   1.411174 A    
C154  C161  1.420121 A    
O43   C22   1.277839 A    
O14   C10   1.277668 A    
Zn4   O41   1.950931 S    
Zn3   O15   1.939023 S    
C127  H75   1.081038 S    
C128  H76   1.082213 S    
Zn5   O12   1.930563 S    
Zn6   O11   1.938949 S    
C101  C105  1.412787 A    
Zn9   O21   1.929690 S    
Zn14  O50   1.951089 S    
C124  H72   1.082218 S    
C125  H73   1.081018 S    
O35   C14   1.276774 A    
Zn12  O40   1.951087 S    
O39   C19   1.270217 A    
C134  H78   1.082237 S    
Zn9   O1    1.951498 S    
H36   C144  1.082278 S    
O52   C20   1.272642 A    
C55   C59   1.387297 A    
C126  C134  1.393726 A    
C156  H100  1.080133 S    
C29   H13   1.113466 S    
O22   C3    1.277267 A    
C140  C148  1.393184 A    
Zn7   O19   1.939023 S    
C168  C172  1.414593 A    
C50   H46   1.082522 S    
C111  C119  1.416160 A    
C12   C116  1.448618 S    
Zn13  O32   1.938370 S    
C144  C152  1.393180 A    
O49   C17   1.272628 A    
C28   C37   1.551305 S    
C123  C131  1.392221 A    
C134  C138  1.389300 A    
O51   C19   1.272646 A    
C106  C114  1.412334 A    
C126  H74   1.082212 S    
C27   H11   1.113466 S    
C171  C175  1.420312 A    
Zn4   O5    1.938979 S    
C103  C127  1.418748 A    
O20   C16   1.277639 A    
C5    C95   1.455192 S    
O10   C6    1.276670 A    
O23   C2    1.278352 A    
O6    C2    1.276673 A    
Zn11  O25   1.929690 S    
Zn10  O38   1.951087 S    
C124  C132  1.393722 A    
C54   C58   1.390016 A    
C68   H64   1.082304 S    
C19   C168  1.440565 S    
C69   H65   1.080960 S    
C155  C164  1.420080 A    
C166  C170  1.414564 A    
C128  C136  1.393724 A    
C107  C147  1.418673 A    
O17   C13   1.277684 A    
C62   H58   1.082468 S    
C51   H47   1.080996 S    
O45   C23   1.277846 A    
