data_mof_unit_37221.cif
_audit_creation_date              2013-03-05T16:32:25-0500
_audit_creation_method            fapswitch 2.2
_symmetry_space_group_name_H-M    P1
_symmetry_Int_Tables_number       1
_space_group_crystal_system       triclinic
_cell_length_a                    10.643017
_cell_length_b                    10.818946
_cell_length_c                    9.542749
_cell_angle_alpha                 90.197064
_cell_angle_beta                  89.443858
_cell_angle_gamma                 90.080981
_cell_volume                      1098.75222707

loop_
_atom_site_label
_atom_site_type_symbol
_atom_site_description
_atom_site_fract_x
_atom_site_fract_y
_atom_site_fract_z
_atom_type_partial_charge
O1    O     O_R   0.500000 0.319640 0.618810 -0.583099
O2    O     O_R   0.500010 0.319680 0.381230 -0.591645
C1    C     C_R   0.502120 0.262371 0.499770 0.795503
O3    O     O_R   0.316850 0.499950 0.618770 -0.565206
O4    O     O_R   0.316860 0.499990 0.381190 -0.582165
C2    C     C_R   0.259374 0.500445 0.500915 0.802872
Cu1   Cu    Cu3+1 0.499990 0.499980 0.640670 0.979695
Cu2   Cu    Cu3+1 0.500010 0.500020 0.359330 0.952945
O5    O     O_R   0.499990 0.680320 0.618770 -0.571704
O6    O     O_R   0.500000 0.680360 0.381190 -0.586615
O7    O     O_R   0.683140 0.500010 0.618810 -0.593743
O8    O     O_R   0.683150 0.500050 0.381230 -0.582774
C3    C     C_R   0.501462 0.737703 0.500244 0.830187
C4    C     C_R   0.740555 0.500169 0.499332 0.833812
C5    C     C_3   0.037444 0.509062 0.633763 -0.018321
C6    C     C_3   0.956047 0.403479 0.573964 -0.225091
H1    H     H_    0.917403 0.323581 0.633136 0.173231
C7    C     C_3   0.877155 0.501111 0.498266 -0.077432
C8    C     C_3   0.957273 0.605673 0.558408 -0.040526
C9    C     C_3   0.043590 0.598844 0.427688 -0.189310
C10   C     C_3   0.961792 0.493231 0.367116 -0.098109
C11   C     C_3   0.042870 0.395873 0.442831 -0.166393
C12   C     C_3   0.122669 0.501247 0.503466 -0.071754
H2    H     H_    0.081888 0.678829 0.368403 0.157036
H3    H     H_    0.929866 0.485724 0.257205 0.155195
H4    H     H_    0.080856 0.309704 0.395338 0.147326
C13   C     C_R   0.497816 0.064510 0.625032 0.133560
C14   C     C_R   0.513259 0.129287 0.500056 -0.102842
C15   C     C_R   0.543762 0.063927 0.376955 -0.204763
H5    H     H_    0.562819 0.111809 0.279525 0.178353
C16   C     C_R   0.543093 0.935023 0.377438 -0.159788
H6    H     H_    0.561856 0.886125 0.280218 0.180528
C17   C     C_R   0.512084 0.870916 0.501089 -0.122646
C18   C     C_R   0.497973 0.937027 0.626296 0.070023
C19   C     C_3   0.393243 0.933201 0.732820 -0.191251
C20   C     C_3   0.394151 0.073823 0.731005 -0.521712
H7    H     H_    0.305030 0.892609 0.690928 0.166844
H8    H     H_    0.307054 0.114183 0.686864 0.190156
H9    H     H_    0.426246 0.118330 0.829662 0.209566
C21   C     C_R   0.561907 0.590327 0.073265 0.232647
N1    N     N_R   0.500800 0.500930 0.147930 -0.194109
C22   C     C_R   0.428356 0.418705 0.074900 -0.063519
H10   H     H_    0.372380 0.351277 0.131096 0.147785
C23   C     C_R   0.428191 0.418833 0.925939 -0.044783
H11   H     H_    0.371803 0.351793 0.870386 0.144760
N2    N     N_R   0.500800 0.500890 0.852020 -0.189043
C24   C     C_R   0.561986 0.590200 0.926047 0.282394
C25   C     C_3   0.698644 0.619782 0.918629 -0.439467
C26   C     C_3   0.698681 0.619519 0.077692 -0.462876
H12   H     H_    0.756014 0.543942 0.872267 0.223275
H13   H     H_    0.715932 0.712735 0.873267 0.245702
H14   H     H_    0.754947 0.542791 0.121461 0.213681
H15   H     H_    0.717137 0.712062 0.124151 0.219260
C27   C     C_2   0.430926 0.880304 0.872099 0.907154
O9    O     O_2   0.533696 0.904075 0.922027 -0.622795
O10   O     O_R   0.345508 0.806301 0.945693 -0.742455
H16   H     H_    0.378060 0.780248 0.040562 0.313767
C28   C     C_2   0.079201 0.516281 0.783356 0.876039
O11   O     O_2   0.047582 0.435858 0.866191 -0.625012
O12   O     O_R   0.153984 0.615028 0.827180 -0.692228
H17   H     H_    0.176522 0.609205 0.929929 0.348578
C29   C     C_2   0.905828 0.724608 0.616012 0.819416
O13   O     O_2   0.932597 0.758172 0.734380 -0.569800
O14   O     O_R   0.827776 0.796898 0.532797 -0.775561
H18   H     H_    0.798224 0.874635 0.582680 0.337249

loop_
_geom_bond_atom_site_label_1
_geom_bond_atom_site_label_2
_geom_bond_distance
_ccdc_geom_bond_type
C21   C24   1.404846 A    
C5    C8    1.535334 S    
C16   C17   1.407024 A    
C3    C17   1.445488 S    
C15   H5    1.083183 S    
C13   C20   1.492677 S    
O4    Cu2   1.958385 S    
C7    C10   1.537087 S    
C5    C28   1.500969 S    
N1    C22   1.369584 A    
C4    C7    1.453794 S    
O5    C3    1.292068 A    
C29   O14   1.396882 S    
C19   C20   1.521557 S    
C9    C12   1.538107 S    
Cu2   O8    1.962349 S    
C26   H14   1.109413 S    
O14   H18   1.013877 S    
C20   H8    1.112363 S    
C17   C18   1.397380 A    
Cu1   Cu2   2.684756 S    
C15   C16   1.394637 A    
C6    C7    1.536896 S    
O1    Cu1   1.961495 S    
C10   C11   1.547915 S    
O10   H16   1.013505 S    
C19   C27   1.507016 S    
Cu1   O7    1.958384 S    
C14   C15   1.404612 A    
C21   C26   1.490092 S    
C29   O13   1.221496 D    
C22   C23   1.421518 A    
O12   H17   1.013872 S    
O3    Cu1   1.962349 S    
C26   H15   1.111608 S    
C2    C12   1.454959 S    
C25   H12   1.111518 S    
C21   N1    1.363834 A    
C19   H7    1.113110 S    
C23   N2    1.369190 A    
O2    C1    1.292246 A    
O1    C1    1.292105 A    
C20   H9    1.112457 S    
C13   C18   1.379327 A    
C11   H4    1.110201 S    
O4    C2    1.290762 A    
O7    C4    1.288341 A    
C27   O10   1.396466 S    
C25   H13   1.110627 S    
N2    C24   1.363516 A    
C22   H10   1.081629 S    
C5    C12   1.534116 S    
C8    C29   1.499654 S    
C28   O12   1.396675 S    
C5    C6    1.543786 S    
Cu1   N2    2.016953 S    
C9    H2    1.110377 S    
C7    C8    1.529224 S    
C9    C10   1.549199 S    
Cu2   O6    1.961495 S    
C18   C19   1.501882 S    
C25   C26   1.517916 S    
C13   C14   1.393591 A    
Cu1   O5    1.962963 S    
C10   H3    1.108331 S    
C27   O9    1.223929 D    
C1    C14   1.444879 S    
C6    C11   1.550365 S    
Cu2   N1    2.017332 S    
C28   O11   1.222258 D    
C11   C12   1.535601 S    
O3    C2    1.285493 A    
C16   H6    1.083409 S    
O2    Cu2   1.962965 S    
C23   H11   1.081462 S    
C8    C9    1.543642 S    
O8    C4    1.287170 A    
C6    H1    1.110432 S    
C24   C25   1.489868 S    
O6    C3    1.292798 A    
