data_mof_unit_41994.cif
_audit_creation_date              2012-12-10T17:37:20-0500
_audit_creation_method            fapswitch 2.2
_symmetry_space_group_name_H-M    P1
_symmetry_Int_Tables_number       1
_space_group_crystal_system       triclinic
_cell_length_a                    12.366504
_cell_length_b                    13.232909
_cell_length_c                    15.838568
_cell_angle_alpha                 76.550765
_cell_angle_beta                  100.97595
_cell_angle_gamma                 117.228334
_cell_volume                      2230.8947951

loop_
_atom_site_label
_atom_site_type_symbol
_atom_type_description
_atom_site_fract_x
_atom_site_fract_y
_atom_site_fract_z
_atom_type_partial_charge
C1    C     C_R   0.854624 0.285932 0.510182 0.926263
C2    C     C_3   0.997940 0.495377 0.917281 -0.123105
C3    C     C_3   0.078065 0.603963 0.019293 -0.434548
C4    C     C_3   0.999879 0.497922 0.084005 -0.173102
C5    C     C_3   0.963150 0.574269 0.952539 0.408758
C6    C     C_3   0.885718 0.470612 0.017311 0.293481
C7    C     C_1   0.998039 0.496494 0.825389 0.177886
C8    C     C_1   0.000438 0.499023 0.175428 0.138029
C9    C     C_R   0.275644 0.025673 0.387975 0.444809
C10   C     C_R   0.226308 0.836905 0.475302 -0.152045
C11   C     C_R   0.803830 0.084439 0.587446 0.313858
C12   C     C_R   0.999320 0.499184 0.659859 0.806104
C13   C     C_R   0.713676 0.989806 0.633162 0.314954
C14   C     C_R   0.590660 0.966283 0.609866 0.374253
C15   C     C_R   0.555939 0.024384 0.529155 -0.122236
C16   C     C_R   0.648194 0.123688 0.486108 -0.192706
C17   C     C_R   0.433699 0.987224 0.489957 0.003982
C18   C     C_R   0.401245 0.059475 0.418371 -0.099544
C19   C     C_R   0.495267 0.156504 0.375338 0.360453
C20   C     C_R   0.617640 0.180590 0.404608 0.415834
C21   C     C_R   0.345718 0.874434 0.513780 -0.163427
C22   C     C_R   0.189508 0.914913 0.417341 -0.231725
C23   C     C_R   0.144923 0.713627 0.488724 0.798836
C24   C     C_R   0.770495 0.161679 0.523574 -0.255938
C25   C     C_R   0.322500 0.299407 0.621250 0.243336
C26   C     C_R   0.753463 0.633737 0.374808 -0.032983
C27   C     C_R   0.643780 0.634348 0.332876 0.279828
C28   C     C_R   0.535602 0.566825 0.373579 0.241570
C29   C     C_R   0.541590 0.514026 0.461748 -0.069583
C30   C     C_R   0.649747 0.499330 0.494206 0.145137
C31   C     C_R   0.438843 0.459541 0.512994 -0.118381
C32   C     C_R   0.431772 0.365036 0.580311 -0.142268
C33   C     C_R   0.537504 0.345261 0.607647 0.401475
C34   C     C_R   0.000468 0.500389 0.340232 0.809778
C35   C     C_R   0.643913 0.414281 0.566876 -0.186791
C36   C     C_R   0.350841 0.503975 0.506615 0.611105
C37   C     C_R   0.234136 0.341493 0.608333 0.497422
C38   C     C_3   0.034740 0.417744 0.049728 0.290267
C39   C     C_3   0.921355 0.391513 0.982287 0.253351
C40   C     C_1   0.998355 0.497793 0.749634 -0.120805
C41   C     C_1   0.000629 0.499859 0.250798 -0.113746
C42   C     C_3   0.110613 0.521999 0.984594 0.390989
Cu1   Cu    Cu3+1 0.098270 0.475420 0.519690 1.028136
Cu2   Cu    Cu3+1 0.901730 0.524580 0.480310 0.976519
H1    H     H_    0.371200 0.810343 0.555569 0.242413
H2    H     H_    0.835527 0.680696 0.341412 0.178806
H3    H     H_    0.720042 0.395796 0.592890 0.218448
H4    H     H_    0.141696 0.690203 0.036049 0.189326
H5    H     H_    0.095218 0.887311 0.389751 0.188201
N1    N     N_R   0.246280 0.438200 0.549540 -0.281616
N2    N     N_R   0.754330 0.561180 0.450980 -0.221387
O1    O     O_R   0.972510 0.318130 0.524770 -0.515581
O2    O     O_R   0.806530 0.359650 0.491510 -0.582288
O3    O     O_R   0.082970 0.479240 0.637550 -0.557899
O4    O     O_R   0.916990 0.520750 0.604290 -0.580934
O5    O     O_R   0.193470 0.640350 0.508490 -0.555648
O6    O     O_R   0.027490 0.681870 0.475230 -0.580653
O7    O     O_R   0.083010 0.479250 0.395710 -0.585970
O8    O     O_R   0.917030 0.520760 0.362450 -0.559782
Cl1   Cl    Cl    0.818821 0.252679 0.956227 -0.416969
O9    O     O_3   0.924551 0.105522 0.610823 -0.483936
C43   C     C_3   0.960488 0.066854 0.549877 -0.084202
H6    H     H_    0.904546 0.972740 0.549961 0.145725
H7    H     H_    0.056735 0.081223 0.568417 0.223772
H8    H     H_    0.955642 0.115982 0.482984 0.128684
O10   O     O_3   0.507193 0.886894 0.667140 -0.573466
C44   C     C_3   0.476133 0.947017 0.713792 -0.102514
H9    H     H_    0.428640 0.996288 0.669874 0.199212
H10   H     H_    0.558151 0.005420 0.750993 0.210462
H11   H     H_    0.412148 0.883453 0.761619 0.196184
Cl2   Cl    Cl    0.755641 0.904777 0.724081 -0.478307
O11   O     O_3   0.707244 0.258256 0.350865 -0.584107
C45   C     C_3   0.731783 0.196337 0.301569 -0.181994
H12   H     H_    0.648474 0.145658 0.261021 0.203795
H13   H     H_    0.770710 0.138870 0.344213 0.137104
H14   H     H_    0.800688 0.258647 0.256537 0.209290
O12   O     O_3   0.133219 0.284951 0.655074 -0.501990
C46   C     C_3   0.168373 0.308392 0.741320 -0.071650
H15   H     H_    0.084704 0.283020 0.772720 0.189877
H16   H     H_    0.226881 0.401674 0.743701 0.138025
H17   H     H_    0.216189 0.256916 0.780504 0.203416
Cl3   Cl    Cl    0.554751 0.250737 0.702648 -0.535364
Cl4   Cl    Cl    0.281726 0.156676 0.677639 -0.536293
O13   O     O_3   0.395651 0.623411 0.495353 -0.575276
C47   C     C_3   0.373243 0.673825 0.409033 -0.146546
H18   H     H_    0.357940 0.749271 0.410113 0.150369
H19   H     H_    0.291820 0.615710 0.372064 0.200636
H20   H     H_    0.456286 0.711892 0.374447 0.189943
Cl5   Cl    Cl    0.081700 0.313244 0.115980 -0.435538
Cl6   Cl    Cl    0.395745 0.519470 0.306040 -0.646315
Cl7   Cl    Cl    0.642212 0.709514 0.225607 -0.540037
Cl8   Cl    Cl    0.736058 0.435679 0.040870 -0.472050
O14   O     O_3   0.921768 0.651495 0.895688 -0.533573
C48   C     C_3   0.924429 0.731490 0.942104 -0.077821
H21   H     H_    0.020110 0.792975 0.959205 0.147638
H22   H     H_    0.875196 0.688443 0.001727 0.177144
H23   H     H_    0.877931 0.782165 0.899493 0.230816
O15   O     O_3   0.225324 0.544114 0.961913 -0.561659
C49   C     C_3   0.316824 0.591125 0.028457 -0.069934
H24   H     H_    0.294643 0.537368 0.093751 0.212845
H25   H     H_    0.333013 0.680784 0.029036 0.154428
H26   H     H_    0.403363 0.594638 0.014934 0.212793
O16   O     O_3   0.469306 0.213653 0.295053 -0.526154
C50   C     C_3   0.496135 0.326596 0.303516 -0.009417
H27   H     H_    0.596063 0.380755 0.313286 0.167753
H28   H     H_    0.450241 0.326194 0.357713 0.155928
H29   H     H_    0.461044 0.366894 0.242064 0.244810
Cl9   Cl    Cl    0.218539 0.115183 0.312604 -0.494453

loop_
_geom_bond_atom_site_label_1
_geom_bond_atom_site_label_2
_ccdc_geom_bond_type
C30   N2    A    
C3    C42   S    
O14   C48   S    
C45   H12   S    
C3    H4    S    
C19   C20   A    
C46   H17   S    
C4    C8    S    
C35   H3    S    
C50   H28   S    
C23   O5    A    
O12   C46   S    
C10   C22   A    
C9    Cl9   S    
C38   Cl5   S    
C26   C27   A    
C43   H6    S    
C30   C35   A    
C28   C29   A    
C36   O13   S    
C38   C42   S    
C42   O15   S    
C5    C6    S    
C46   H16   S    
C9    C22   A    
Cu2   O8    S    
C15   C16   A    
C11   C24   A    
C23   O6    A    
C18   C19   A    
C1    O2    A    
C43   H7    S    
Cu1   O7    S    
C25   C37   A    
C19   O16   S    
Cu2   O2    S    
C2    C7    S    
C7    C40   T    
C27   Cl7   S    
C33   Cl3   S    
C25   C32   A    
O10   C44   S    
C16   C24   A    
C13   C14   A    
C45   H13   S    
C48   H21   S    
C34   C41   S    
C2    C39   S    
C50   H27   S    
C21   H1    S    
C47   H19   S    
C10   C21   A    
C44   H9    S    
O13   C47   S    
C4    C6    S    
C46   H15   S    
C13   Cl2   S    
C48   H23   S    
C11   O9    S    
C47   H18   S    
C37   O12   S    
C17   C21   A    
C44   H10   S    
C12   C40   S    
Cu1   Cu2   S    
C29   C30   A    
Cu1   O5    S    
Cu1   O3    S    
C31   C32   A    
Cu2   O6    S    
C16   C20   A    
C6    C39   S    
C17   C18   A    
C14   O10   S    
C8    C41   T    
C48   H22   S    
C22   H5    S    
Cu2   N2    S    
C49   H25   S    
C4    C38   S    
C34   O8    A    
C45   H14   S    
C2    C5    S    
C3    C4    S    
O16   C50   S    
C36   N1    A    
C25   Cl4   S    
C47   H20   S    
C15   C17   A    
C43   H8    S    
C14   C15   A    
O11   C45   S    
C3    C5    S    
C5    O14   S    
Cu1   N1    S    
C10   C23   S    
C49   H24   S    
C44   H11   S    
C32   C33   A    
C29   C31   A    
C26   N2    A    
C37   N1    A    
C11   C13   A    
Cu2   O4    S    
C38   C39   S    
C2    C42   S    
C6    Cl8   S    
C39   Cl1   S    
C33   C35   A    
O9    C43   S    
Cu1   O1    S    
C1    O1    A    
C12   O4    A    
C26   H2    S    
C9    C18   A    
C49   H26   S    
C1    C24   S    
O15   C49   S    
C27   C28   A    
C34   O7    A    
C31   C36   A    
C20   O11   S    
C28   Cl6   S    
C50   H29   S    
C12   O3    A    
