data_mof_unit_54094.cif
_audit_creation_date              2012-12-11T14:03:49-0500
_audit_creation_method            fapswitch 2.2
_symmetry_space_group_name_H-M    P1
_symmetry_Int_Tables_number       1
_space_group_crystal_system       triclinic
_cell_length_a                    18.875145
_cell_length_b                    10.988259
_cell_length_c                    18.726614
_cell_angle_alpha                 89.546326
_cell_angle_beta                  89.78571
_cell_angle_gamma                 90.287771
_cell_volume                      3883.79454862

loop_
_atom_site_label
_atom_site_type_symbol
_atom_type_description
_atom_site_fract_x
_atom_site_fract_y
_atom_site_fract_z
_atom_type_partial_charge
C1    C     C_R   0.226779 0.514547 0.637537 0.563142
C2    C     C_R   0.772861 0.513184 0.362060 0.574109
C3    C     C_R   0.726780 0.014546 0.637537 0.563141
C4    C     C_R   0.272868 0.013208 0.362059 0.574109
C5    C     C_2   0.299084 0.873905 0.543234 -0.178475
C6    C     C_2   0.692595 0.891006 0.452847 -0.161435
C7    C     C_2   0.799083 0.373891 0.543234 -0.178480
C8    C     C_2   0.192596 0.391005 0.452848 -0.161439
C9    C     C_R   0.008351 0.657025 0.423750 -0.012838
C10   C     C_R   0.996305 0.668508 0.573496 -0.019387
C11   C     C_R   0.508350 0.157025 0.423750 -0.012837
C12   C     C_R   0.496305 0.168508 0.573496 -0.019388
C13   C     C_R   0.042302 0.871514 0.418561 -0.109243
C14   C     C_R   0.014372 0.893487 0.564000 -0.100982
C15   C     C_R   0.542301 0.371514 0.418562 -0.109253
C16   C     C_R   0.514370 0.393487 0.564000 -0.100983
C17   C     C_R   0.055119 0.981481 0.452533 0.373745
C18   C     C_R   0.040125 0.993041 0.525001 0.378867
C19   C     C_R   0.555116 0.481482 0.452534 0.373735
C20   C     C_R   0.540123 0.493042 0.525001 0.378868
C21   C     C_R   0.009009 0.777056 0.532612 -0.064689
C22   C     C_R   0.018578 0.769002 0.457722 -0.067640
C23   C     C_R   0.509008 0.277056 0.532612 -0.064690
C24   C     C_R   0.518577 0.269002 0.457722 -0.067640
C25   C     C_R   0.984247 0.557922 0.537407 0.013451
C26   C     C_R   0.004559 0.549360 0.465720 0.016601
C27   C     C_R   0.484247 0.057922 0.537407 0.013451
C28   C     C_R   0.504559 0.049359 0.465721 0.016600
C29   C     C_R   0.959655 0.451764 0.573130 -0.084329
C30   C     C_R   0.017322 0.432485 0.437256 -0.104327
C31   C     C_R   0.459655 0.951764 0.573131 -0.084325
C32   C     C_R   0.517321 0.932484 0.437256 -0.104327
C33   C     C_R   0.968150 0.337559 0.542725 -0.098526
C34   C     C_R   0.998692 0.327889 0.475447 -0.101235
C35   C     C_R   0.468149 0.837559 0.542726 -0.098522
C36   C     C_R   0.498690 0.827888 0.475447 -0.101232
C37   C     C_2   0.257603 0.936833 0.913761 -0.100344
C38   C     C_2   0.777055 0.852922 0.064910 -0.107039
C39   C     C_2   0.757603 0.436833 0.913761 -0.100344
C40   C     C_2   0.277055 0.352922 0.064910 -0.107039
C41   C     C_2   0.272590 0.988296 0.066388 -0.101634
C42   C     C_2   0.755818 0.886777 0.911564 -0.108728
C43   C     C_2   0.772590 0.488295 0.066388 -0.101633
C44   C     C_2   0.255818 0.386777 0.911563 -0.108728
C45   C     C_R   0.228683 0.878278 0.649852 0.553183
C46   C     C_R   0.771161 0.878599 0.350085 0.562031
C47   C     C_R   0.728682 0.378277 0.649851 0.553183
C48   C     C_R   0.271161 0.378599 0.350085 0.562026
C49   C     C_2   0.233371 0.055975 0.022012 -0.165221
C50   C     C_2   0.819173 0.894781 0.943504 -0.140647
C51   C     C_2   0.733371 0.555975 0.022012 -0.165220
C52   C     C_2   0.319173 0.394780 0.943504 -0.140647
C53   C     C_2   0.219497 0.020893 0.948158 -0.149482
C54   C     C_2   0.830287 0.855617 0.017544 -0.162439
C55   C     C_2   0.719497 0.520893 0.948158 -0.149482
C56   C     C_2   0.330287 0.355617 0.017544 -0.162439
C57   C     C_2   0.043654 0.654743 0.933158 -0.096742
C58   C     C_2   0.017609 0.664925 0.087161 -0.107246
C59   C     C_2   0.543655 0.154744 0.933158 -0.096742
C60   C     C_2   0.517609 0.164925 0.087161 -0.107247
C61   C     C_2   0.041616 0.565831 0.053491 -0.147454
C62   C     C_2   0.065864 0.569228 0.979049 -0.164301
C63   C     C_2   0.541616 0.065831 0.053491 -0.147455
C64   C     C_2   0.565863 0.069227 0.979049 -0.164301
C65   C     C_R   0.027375 0.656254 0.645897 0.531503
C66   C     C_R   0.973793 0.653945 0.353016 0.530474
C67   C     C_R   0.527375 0.156254 0.645897 0.531502
C68   C     C_R   0.473793 0.153945 0.353016 0.530472
C69   C     C_R   0.239916 0.461842 0.849333 0.555375
C70   C     C_R   0.775892 0.518342 0.141389 0.549373
C71   C     C_R   0.739916 0.961842 0.849333 0.555375
C72   C     C_R   0.275892 0.018342 0.141389 0.549375
C73   C     C_R   0.228768 0.876478 0.851445 0.548759
C74   C     C_R   0.791314 0.827110 0.139224 0.543456
C75   C     C_R   0.728768 0.376478 0.851445 0.548759
C76   C     C_R   0.291314 0.327110 0.139224 0.543458
C77   C     C_R   0.062255 0.647547 0.858312 0.569566
C78   C     C_R   0.973053 0.652971 0.150472 0.535324
C79   C     C_R   0.562255 0.147547 0.858312 0.569566
C80   C     C_R   0.473053 0.152971 0.150473 0.535325
C81   C     C_2   0.256503 0.936521 0.586630 -0.108077
C82   C     C_2   0.743043 0.941384 0.411648 -0.121527
C83   C     C_2   0.756500 0.436512 0.586626 -0.108081
C84   C     C_2   0.243043 0.441384 0.411648 -0.121524
C85   C     C_2   0.261758 0.971740 0.434235 -0.103416
C86   C     C_2   0.735992 0.974245 0.564672 -0.112591
C87   C     C_2   0.761746 0.471688 0.434229 -0.103407
C88   C     C_2   0.235992 0.474248 0.564672 -0.112595
C89   C     C_2   0.312394 0.914672 0.470458 -0.174314
C90   C     C_2   0.681330 0.933315 0.525955 -0.143709
C91   C     C_2   0.812389 0.414648 0.470455 -0.174329
C92   C     C_2   0.181331 0.433313 0.525955 -0.143712
Cr1   Cr    Cr6+3 0.113970 0.508630 0.747920 1.035280
Cr2   Cr    Cr6+3 0.886030 0.508630 0.252080 1.022631
Cr3   Cr    Cr6+3 0.613970 0.008630 0.747920 1.035281
Cr4   Cr    Cr6+3 0.386030 0.008630 0.252080 1.022629
Cr5   Cr    Cr6+3 0.269200 0.666740 0.749850 1.016466
Cr6   Cr    Cr6+3 0.730800 0.666740 0.250150 1.055440
Cr7   Cr    Cr6+3 0.769200 0.166740 0.749850 1.016465
Cr8   Cr    Cr6+3 0.230800 0.166740 0.250150 1.055436
Cr9   Cr    Cr6+3 0.112300 0.820070 0.749800 1.034282
Cr10  Cr    Cr6+3 0.887700 0.820070 0.250200 1.028577
Cr11  Cr    Cr6+3 0.612300 0.320070 0.749800 1.034283
Cr12  Cr    Cr6+3 0.387700 0.320070 0.250200 1.028574
H1    H     H_    0.361580 0.889551 0.444700 0.174211
H2    H     H_    0.629149 0.922346 0.549777 0.190722
H3    H     H_    0.861582 0.389555 0.444703 0.174213
H4    H     H_    0.129151 0.422339 0.549779 0.190725
H5    H     H_    0.171775 0.057947 0.924305 0.155238
H6    H     H_    0.884423 0.841194 0.035216 0.131878
H7    H     H_    0.671774 0.557946 0.924306 0.155238
H8    H     H_    0.384423 0.341193 0.035216 0.131878
H9    H     H_    0.301690 0.909247 0.048681 0.115137
H10   H     H_    0.712950 0.833216 0.934779 0.089394
H11   H     H_    0.801689 0.409245 0.048681 0.115136
H12   H     H_    0.212950 0.333215 0.934779 0.089393
H13   H     H_    0.307559 0.903721 0.934399 0.106772
H14   H     H_    0.722618 0.870436 0.049620 0.103129
H15   H     H_    0.807560 0.403723 0.934399 0.106773
H16   H     H_    0.222618 0.370437 0.049620 0.103130
H17   H     H_    0.037987 0.476598 0.078669 0.158589
H18   H     H_    0.096748 0.492815 0.959864 0.133055
H19   H     H_    0.537987 0.976597 0.078669 0.158589
H20   H     H_    0.596747 0.992814 0.959864 0.133055
H21   H     H_    0.024992 0.755467 0.064707 0.103335
H22   H     H_    0.011115 0.730503 0.949996 0.103119
H23   H     H_    0.524992 0.255467 0.064707 0.103335
H24   H     H_    0.511116 0.230504 0.949996 0.103119
H25   H     H_    0.320823 0.786540 0.559190 0.148271
H26   H     H_    0.663082 0.811541 0.435437 0.204525
H27   H     H_    0.820827 0.286533 0.559195 0.148278
H28   H     H_    0.163084 0.311538 0.435438 0.204521
H29   H     H_    0.210348 0.989092 0.458194 0.163931
H30   H     H_    0.789186 0.979036 0.542391 0.111620
H31   H     H_    0.710332 0.489015 0.458184 0.163918
H32   H     H_    0.289185 0.479044 0.542390 0.111619
H33   H     H_    0.235184 0.024609 0.571415 0.139749
H34   H     H_    0.770521 0.023565 0.428167 0.113071
H35   H     H_    0.735177 0.524593 0.571403 0.139760
H36   H     H_    0.270521 0.523565 0.428166 0.113071
H37   H     H_    0.054941 0.864918 0.362265 0.160123
H38   H     H_    0.998898 0.909336 0.618714 0.167703
H39   H     H_    0.554940 0.364919 0.362266 0.160122
H40   H     H_    0.498896 0.409335 0.618714 0.167703
H41   H     H_    0.041499 0.421528 0.385190 0.152046
H42   H     H_    0.935736 0.456755 0.625703 0.139203
H43   H     H_    0.541498 0.921527 0.385190 0.152046
H44   H     H_    0.435736 0.956755 0.625703 0.139203
H45   H     H_    0.951017 0.256785 0.571476 0.167355
H46   H     H_    0.005283 0.239782 0.451592 0.218837
H47   H     H_    0.451015 0.756785 0.571476 0.167355
H48   H     H_    0.505280 0.739782 0.451591 0.218837
H49   H     H_    0.203766 0.132721 0.042559 0.136082
H50   H     H_    0.863160 0.941374 0.917336 0.157801
H51   H     H_    0.703767 0.632723 0.042559 0.136081
H52   H     H_    0.363160 0.441374 0.917336 0.157801
O1    O     O_R   0.043230 0.549300 0.667990 -0.518409
O2    O     O_R   0.956770 0.549300 0.332010 -0.529008
O3    O     O_R   0.543230 0.049300 0.667990 -0.518410
O4    O     O_R   0.456770 0.049300 0.332010 -0.529012
O5    O     O_R   0.262920 0.788600 0.824420 -0.498623
O6    O     O_R   0.737080 0.788600 0.175580 -0.515129
O7    O     O_R   0.762920 0.288600 0.824420 -0.498623
O8    O     O_R   0.237080 0.288600 0.175580 -0.515128
O9    O     O_R   0.167530 0.905110 0.830340 -0.518350
O10   O     O_R   0.832470 0.905110 0.169660 -0.486777
O11   O     O_R   0.667530 0.405110 0.830340 -0.518349
O12   O     O_R   0.332470 0.405110 0.169660 -0.486776
O13   O     O_R   0.054010 0.748440 0.822860 -0.497038
O14   O     O_R   0.945990 0.748440 0.177140 -0.516997
O15   O     O_R   0.554010 0.248440 0.822860 -0.497038
O16   O     O_R   0.445990 0.248440 0.177140 -0.516996
O17   O     O_3   0.165160 0.665150 0.749190 -0.286436
O18   O     O_3   0.834840 0.665150 0.250810 -0.309522
O19   O     O_3   0.665160 0.165150 0.749190 -0.286436
O20   O     O_3   0.334840 0.165150 0.250810 -0.309535
O21   O     O_R   0.178620 0.457600 0.674100 -0.476184
O22   O     O_R   0.821380 0.457600 0.325900 -0.490199
O23   O     O_R   0.678620 0.957600 0.674100 -0.476183
O24   O     O_R   0.321380 0.957600 0.325900 -0.490195
O25   O     O_R   0.284680 0.542100 0.669460 -0.514835
O26   O     O_R   0.715320 0.542100 0.330540 -0.450885
O27   O     O_R   0.784680 0.042100 0.669460 -0.514836
O28   O     O_R   0.215320 0.042100 0.330540 -0.450878
O29   O     O_R   0.262860 0.790390 0.676650 -0.518966
O30   O     O_R   0.737140 0.790390 0.323350 -0.494299
O31   O     O_R   0.762860 0.290390 0.676650 -0.518966
O32   O     O_R   0.237140 0.290390 0.323350 -0.494310
O33   O     O_R   0.167460 0.907030 0.670940 -0.482722
O34   O     O_R   0.832540 0.907030 0.329060 -0.500555
O35   O     O_R   0.667460 0.407030 0.670940 -0.482722
O36   O     O_R   0.332540 0.407030 0.329060 -0.500554
O37   O     O_R   0.053950 0.750220 0.675100 -0.503743
O38   O     O_R   0.946050 0.750220 0.324900 -0.494723
O39   O     O_R   0.553950 0.250220 0.675100 -0.503743
O40   O     O_R   0.446050 0.250220 0.324900 -0.494724
O41   O     O_R   0.043300 0.547370 0.827390 -0.502992
O42   O     O_R   0.956700 0.547370 0.172610 -0.516547
O43   O     O_R   0.543300 0.047370 0.827390 -0.502992
O44   O     O_R   0.456700 0.047370 0.172610 -0.516547
O45   O     O_R   0.178690 0.455820 0.821860 -0.512725
O46   O     O_R   0.821310 0.455820 0.178140 -0.483610
O47   O     O_R   0.678690 0.955820 0.821860 -0.512725
O48   O     O_R   0.321310 0.955820 0.178140 -0.483608
O49   O     O_R   0.284750 0.540170 0.828860 -0.504710
O50   O     O_R   0.715250 0.540170 0.171140 -0.497122
O51   O     O_R   0.784750 0.040170 0.828860 -0.504711
O52   O     O_R   0.215250 0.040170 0.171140 -0.497120
F1    F     F_    0.082913 0.076265 0.414905 -0.650083
F2    F     F_    0.052708 0.099735 0.558511 -0.647299
F3    F     F_    0.582910 0.576267 0.414905 -0.650081
F4    F     F_    0.552705 0.599736 0.558511 -0.647295

loop_
_geom_bond_atom_site_label_1
_geom_bond_atom_site_label_2
_ccdc_geom_bond_type
C70   O46   A    
C7    C83   D    
C14   H38   S    
Cr10  O14   S    
Cr1   O17   S    
C6    C82   D    
C87   C91   D    
C14   C18   A    
Cr9   O17   S    
C35   C36   A    
C74   O10   A    
C6    H26   S    
C43   C51   D    
Cr7   O31   S    
Cr8   O52   S    
Cr9   O33   S    
C57   C62   D    
Cr12  O20   S    
C32   H43   S    
Cr11  O11   S    
C18   F2    S    
C12   C23   A    
C51   H51   S    
C59   C64   D    
C50   C54   S    
Cr11  O39   S    
C60   C63   D    
Cr3   O3    S    
C32   C36   A    
C14   C21   A    
C75   O7    A    
Cr8   O32   S    
C46   O34   A    
C48   O32   A    
C17   F1    S    
C2    O26   A    
Cr6   O18   S    
C49   C53   S    
C9    C22   A    
Cr5   O29   S    
Cr3   O47   S    
C80   O44   A    
C29   C33   A    
C11   C24   A    
C78   O14   A    
C54   H6    S    
C61   H17   S    
Cr2   O22   S    
C79   O15   A    
C3    O23   A    
C9    C66   S    
C20   F4    S    
Cr3   O19   S    
C82   H34   S    
C75   O11   A    
C43   H11   S    
C46   C82   S    
C1    O21   A    
C92   H4    S    
C39   C55   D    
C88   C92   D    
C40   C56   D    
C71   O47   A    
Cr8   O20   S    
C73   O5    A    
C23   C24   A    
C29   H42   S    
Cr9   O13   S    
C8    C92   S    
C39   C75   S    
Cr1   O45   S    
Cr7   O27   S    
C72   O48   A    
C37   C53   D    
C44   C52   D    
C1    C88   S    
C5    H25   S    
C86   H30   S    
Cr10  O10   S    
C21   C22   A    
C3    C86   S    
Cr11  O15   S    
C61   C62   S    
C35   H47   S    
C4    O24   A    
C67   O39   A    
Cr10  O38   S    
C41   C49   D    
Cr6   O6    S    
Cr9   O37   S    
C9    C26   A    
Cr4   O48   S    
C65   O37   A    
C10   C21   A    
C25   C29   A    
C69   O45   A    
C12   C67   S    
C45   C81   S    
C19   F3    S    
C79   O43   A    
C30   C34   A    
C12   C27   A    
C27   C31   A    
C87   H31   S    
C28   C32   A    
Cr5   O17   S    
C88   H32   S    
C72   O52   A    
C86   C90   D    
C59   C79   S    
C57   H22   S    
C74   O6    A    
Cr1   O21   S    
Cr3   O23   S    
C4    C85   S    
C51   C55   S    
C59   H24   S    
C64   H20   S    
C4    O28   A    
C48   C84   S    
Cr7   O51   S    
Cr2   O42   S    
Cr6   O26   S    
C15   C19   A    
C42   H10   S    
Cr8   O8    S    
C8    H28   S    
C15   H39   S    
C57   C77   S    
Cr12  O12   S    
C5    C81   D    
C38   C54   D    
C16   C20   A    
C7    C91   S    
Cr11  O19   S    
C17   C18   A    
Cr12  O40   S    
Cr7   O19   S    
C2    C87   S    
C68   O40   A    
C85   C89   D    
C46   O30   A    
Cr1   O1    S    
C66   O2    A    
C90   H2    S    
C42   C50   D    
C41   C72   S    
Cr2   O46   S    
C31   H44   S    
C50   H50   S    
C10   C25   A    
C65   O1    A    
C15   C24   A    
C40   H16   S    
C73   O9    A    
Cr2   O18   S    
C26   C30   A    
C16   C23   A    
Cr5   O5    S    
C83   H35   S    
Cr7   O7    S    
C76   O8    A    
C55   H7    S    
Cr11  O35   S    
C80   O16   A    
C47   O31   A    
C68   O4    A    
Cr12  O16   S    
C62   H18   S    
C11   C68   S    
C30   H41   S    
C67   O3    A    
C38   C74   S    
C10   C65   S    
C49   H49   S    
Cr4   O44   S    
C77   O13   A    
C37   C73   S    
C60   C80   S    
C1    O25   A    
Cr4   O20   S    
C16   H40   S    
C8    C84   D    
C7    H27   S    
C13   H37   S    
C60   H23   S    
C36   H48   S    
C41   H9    S    
C47   C83   S    
Cr2   O2    S    
C63   H19   S    
Cr5   O25   S    
Cr10  O18   S    
C70   O50   A    
C43   C70   S    
C78   O42   A    
C69   O49   A    
C13   C17   A    
Cr4   O24   S    
C19   C20   A    
Cr4   O4    S    
C25   C26   A    
Cr6   O30   S    
C6    C90   S    
Cr9   O9    S    
C45   O29   A    
C3    O27   A    
C11   C28   A    
C58   C61   D    
C39   H15   S    
Cr1   O41   S    
C71   O51   A    
C42   C71   S    
Cr10  O34   S    
C33   H45   S    
C33   C34   A    
C13   C22   A    
C76   O12   A    
C31   C35   A    
C34   H46   S    
C47   O35   A    
C52   H52   S    
Cr8   O28   S    
C48   O36   A    
C58   C78   S    
C63   C64   S    
C38   H14   S    
C40   C76   S    
C37   H13   S    
C44   H12   S    
C58   H21   S    
Cr3   O43   S    
C89   H1    S    
C84   H36   S    
C81   H33   S    
C45   O33   A    
C44   C69   S    
Cr6   O50   S    
C53   H5    S    
C2    O22   A    
Cr5   O49   S    
C66   O38   A    
C77   O41   A    
C56   H8    S    
C5    C89   S    
C52   C56   S    
C85   H29   S    
C27   C28   A    
C91   H3    S    
Cr12  O36   S    
