data_mof_unit_54100.cif
_audit_creation_date              2013-03-05T15:57:56-0500
_audit_creation_method            fapswitch 2.2
_symmetry_space_group_name_H-M    P1
_symmetry_Int_Tables_number       1
_space_group_crystal_system       triclinic
_cell_length_a                    15.078327
_cell_length_b                    15.199506
_cell_length_c                    17.000412
_cell_angle_alpha                 108.045728
_cell_angle_beta                  105.838668
_cell_angle_gamma                 109.231787
_cell_volume                      3178.10239413

loop_
_atom_site_label
_atom_site_type_symbol
_atom_site_description
_atom_site_fract_x
_atom_site_fract_y
_atom_site_fract_z
_atom_type_partial_charge
C1    C     C_R   0.091190 0.278074 0.038781 -0.140265
C2    C     C_R   0.912848 0.710708 0.923354 -0.149396
H1    H     H_    0.170150 0.294299 0.074879 0.111914
H2    H     H_    0.835701 0.685540 0.874566 0.115222
N1    N     N_R   0.055660 0.348550 0.045620 -0.047535
N2    N     N_R   0.944340 0.651450 0.954380 -0.045919
C3    C     C_R   0.937177 0.452510 0.736644 -0.116022
C4    C     C_R   0.063996 0.488730 0.256312 -0.119909
H3    H     H_    0.859247 0.404463 0.685028 0.103909
H4    H     H_    0.142247 0.512561 0.301467 0.096426
N3    N     N_R   0.960830 0.507850 0.823700 -0.043388
N4    N     N_R   0.039170 0.492150 0.176300 -0.044962
C5    C     C_R   0.720363 0.218530 0.826395 0.331124
C6    C     C_R   0.260948 0.793170 0.184352 0.341471
N5    N     N_R   0.811290 0.303410 0.871650 -0.089873
N6    N     N_R   0.188710 0.696590 0.128350 -0.087838
C7    C     C_R   0.299843 0.594969 0.003558 -0.120153
C8    C     C_R   0.735076 0.459675 0.045427 -0.101222
H5    H     H_    0.328147 0.653703 0.981209 0.137686
H6    H     H_    0.710464 0.417306 0.082407 0.115021
N7    N     N_R   0.205200 0.552990 0.997670 -0.043342
N8    N     N_R   0.794800 0.447010 0.002330 -0.035619
C9    C     C_R   0.726833 0.313176 0.749671 -0.220797
C10   C     C_R   0.250242 0.698488 0.262878 -0.196405
H7    H     H_    0.704444 0.344066 0.702387 0.142309
H8    H     H_    0.268275 0.672509 0.314951 0.133885
N9    N     N_R   0.814800 0.361830 0.823700 -0.059820
N10   N     N_R   0.185200 0.638170 0.176300 -0.057821
C11   C     C_R   0.293617 0.496540 0.077351 -0.120742
C12   C     C_R   0.750116 0.561659 0.973317 -0.107300
H9    H     H_    0.314942 0.461658 0.121241 0.111522
H10   H     H_    0.742251 0.615429 0.946172 0.112056
N11   N     N_R   0.201680 0.494570 0.045620 -0.046147
N12   N     N_R   0.798320 0.505430 0.954380 -0.046850
C13   C     C_R   0.110039 0.536440 0.812895 -0.126373
C14   C     C_R   0.891980 0.403454 0.179664 -0.113955
H11   H     H_    0.191868 0.565024 0.830849 0.095554
H12   H     H_    0.812614 0.346970 0.154282 0.123113
N13   N     N_R   0.068420 0.560530 0.871650 -0.037832
N14   N     N_R   0.931580 0.439470 0.128350 -0.036901
C15   C     C_R   0.918660 0.195499 0.955864 -0.076357
C16   C     C_R   0.083937 0.797455 0.003337 -0.084996
H13   H     H_    0.840311 0.136391 0.912753 0.147591
H14   H     H_    0.163035 0.854205 0.030541 0.177643
N15   N     N_R   0.948070 0.295860 0.997670 -0.037222
N16   N     N_R   0.051930 0.704140 0.002330 -0.050994
C17   C     C_R   0.005655 0.181748 0.983512 0.018727
C18   C     C_R   0.998458 0.802310 0.953655 0.022097
C19   C     C_R   0.029320 0.466921 0.727573 0.045775
C20   C     C_R   0.973081 0.432983 0.260548 0.043450
C21   C     C_R   0.666126 0.224021 0.750513 -0.097250
C22   C     C_R   0.297487 0.796331 0.269092 -0.107106
C23   C     C_R   0.356451 0.560531 0.052526 0.042922
C24   C     C_R   0.705404 0.530485 0.026369 0.025173
C25   C     C_R   0.917679 0.913243 0.961124 -0.209794
C26   C     C_R   0.077163 0.059561 0.949096 -0.230395
H15   H     H_    0.858672 0.858538 0.970466 0.131950
H16   H     H_    0.136692 0.116202 0.941978 0.130812
H17   H     H_    0.711942 0.909821 0.885570 0.171969
H18   H     H_    0.284334 0.083696 0.019152 0.129746
C27   C     C_R   0.995375 0.891930 0.944370 0.072387
C28   C     C_R   0.001926 0.082507 0.970957 0.078619
C29   C     C_R   0.074961 0.963511 0.935373 0.032810
C30   C     C_R   0.921266 0.008732 0.977341 0.022062
C31   C     C_R   0.738514 0.969136 0.953525 -0.132190
C32   C     C_R   0.260389 0.010549 0.962697 -0.130019
Ni1   Ni    Ni4+2 0.119340 0.493420 0.109960 0.209561
Ni2   Ni    Ni4+2 0.880660 0.506580 0.890040 0.214072
Ni3   Ni    Ni4+2 0.872590 0.372590 0.000000 0.285643
Ni4   Ni    Ni4+2 0.127410 0.627410 0.000000 0.265308
C33   C     C_R   0.699361 0.060396 0.073158 -0.060207
C34   C     C_R   0.306786 0.891390 0.871236 -0.060211
H19   H     H_    0.488273 0.617046 0.442919 0.197943
H20   H     H_    0.522611 0.434058 0.623661 0.195957
C35   C     C_R   0.490945 0.679390 0.346169 -0.183872
C36   C     C_R   0.521195 0.386929 0.729839 -0.183536
H21   H     H_    0.476500 0.741792 0.382116 0.149966
H22   H     H_    0.511122 0.310541 0.690093 0.145743
C37   C     C_R   0.502213 0.669894 0.265523 -0.118796
C38   C     C_R   0.527447 0.414627 0.818248 -0.106474
H23   H     H_    0.496064 0.725221 0.239453 0.119697
H24   H     H_    0.522362 0.359202 0.846456 0.122606
C39   C     C_R   0.521051 0.589112 0.218660 0.073820
C40   C     C_R   0.540468 0.513675 0.869995 0.074132
C41   C     C_R   0.528933 0.518381 0.253987 -0.311150
C42   C     C_R   0.545175 0.583761 0.831548 -0.334696
H25   H     H_    0.542392 0.455419 0.217311 0.170002
H26   H     H_    0.554600 0.659895 0.871605 0.169503
C43   C     C_R   0.516840 0.526903 0.334760 0.406044
C44   C     C_R   0.539284 0.556545 0.742693 0.401299
C45   C     C_R   0.497861 0.608330 0.380567 -0.193953
C46   C     C_R   0.527553 0.457391 0.692294 -0.200452
C47   C     C_R   0.614281 0.564712 0.120361 -0.245632
C48   C     C_R   0.466947 0.561385 0.976945 -0.238301
C49   C     C_R   0.621028 0.547125 0.037023 0.065163
C50   C     C_R   0.456107 0.572918 0.057831 0.060665
C51   C     C_R   0.545960 0.543920 0.963779 0.051874
C52   C     C_R   0.530485 0.576582 0.131643 0.057069
C53   C     C_R   0.666103 0.984841 0.985271 0.021010
C54   C     C_R   0.335780 0.986290 0.942506 -0.033655
C55   C     C_R   0.965222 0.398634 0.331011 0.114467
C56   C     C_R   0.038128 0.424554 0.641538 0.125349
C57   C     C_R   0.140689 0.444987 0.555079 -0.199084
C58   C     C_R   0.862064 0.330045 0.404387 -0.194000
C59   C     C_R   0.134956 0.456708 0.637759 -0.172795
C60   C     C_R   0.868448 0.351146 0.331857 -0.190825
C61   C     C_R   0.947855 0.366053 0.560419 -0.265466
C62   C     C_R   0.055168 0.419180 0.401335 -0.262535
C63   C     C_R   0.952713 0.362814 0.479477 0.174476
C64   C     C_R   0.049954 0.405744 0.477380 0.175982
H27   H     H_    0.130352 0.453595 0.401369 0.127282
H28   H     H_    0.872536 0.334704 0.560850 0.120768
H29   H     H_    0.215924 0.476343 0.553999 0.152769
H30   H     H_    0.786949 0.296945 0.405309 0.153250
C65   C     C_R   0.583401 0.139238 0.670620 0.167150
C66   C     C_R   0.376605 0.882069 0.349912 0.170992
C67   C     C_R   0.555459 0.999973 0.440681 -0.223317
C68   C     C_R   0.403931 0.021830 0.580393 -0.218882
C69   C     C_R   0.477377 0.925020 0.357270 -0.099402
C70   C     C_R   0.482517 0.098931 0.663494 -0.095794
C71   C     C_R   0.351017 0.913329 0.422723 -0.260887
C72   C     C_R   0.608107 0.104562 0.597897 -0.264620
C73   C     C_R   0.427907 0.988522 0.505969 0.174386
C74   C     C_R   0.531001 0.030939 0.514919 0.180163
H31   H     H_    0.584282 0.938169 0.941917 0.124496
H32   H     H_    0.416789 0.040836 0.982501 0.123248
H33   H     H_    0.465056 0.128281 0.721068 0.137501
H34   H     H_    0.495477 0.898246 0.299596 0.136826
H35   H     H_    0.634326 0.032811 0.447439 0.134956
H36   H     H_    0.325095 0.989799 0.573780 0.136333
H37   H     H_    0.643334 0.072187 0.097990 0.115970
H38   H     H_    0.365295 0.872609 0.856000 0.122986
C75   C     C_R   0.805002 0.120284 0.129200 -0.114319
C76   C     C_R   0.202296 0.820757 0.819645 -0.107977
H39   H     H_    0.830575 0.177084 0.197610 0.123675
H40   H     H_    0.179893 0.747233 0.764448 0.122855
C77   C     C_R   0.877755 0.105653 0.097534 -0.104303
C78   C     C_R   0.126619 0.844806 0.839339 -0.135018
H41   H     H_    0.959351 0.151972 0.142071 0.120116
H42   H     H_    0.045979 0.789220 0.798590 0.126061
C79   C     C_R   0.844934 0.029913 0.009315 0.062506
C80   C     C_R   0.154997 0.939638 0.911690 0.083923
N17   N     N_R   0.522958 0.452845 0.369462 0.236011
O1    O     O_R   0.508616 0.458579 0.442623 -0.371835
O2    O     O_R   0.541387 0.377964 0.327454 -0.404214
N18   N     N_R   0.544890 0.629033 0.703985 0.230046
O3    O     O_R   0.550002 0.718572 0.748701 -0.432999
O4    O     O_R   0.544448 0.606073 0.623476 -0.376590
H43   H     H_    0.673564 0.567680 0.175819 0.140382
H44   H     H_    0.407209 0.554493 0.919133 0.132904
H45   H     H_    0.797583 0.333427 0.278418 0.134679
H46   H     H_    0.206206 0.497686 0.698787 0.125113
H47   H     H_    0.687619 0.137628 0.605753 0.132680
H48   H     H_    0.271613 0.877733 0.414425 0.137192
N19   N     N_R   0.675011 0.157918 0.867587 0.211171
O5    O     O_R   0.709082 0.196240 0.955758 -0.456734
O6    O     O_R   0.598023 0.065473 0.817646 -0.422241
N20   N     N_R   0.311544 0.866810 0.155835 0.207395
O7    O     O_R   0.354206 0.965810 0.208357 -0.399501
O8    O     O_R   0.322310 0.834883 0.080256 -0.461092

loop_
_geom_bond_atom_site_label_1
_geom_bond_atom_site_label_2
_geom_bond_distance
_ccdc_geom_bond_type
C10   C22   1.376210 A    
C12   H10   1.078249 S    
C75   C77   1.396981 A    
C4    C20   1.388818 A    
N19   O6    1.300422 A    
C61   C63   1.384448 A    
C61   H28   1.080326 S    
C47   H43   1.084905 S    
C38   C40   1.403340 A    
C17   C28   1.436019 S    
C58   C60   1.386358 A    
C70   H33   1.083447 S    
C73   C74   1.416015 A    
C53   H31   1.082456 S    
C3    N3    1.329677 A    
C12   C24   1.370662 A    
C11   C23   1.373790 A    
C6    N20   1.430169 S    
C57   C64   1.400070 A    
C54   H32   1.082555 S    
C40   C51   1.486250 S    
C57   H29   1.083977 S    
C67   C74   1.396701 A    
C36   H22   1.081409 S    
C67   C69   1.378049 A    
C58   C63   1.396811 A    
N3    N13   1.398367 A    
C42   H26   1.083350 S    
N7    N11   1.377244 A    
C30   C79   1.483574 S    
H20   C46   1.082347 S    
N17   O1    1.301313 A    
C11   N11   1.329676 A    
C56   C59   1.405401 A    
N17   O2    1.302198 A    
C16   N16   1.332066 A    
C32   C54   1.398843 A    
C27   C29   1.410813 A    
C5    N19   1.432771 S    
C28   C30   1.413296 A    
N9    Ni2   1.873680 S    
C5    C21   1.369568 A    
C34   C76   1.397199 A    
N13   Ni4   1.885828 S    
C6    C22   1.373924 A    
C9    C21   1.369839 A    
C26   H16   1.084556 S    
C39   C52   1.484268 S    
C50   C52   1.408131 A    
C13   C19   1.393331 A    
C6    N6    1.327579 A    
C9    N9    1.325176 A    
C43   C45   1.406391 A    
C67   H35   1.084137 S    
N8    Ni3   1.878433 S    
N6    N10   1.377248 A    
N1    Ni1   1.873133 S    
C26   C28   1.399005 A    
C69   H34   1.083274 S    
C55   C62   1.403854 A    
N2    Ni2   1.873132 S    
H19   C45   1.082289 S    
H18   C32   1.083000 S    
C47   C49   1.396793 A    
C65   C72   1.386393 A    
C23   C50   1.425010 S    
N20   O8    1.300845 A    
C15   H13   1.077111 S    
C2    N2    1.324501 A    
C16   H14   1.074423 S    
N8    N12   1.377247 A    
C34   H38   1.082469 S    
N18   O4    1.301030 A    
C22   C66   1.407492 S    
N5    N9    1.377247 A    
N5    Ni3   1.886388 S    
N4    Ni1   1.864374 S    
C78   C80   1.407695 A    
C71   C73   1.372062 A    
C71   H48   1.086213 S    
C12   N12   1.314862 A    
C41   H25   1.083109 S    
N15   Ni3   1.878147 S    
C66   C69   1.393839 A    
C10   N10   1.323794 A    
C14   N14   1.334950 A    
N10   Ni1   1.873681 S    
N6    Ni4   1.886387 S    
C31   C53   1.397815 A    
C38   H24   1.083222 S    
N14   Ni3   1.885827 S    
N12   Ni2   1.864672 S    
C19   C56   1.466443 S    
C37   H23   1.082615 S    
C41   C43   1.406292 A    
C1    C17   1.389998 A    
C76   H40   1.082637 S    
C48   C51   1.362738 A    
C2    C18   1.370707 A    
C43   N17   1.440051 S    
N1    N15   1.398369 A    
C21   C65   1.411797 S    
C1    H1    1.081155 S    
N4    N14   1.398369 A    
C13   N13   1.338855 A    
C76   C78   1.398306 A    
C68   H36   1.083786 S    
C31   C79   1.406299 A    
C44   C46   1.406537 A    
C4    N4    1.331066 A    
C25   C30   1.370283 A    
C15   C17   1.374833 A    
C26   C29   1.392725 A    
C56   C61   1.401251 A    
C57   C59   1.391489 A    
C16   C18   1.373709 A    
C48   C50   1.393034 A    
C77   H41   1.083174 S    
C3    C19   1.392653 A    
C24   C49   1.422937 S    
C78   H42   1.083052 S    
C36   C46   1.397461 A    
C58   H30   1.084141 S    
C4    H4    1.079083 S    
C39   C41   1.405654 A    
C5    N5    1.334197 A    
C42   C44   1.405794 A    
N20   O7    1.300654 A    
C72   H47   1.087146 S    
C1    N1    1.335250 A    
C72   C74   1.365125 A    
C7    C23   1.368198 A    
C14   C20   1.387742 A    
N3    Ni2   1.864372 S    
N11   Ni1   1.864671 S    
N18   O3    1.301524 A    
C34   C54   1.397284 A    
C55   C60   1.405150 A    
C3    H3    1.076520 S    
C59   H46   1.081172 S    
C77   C79   1.403325 A    
C60   H45   1.081007 S    
N2    N16   1.398370 A    
C13   H11   1.078619 S    
C8    N8    1.331087 A    
C36   C38   1.396271 A    
C40   C42   1.404973 A    
C33   C75   1.397385 A    
C49   C51   1.410958 A    
C32   C80   1.406905 A    
C35   C45   1.397014 A    
C48   H44   1.085864 S    
C62   H27   1.080540 S    
N7    Ni4   1.878433 S    
C25   H15   1.086190 S    
C44   N18   1.439550 S    
C63   C64   1.410504 A    
H17   C31   1.082613 S    
C37   C39   1.403645 A    
C10   H8    1.081418 S    
C18   C27   1.433023 S    
C33   C53   1.396870 A    
C2    H2    1.082150 S    
C25   C27   1.390508 A    
C14   H12   1.080348 S    
C7    H5    1.082190 S    
C29   C80   1.487729 S    
C62   C64   1.388409 A    
C8    H6    1.080930 S    
C68   C73   1.400437 A    
C9    H7    1.081990 S    
C68   C70   1.385277 A    
N16   Ni4   1.878148 S    
C8    C24   1.384801 A    
C33   H37   1.082377 S    
C20   C55   1.464863 S    
C11   H9    1.080581 S    
C65   C70   1.394083 A    
C35   H21   1.081738 S    
N19   O5    1.300616 A    
C75   H39   1.077240 S    
C15   N15   1.318847 A    
C66   C71   1.387052 A    
C35   C37   1.396455 A    
C47   C52   1.388089 A    
C7    N7    1.317672 A    
