data_mof_unit_47308.cif
_audit_creation_date              2012-12-11T16:12:54-0500
_audit_creation_method            fapswitch 2.2
_symmetry_space_group_name_H-M    P1
_symmetry_Int_Tables_number       1
_space_group_crystal_system       triclinic
_cell_length_a                    7.040379
_cell_length_b                    21.000721
_cell_length_c                    23.767067
_cell_angle_alpha                 90.0
_cell_angle_beta                  90.000032
_cell_angle_gamma                 90.000086
_cell_volume                      3514.03299169

loop_
_atom_site_label
_atom_site_type_symbol
_atom_type_description
_atom_site_fract_x
_atom_site_fract_y
_atom_site_fract_z
_atom_type_partial_charge
O1    O     O_R   0.615270 0.806540 0.192260 -0.534189
O2    O     O_R   0.384730 0.193460 0.807740 -0.533494
O3    O     O_R   0.384730 0.193460 0.692260 -0.534189
O4    O     O_R   0.615270 0.806540 0.307740 -0.533494
O5    O     O_R   0.115270 0.693460 0.307740 -0.534189
O6    O     O_R   0.884730 0.306540 0.692260 -0.533493
O7    O     O_R   0.884730 0.306540 0.807740 -0.534189
O8    O     O_R   0.115270 0.693460 0.192260 -0.533495
O9    O     O_R   0.285500 0.813970 0.307340 -0.540907
O10   O     O_R   0.714500 0.186030 0.692660 -0.534412
O11   O     O_R   0.714500 0.186030 0.807340 -0.540905
O12   O     O_R   0.285500 0.813970 0.192660 -0.534412
O13   O     O_R   0.785500 0.686030 0.192660 -0.540906
O14   O     O_R   0.214500 0.313970 0.807340 -0.534412
O15   O     O_R   0.214500 0.313970 0.692660 -0.540907
O16   O     O_R   0.785500 0.686030 0.307340 -0.534412
C1    C     C_R   0.453489 0.829021 0.326590 0.726325
C2    C     C_R   0.546202 0.170998 0.673464 0.730961
C3    C     C_R   0.546511 0.170979 0.826591 0.726324
C4    C     C_R   0.453798 0.829002 0.173464 0.730962
C5    C     C_R   0.953489 0.670979 0.173409 0.726325
C6    C     C_R   0.046202 0.329002 0.826535 0.730962
C7    C     C_R   0.046511 0.329021 0.673409 0.726325
C8    C     C_R   0.953798 0.670998 0.326535 0.730962
O17   O     O_3   0.448760 0.710460 0.250000 -0.368067
O18   O     O_3   0.551240 0.289540 0.750000 -0.368067
O19   O     O_3   0.948760 0.789540 0.250000 -0.368067
O20   O     O_3   0.051240 0.210460 0.750000 -0.368067
V1    V     V_3+5 0.173900 0.757330 0.250000 1.393790
V2    V     V_3+5 0.826100 0.242670 0.750000 1.393794
V3    V     V_3+5 0.673900 0.742670 0.250000 1.393791
V4    V     V_3+5 0.326100 0.257330 0.750000 1.393793
C9    C     C_3   0.044422 0.533209 0.548787 0.083613
C10   C     C_3   0.981597 0.469926 0.453159 0.082644
C11   C     C_3   0.955565 0.466790 0.048787 0.083611
C12   C     C_3   0.018415 0.530073 0.953160 0.082644
C13   C     C_3   0.544424 0.966791 0.951212 0.083610
C14   C     C_3   0.481599 0.030073 0.046841 0.082640
C15   C     C_3   0.455573 0.033210 0.451212 0.083612
C16   C     C_3   0.518408 0.969927 0.546840 0.082645
C17   C     C_3   0.864906 0.541010 0.511529 -0.237893
C18   C     C_3   0.160649 0.462201 0.490345 -0.245151
C19   C     C_3   0.135085 0.458986 0.011532 -0.237891
C20   C     C_3   0.839357 0.537800 0.990344 -0.245147
C21   C     C_3   0.364909 0.958989 0.988470 -0.237893
C22   C     C_3   0.660651 0.037798 0.009655 -0.245154
C23   C     C_3   0.635090 0.041013 0.488469 -0.237893
C24   C     C_3   0.339354 0.962201 0.509655 -0.245152
H1    H     H_    0.747502 0.573990 0.521485 0.129354
H2    H     H_    0.273713 0.427298 0.481355 0.123484
H3    H     H_    0.252484 0.426004 0.021489 0.129351
H4    H     H_    0.726299 0.572705 0.981353 0.123482
H5    H     H_    0.247506 0.926008 0.978514 0.129353
H6    H     H_    0.773716 0.072701 0.018645 0.123482
H7    H     H_    0.752491 0.073994 0.478513 0.129353
H8    H     H_    0.226292 0.927297 0.518645 0.123484
C25   C     C_1   0.961789 0.625409 0.372177 -0.210434
C26   C     C_1   0.041640 0.375102 0.628000 -0.208961
C27   C     C_1   0.038212 0.374591 0.872177 -0.210436
C28   C     C_1   0.958359 0.624897 0.128000 -0.208963
C29   C     C_1   0.461790 0.874590 0.127823 -0.210434
C30   C     C_1   0.541639 0.124898 0.872000 -0.208965
C31   C     C_1   0.538211 0.125409 0.627823 -0.210434
C32   C     C_1   0.458360 0.875103 0.372000 -0.208963
C33   C     C_3   0.172631 0.536042 0.495871 0.105761
C34   C     C_3   0.854465 0.467638 0.505889 0.107061
C35   C     C_3   0.827364 0.463959 0.995869 0.105757
C36   C     C_3   0.145538 0.532358 0.005893 0.107058
C37   C     C_3   0.672634 0.963957 0.004128 0.105760
C38   C     C_3   0.354466 0.032361 0.994110 0.107069
C39   C     C_3   0.327366 0.036042 0.504129 0.105759
C40   C     C_3   0.645537 0.967641 0.494108 0.107060
C41   C     C_3   0.993991 0.543030 0.458563 0.095547
C42   C     C_3   0.031627 0.460208 0.542960 0.082394
C43   C     C_3   0.006010 0.456969 0.958564 0.095550
C44   C     C_3   0.968371 0.539790 0.042961 0.082391
C45   C     C_3   0.493994 0.956968 0.041436 0.095546
C46   C     C_3   0.531629 0.039791 0.957040 0.082397
C47   C     C_3   0.506009 0.043032 0.541436 0.095548
C48   C     C_3   0.468373 0.960209 0.457039 0.082392
C49   C     C_1   0.972475 0.587942 0.410910 -0.074678
C50   C     C_1   0.040659 0.413468 0.589767 -0.044932
C51   C     C_1   0.027526 0.412058 0.910910 -0.074679
C52   C     C_1   0.959339 0.586531 0.089768 -0.044926
C53   C     C_1   0.472477 0.912057 0.089089 -0.074680
C54   C     C_1   0.540660 0.086532 0.910233 -0.044925
C55   C     C_1   0.527525 0.087943 0.589089 -0.074678
C56   C     C_1   0.459341 0.913469 0.410232 -0.044928
C57   C     C_3   0.073223 0.565039 0.606161 -0.363440
C58   C     C_3   0.068190 0.637880 0.602688 -0.306313
C59   C     C_3   0.061450 0.667693 0.661221 -0.780436
H9    H     H_    0.930120 0.652940 0.683613 0.226678
H10   H     H_    0.187380 0.652934 0.686193 0.229864
H11   H     H_    0.061774 0.720403 0.657425 0.219075
H12   H     H_    0.197952 0.655258 0.581248 0.204386
H13   H     H_    0.941632 0.653818 0.578534 0.194744
H14   H     H_    0.958286 0.548215 0.634578 0.175358
H15   H     H_    0.211489 0.549364 0.623960 0.163846
C60   C     C_3   0.945461 0.435558 0.397286 -0.362034
C61   C     C_3   0.992231 0.364297 0.400631 -0.306239
C62   C     C_3   0.944016 0.330533 0.345594 -0.772817
H16   H     H_    0.789662 0.334609 0.336570 0.227148
H17   H     H_    0.025849 0.351600 0.310222 0.228501
H18   H     H_    0.981148 0.279279 0.349044 0.219057
H19   H     H_    0.146146 0.357847 0.409248 0.191263
H20   H     H_    0.911142 0.341487 0.435167 0.190515
H21   H     H_    0.794211 0.442394 0.385364 0.171137
H22   H     H_    0.035681 0.457805 0.364336 0.177117
C63   C     C_3   0.926743 0.434961 0.106161 -0.363439
C64   C     C_3   0.931771 0.362121 0.102690 -0.306312
C65   C     C_3   0.938454 0.332311 0.161225 -0.780402
H23   H     H_    0.069765 0.347064 0.183629 0.226670
H24   H     H_    0.812499 0.347072 0.186187 0.229853
H25   H     H_    0.938128 0.279600 0.157431 0.219080
H26   H     H_    0.802027 0.344743 0.081241 0.204385
H27   H     H_    0.058352 0.346180 0.078548 0.194737
H28   H     H_    0.041671 0.451786 0.134581 0.175354
H29   H     H_    0.788472 0.450639 0.123955 0.163846
C66   C     C_3   0.054573 0.564444 0.897292 -0.362036
C67   C     C_3   0.007769 0.635703 0.900636 -0.306245
C68   C     C_3   0.056077 0.669477 0.845611 -0.772830
H30   H     H_    0.210454 0.665418 0.836619 0.227145
H31   H     H_    0.974348 0.648406 0.810222 0.228516
H32   H     H_    0.018890 0.720727 0.849058 0.219059
H33   H     H_    0.853836 0.642144 0.909227 0.191260
H34   H     H_    0.088777 0.658511 0.935189 0.190525
H35   H     H_    0.205834 0.557616 0.885378 0.171142
H36   H     H_    0.964384 0.542195 0.864334 0.177110
C69   C     C_3   0.573227 0.934962 0.893837 -0.363440
C70   C     C_3   0.568206 0.862122 0.897309 -0.306306
C71   C     C_3   0.561487 0.832311 0.838775 -0.780408
H37   H     H_    0.430155 0.847061 0.816380 0.226672
H38   H     H_    0.687419 0.847075 0.813805 0.229855
H39   H     H_    0.561827 0.779600 0.842569 0.219073
H40   H     H_    0.697965 0.844745 0.918751 0.204382
H41   H     H_    0.441642 0.846180 0.921459 0.194740
H42   H     H_    0.458288 0.951786 0.865421 0.175354
H43   H     H_    0.711491 0.950641 0.876039 0.163847
C72   C     C_3   0.445478 0.064435 0.102717 -0.362028
C73   C     C_3   0.492170 0.135702 0.099372 -0.306229
C74   C     C_3   0.444098 0.169447 0.154430 -0.772800
H44   H     H_    0.289782 0.165340 0.163503 0.227149
H45   H     H_    0.526097 0.148389 0.189773 0.228486
H46   H     H_    0.481133 0.220709 0.150975 0.219056
H47   H     H_    0.646052 0.142172 0.090713 0.191272
H48   H     H_    0.410943 0.158510 0.064863 0.190499
H49   H     H_    0.294244 0.057582 0.114652 0.171125
H50   H     H_    0.535752 0.042196 0.135659 0.177130
C75   C     C_3   0.426763 0.065039 0.393838 -0.363438
C76   C     C_3   0.431784 0.137880 0.397309 -0.306311
C77   C     C_3   0.438497 0.167691 0.338775 -0.780393
H51   H     H_    0.569826 0.152941 0.316379 0.226672
H52   H     H_    0.312561 0.152927 0.313806 0.229853
H53   H     H_    0.438157 0.220402 0.342570 0.219073
H54   H     H_    0.302025 0.155256 0.418752 0.204382
H55   H     H_    0.558350 0.153821 0.421459 0.194738
H56   H     H_    0.541701 0.048216 0.365420 0.175354
H57   H     H_    0.288498 0.049360 0.376040 0.163845
C78   C     C_3   0.554553 0.935558 0.602711 -0.362034
C79   C     C_3   0.507768 0.864297 0.599366 -0.306242
C80   C     C_3   0.556029 0.830529 0.654397 -0.772822
H58   H     H_    0.710394 0.834597 0.663405 0.227145
H59   H     H_    0.474247 0.851597 0.689778 0.228510
H60   H     H_    0.518870 0.779276 0.650949 0.219059
H61   H     H_    0.353843 0.857852 0.590762 0.191262
H62   H     H_    0.588816 0.841489 0.564821 0.190521
H63   H     H_    0.705809 0.942390 0.614629 0.171139
H64   H     H_    0.464347 0.957806 0.635664 0.177113
C81   C     C_3   0.679152 0.425947 0.512700 -0.353638
C82   C     C_3   0.583479 0.435828 0.570361 -0.321727
C83   C     C_3   0.514506 0.373029 0.595149 -0.708185
H65   H     H_    0.406808 0.350901 0.567164 0.217575
H66   H     H_    0.635030 0.339508 0.600697 0.224425
H67   H     H_    0.451040 0.382289 0.637011 0.228166
H68   H     H_    0.681771 0.458081 0.601160 0.198091
H69   H     H_    0.461366 0.468632 0.566122 0.187989
H70   H     H_    0.580381 0.437176 0.477982 0.144073
H71   H     H_    0.723873 0.375609 0.507630 0.177429
C84   C     C_3   0.360597 0.572976 0.491897 -0.380787
C85   C     C_3   0.338538 0.640590 0.467990 -0.283374
C86   C     C_3   0.510529 0.682207 0.481350 -0.805575
H72   H     H_    0.531014 0.686095 0.527571 0.223420
H73   H     H_    0.640394 0.661908 0.461862 0.237894
H74   H     H_    0.487896 0.730742 0.464021 0.216106
H75   H     H_    0.324808 0.637870 0.421522 0.207533
H76   H     H_    0.209189 0.663870 0.485034 0.190999
H77   H     H_    0.422114 0.575272 0.534824 0.170695
H78   H     H_    0.460109 0.546108 0.464512 0.173652
C87   C     C_3   0.320859 0.574045 0.012705 -0.353629
C88   C     C_3   0.416525 0.564164 0.070367 -0.321731
C89   C     C_3   0.485473 0.626964 0.095160 -0.708176
H79   H     H_    0.593170 0.649097 0.067179 0.217574
H80   H     H_    0.364938 0.660481 0.100708 0.224431
H81   H     H_    0.548933 0.617703 0.137023 0.228162
H82   H     H_    0.318235 0.541905 0.101164 0.198087
H83   H     H_    0.538652 0.531366 0.066128 0.187989
H84   H     H_    0.419632 0.562813 0.977989 0.144066
H85   H     H_    0.276150 0.624385 0.007632 0.177432
C90   C     C_3   0.639395 0.427027 0.991892 -0.380781
C91   C     C_3   0.661454 0.359414 0.967984 -0.283373
C92   C     C_3   0.489459 0.317797 0.981342 -0.805576
H86   H     H_    0.468971 0.313907 0.027562 0.223414
H87   H     H_    0.359597 0.338097 0.961854 0.237897
H88   H     H_    0.512091 0.269262 0.964012 0.216108
H89   H     H_    0.675188 0.362134 0.921516 0.207533
H90   H     H_    0.790801 0.336132 0.985028 0.190998
H91   H     H_    0.577871 0.424730 0.034818 0.170696
H92   H     H_    0.539889 0.453896 0.964506 0.173650
C93   C     C_3   0.179153 0.074051 0.987298 -0.353644
C94   C     C_3   0.083478 0.064166 0.929637 -0.321730
C95   C     C_3   0.014510 0.126963 0.904845 -0.708183
H93   H     H_    0.906816 0.149095 0.932828 0.217576
H94   H     H_    0.135038 0.160483 0.899293 0.224429
H95   H     H_    0.951043 0.117700 0.862984 0.228162
H96   H     H_    0.181768 0.041909 0.898840 0.198089
H97   H     H_    0.961361 0.031364 0.933879 0.187991
H98   H     H_    0.080384 0.062826 0.022017 0.144078
H99   H     H_    0.223877 0.124390 0.992363 0.177422
C96   C     C_3   0.860599 0.927023 0.008102 -0.380786
C97   C     C_3   0.838539 0.859410 0.032009 -0.283375
C98   C     C_3   0.010530 0.817792 0.018650 -0.805573
H100  H     H_    0.031017 0.813904 0.972430 0.223420
H101  H     H_    0.140394 0.838091 0.038139 0.237894
H102  H     H_    0.987896 0.769257 0.035978 0.216106
H103  H     H_    0.824806 0.862129 0.078477 0.207533
H104  H     H_    0.709190 0.836129 0.014965 0.190999
H105  H     H_    0.922118 0.924727 0.965175 0.170693
H106  H     H_    0.960111 0.953891 0.035488 0.173653
C99   C     C_3   0.820855 0.925952 0.487298 -0.353633
C100  C     C_3   0.916526 0.935832 0.429636 -0.321724
C101  C     C_3   0.985482 0.873032 0.404846 -0.708179
H107  H     H_    0.093178 0.850900 0.432829 0.217573
H108  H     H_    0.864949 0.839514 0.399298 0.224428
H109  H     H_    0.048946 0.882291 0.362984 0.228163
H110  H     H_    0.818237 0.958089 0.398838 0.198087
H111  H     H_    0.038650 0.968632 0.433875 0.187988
H112  H     H_    0.919626 0.937183 0.522015 0.144068
H113  H     H_    0.776140 0.875613 0.492370 0.177431
C102  C     C_3   0.139400 0.072975 0.508104 -0.380781
C103  C     C_3   0.161461 0.140589 0.532011 -0.283374
C104  C     C_3   0.989468 0.182206 0.518652 -0.805573
H114  H     H_    0.968983 0.186095 0.472431 0.223417
H115  H     H_    0.859604 0.161907 0.538139 0.237894
H116  H     H_    0.012101 0.230741 0.535981 0.216106
H117  H     H_    0.175194 0.137870 0.578478 0.207533
H118  H     H_    0.290809 0.163870 0.514966 0.190998
H119  H     H_    0.077878 0.075271 0.465178 0.170694
H120  H     H_    0.039890 0.046108 0.535491 0.173651

loop_
_geom_bond_atom_site_label_1
_geom_bond_atom_site_label_2
_ccdc_geom_bond_type
C87   H85   S    
O17   V3    S    
C7    C26   S    
C83   H65   S    
C14   C38   S    
O18   V4    S    
C88   C89   S    
C13   C37   S    
O12   V1    S    
O19   V1    S    
C92   H86   S    
C34   C81   S    
C37   C45   S    
C102  C103  S    
C10   C18   S    
C23   C47   S    
C71   H39   S    
C43   C51   S    
C44   C52   S    
C47   C55   S    
C80   H58   S    
C9    C33   S    
C58   H12   S    
C82   H69   S    
C86   H72   S    
C67   C68   S    
O16   V3    S    
C60   H22   S    
C30   C54   T    
C72   H49   S    
C61   H19   S    
C62   H16   S    
O8    V1    S    
C102  H119  S    
C27   C51   T    
C98   H102  S    
C35   C90   S    
C74   H45   S    
C1    C32   S    
C29   C53   T    
C67   H34   S    
C2    C31   S    
C38   C46   S    
C82   C83   S    
C3    C30   S    
C94   H96   S    
C34   C42   S    
C91   H89   S    
O1    V3    S    
C33   C41   S    
C78   H64   S    
O3    C2    A    
O2    V4    S    
C104  H114  S    
C81   C82   S    
C77   H53   S    
C17   H1    S    
C4    C29   S    
C20   C44   S    
C12   C66   S    
C16   C24   S    
C64   C65   S    
C90   H92   S    
C22   C37   S    
C16   C78   S    
C74   H44   S    
C69   H43   S    
C78   C79   S    
O11   V2    S    
C13   C69   S    
C91   C92   S    
C68   H32   S    
C96   C97   S    
C18   C33   S    
C14   C72   S    
C100  H111  S    
C79   H62   S    
C96   H106  S    
C65   H25   S    
C11   C19   S    
C75   H57   S    
C11   C63   S    
C88   H83   S    
C66   H36   S    
C46   C54   S    
O15   C7    A    
C21   C38   S    
C23   H7    S    
C45   C53   S    
C90   C91   S    
C62   H17   S    
O7    V2    S    
C76   H55   S    
C48   C56   S    
C103  H118  S    
C92   H87   S    
O12   C4    A    
C87   C88   S    
C42   C50   S    
C41   C49   S    
C97   C98   S    
C80   H59   S    
C69   H42   S    
C63   H29   S    
O8    C5    A    
O5    V1    S    
C82   H68   S    
C86   H73   S    
O17   V1    S    
C11   C44   S    
C83   H67   S    
C72   H50   S    
C18   C42   S    
C14   C22   S    
C40   C99   S    
O19   V3    S    
C89   H79   S    
O20   V4    S    
C73   C74   S    
C5    C28   S    
C65   H24   S    
C74   H46   S    
C73   H48   S    
C59   H9    S    
C22   C46   S    
C67   H33   S    
C19   C36   S    
C84   H78   S    
C33   C84   S    
C17   C41   S    
O6    V2    S    
C39   C47   S    
C40   C48   S    
C57   H14   S    
C102  H120  S    
C104  H115  S    
C39   C102  S    
C63   H28   S    
C89   H80   S    
C99   C100  S    
C12   C43   S    
C9    C57   S    
C59   H10   S    
C98   H100  S    
C83   H66   S    
O10   V2    S    
C95   H93   S    
C11   C35   S    
C77   H51   S    
O11   C3    A    
C22   H6    S    
C90   H91   S    
C93   C94   S    
C16   C47   S    
O13   C5    A    
C100  H110  S    
C101  H108  S    
C79   H61   S    
C66   C67   S    
O14   C6    A    
C68   H30   S    
C85   H76   S    
C88   H82   S    
C18   H2    S    
O4    C1    A    
O9    C1    A    
C95   H94   S    
C70   H40   S    
O18   V2    S    
C62   H18   S    
C76   H54   S    
C81   H70   S    
C103  H117  S    
C92   H88   S    
C25   C49   T    
C12   C20   S    
C35   C43   S    
C93   H99   S    
C24   C39   S    
C13   C21   S    
C71   H37   S    
C64   H27   S    
C81   H71   S    
C6    C27   S    
C80   H60   S    
C60   H21   S    
C85   C86   S    
C19   C43   S    
C15   C23   S    
C69   C70   S    
C8    C25   S    
C86   H74   S    
C87   H84   S    
C24   H8    S    
O1    C4    A    
C91   H90   S    
C16   C40   S    
C65   H23   S    
C31   C55   T    
O2    C3    A    
C37   C96   S    
O13   V3    S    
C70   H41   S    
O14   V4    S    
C71   H38   S    
O15   V4    S    
C73   H47   S    
C21   C45   S    
C72   C73   S    
C12   C36   S    
C58   H13   S    
C17   C34   S    
C20   H4    S    
C14   C45   S    
O9    V1    S    
C36   C44   S    
O7    C6    A    
C10   C60   S    
C13   C46   S    
C15   C75   S    
C61   H20   S    
C60   C61   S    
C57   H15   S    
C104  H116  S    
C93   H98   S    
C15   C48   S    
C24   C48   S    
C26   C50   T    
C70   C71   S    
C57   C58   S    
C89   H81   S    
C9    C17   S    
C100  C101  S    
C98   H101  S    
C75   C76   S    
C79   C80   S    
C59   H11   S    
C28   C52   T    
C19   H3    S    
C58   C59   S    
O5    C8    A    
C75   H56   S    
C36   C87   S    
O10   C2    A    
C94   H97   S    
O6    C7    A    
C97   H104  S    
O20   V2    S    
C103  C104  S    
C78   H63   S    
C97   H103  S    
C101  H109  S    
C77   H52   S    
O3    V4    S    
C23   C40   S    
C68   H31   S    
O4    V3    S    
C85   H75   S    
C10   C41   S    
C21   H5    S    
C84   C85   S    
C9    C42   S    
C95   H95   S    
C84   H77   S    
O16   C8    A    
C94   C95   S    
C10   C34   S    
C101  H107  S    
C38   C93   S    
C15   C39   S    
C76   C77   S    
C20   C35   S    
C61   C62   S    
C96   H105  S    
C99   H113  S    
C63   C64   S    
C99   H112  S    
C64   H26   S    
C32   C56   T    
C66   H35   S    
