data_mof_unit_35042.cif
_audit_creation_date              2012-12-10T18:11:07-0500
_audit_creation_method            fapswitch 2.2
_symmetry_space_group_name_H-M    P1
_symmetry_Int_Tables_number       1
_space_group_crystal_system       triclinic
_cell_length_a                    10.862203
_cell_length_b                    9.696029
_cell_length_c                    10.78302
_cell_angle_alpha                 90.986436
_cell_angle_beta                  90.231692
_cell_angle_gamma                 89.051072
_cell_volume                      1135.33814249

loop_
_atom_site_label
_atom_site_type_symbol
_atom_type_description
_atom_site_fract_x
_atom_site_fract_y
_atom_site_fract_z
_atom_type_partial_charge
C1    C     C_R   0.260673 0.500985 0.502050 0.989382
C2    C     C_3   0.504253 0.493670 0.125444 -0.553601
C3    C     C_3   0.068420 0.622993 0.588055 0.158092
C4    C     C_3   0.074716 0.360887 0.552144 0.174811
C5    C     C_3   0.925851 0.610324 0.598027 0.172925
C6    C     C_3   0.933997 0.352287 0.534050 0.140588
C7    C     C_3   0.071048 0.522654 0.370576 0.926010
C8    C     C_3   0.122295 0.502182 0.504932 -0.514280
C9    C     C_3   0.877886 0.498137 0.503771 -0.486205
C10   C     C_3   0.927422 0.535081 0.372800 0.906862
C11   C     C_3   0.614811 0.079356 0.447544 0.211345
C12   C     C_3   0.608997 0.916006 0.436117 0.214112
C13   C     C_3   0.495223 0.083829 0.632883 0.466184
C14   C     C_3   0.502459 0.915965 0.632083 0.481606
C15   C     C_3   0.391136 0.082865 0.435811 0.207686
C16   C     C_3   0.386102 0.919514 0.444258 0.213277
C17   C     C_R   0.501095 0.498305 0.260951 1.024244
C18   C     C_R   0.739242 0.499055 0.501052 0.978189
C19   C     C_R   0.503200 0.501566 0.740236 1.023197
C20   C     C_3   0.406166 0.564568 0.045479 0.522234
C21   C     C_3   0.504238 0.368067 0.036608 0.576666
C22   C     C_3   0.406266 0.439559 0.955998 0.520264
C23   C     C_3   0.507608 0.505863 0.878040 -0.542273
C24   C     C_3   0.507376 0.632518 0.969248 0.288274
C25   C     C_3   0.605897 0.433043 0.959408 0.240408
C26   C     C_3   0.605635 0.558649 0.048797 0.225099
Cu1   Cu    Cu3+1 0.499860 0.642410 0.500060 1.145753
Cu2   Cu    Cu3+1 0.499860 0.357590 0.500060 1.151839
H1    H     H_    0.693922 0.101460 0.509495 0.156658
H2    H     H_    0.695795 0.874388 0.476137 0.166852
H3    H     H_    0.305387 0.123589 0.479168 0.140809
H4    H     H_    0.304551 0.897611 0.501556 0.144406
H5    H     H_    0.086803 0.721268 0.540046 0.164159
H6    H     H_    0.116242 0.274644 0.496273 0.161215
H7    H     H_    0.885679 0.712485 0.573002 0.175118
H8    H     H_    0.917045 0.283057 0.452500 0.181176
N1    N     N_3   0.500250 0.143650 0.502780 -0.348128
N2    N     N_3   0.500250 0.856350 0.502780 -0.354881
O1    O     O_R   0.317570 0.620260 0.500070 -0.548978
O2    O     O_R   0.317570 0.379740 0.500070 -0.580941
O3    O     O_R   0.499850 0.620240 0.316900 -0.500024
O4    O     O_R   0.499850 0.379760 0.316900 -0.498878
O5    O     O_R   0.682190 0.620260 0.500030 -0.576342
O6    O     O_R   0.682190 0.379740 0.500030 -0.548034
O7    O     O_R   0.499910 0.620280 0.683200 -0.521968
O8    O     O_R   0.499910 0.379720 0.683200 -0.514823
F1    F     F_    0.300766 0.377858 0.912565 -0.439180
F2    F     F_    0.890973 0.668634 0.343876 -0.564528
F3    F     F_    0.878064 0.446948 0.283556 -0.537617
Cl1   Cl    Cl    0.666865 0.160676 0.309002 -0.272801
Cl2   Cl    Cl    0.621591 0.860012 0.277865 -0.239895
Cl3   Cl    Cl    0.615022 0.145577 0.732640 -0.309154
Cl4   Cl    Cl    0.640830 0.849632 0.708217 -0.390877
Cl5   Cl    Cl    0.371416 0.141767 0.280604 -0.223286
Cl6   Cl    Cl    0.336251 0.837781 0.302655 -0.216718
Cl7   Cl    Cl    0.360323 0.149265 0.712394 -0.315452
Cl8   Cl    Cl    0.373650 0.852045 0.719523 -0.347589
F4    F     F_    0.300034 0.629412 0.088513 -0.429194
F5    F     F_    0.504371 0.230122 0.065800 -0.431407
Cl9   Cl    Cl    0.511319 0.815641 0.967448 -0.125845
Cl10  Cl    Cl    0.746606 0.344318 0.926644 -0.127909
Cl11  Cl    Cl    0.746721 0.632112 0.099422 -0.137627
Cl12  Cl    Cl    0.144200 0.646540 0.735572 -0.242509
Cl13  Cl    Cl    0.122401 0.330415 0.709276 -0.182784
Cl14  Cl    Cl    0.870966 0.584016 0.752544 -0.254423
Cl15  Cl    Cl    0.863347 0.263373 0.657732 -0.311346
F6    F     F_    0.119137 0.640453 0.319741 -0.512598
F7    F     F_    0.107405 0.411662 0.295502 -0.547344

loop_
_geom_bond_atom_site_label_1
_geom_bond_atom_site_label_2
_ccdc_geom_bond_type
C7    C10   S    
C19   C23   S    
C23   C24   S    
C19   O7    A    
C15   H3    S    
C11   N1    S    
C3    Cl12  S    
C16   H4    S    
C1    C8    S    
C9    C10   S    
Cu1   O3    S    
C13   N1    S    
C4    C8    S    
C24   Cl9   S    
C13   Cl7   S    
C20   F4    S    
C12   Cl2   S    
Cu1   O7    S    
C2    C21   S    
C22   F1    S    
C26   Cl11  S    
C19   O8    A    
C7    C8    S    
C2    C26   S    
C3    H5    S    
C25   Cl10  S    
C21   C22   S    
C2    C17   S    
C12   N2    S    
Cu2   O8    S    
C4    Cl13  S    
Cu1   O1    S    
Cu2   N1    S    
C6    C9    S    
C5    H7    S    
C4    C6    S    
C7    F7    S    
C24   C26   S    
C21   F5    S    
C18   O6    A    
C23   C25   S    
C10   F2    S    
C13   C14   S    
C4    H6    S    
C16   Cl6   S    
C17   O3    A    
C14   N2    S    
Cu2   O2    S    
Cu1   N2    S    
C2    C20   S    
C15   C16   S    
C13   Cl3   S    
C15   Cl5   S    
Cu1   O5    S    
C9    C18   S    
C6    Cl15  S    
C14   Cl4   S    
C11   H1    S    
Cu2   O6    S    
C5    Cl14  S    
C3    C8    S    
C17   O4    A    
C16   N2    S    
Cu1   Cu2   S    
C11   Cl1   S    
C14   Cl8   S    
C1    O1    A    
C22   C23   S    
C15   N1    S    
C21   C25   S    
C5    C9    S    
Cu2   O4    S    
C1    O2    A    
C12   H2    S    
C25   C26   S    
C18   O5    A    
C10   F3    S    
C7    F6    S    
C6    H8    S    
C20   C24   S    
C11   C12   S    
C20   C22   S    
C3    C5    S    
