data_mof_unit_54928.cif
_audit_creation_date              2012-12-11T18:13:33-0500
_audit_creation_method            fapswitch 2.2
_symmetry_space_group_name_H-M    P1
_symmetry_Int_Tables_number       1
_space_group_crystal_system       triclinic
_cell_length_a                    8.205288
_cell_length_b                    12.629028
_cell_length_c                    18.686701
_cell_angle_alpha                 99.267452
_cell_angle_beta                  90.879091
_cell_angle_gamma                 98.456696
_cell_volume                      1888.84039549

loop_
_atom_site_label
_atom_site_type_symbol
_atom_type_description
_atom_site_fract_x
_atom_site_fract_y
_atom_site_fract_z
_atom_type_partial_charge
Ba1   Ba    Ba6+2 0.852780 0.548340 0.465070 1.635165
Ba2   Ba    Ba6+2 0.337060 0.451750 0.534940 1.632544
C1    C     C_3   0.583651 0.903011 0.252274 -0.413497
C2    C     C_R   0.895391 0.396520 0.096914 0.016324
C3    C     C_R   0.733707 0.349704 0.075627 -0.120347
C4    C     C_3   0.130000 0.764332 0.265223 0.366254
C5    C     C_R   0.664821 0.358249 0.008095 -0.015577
C6    C     C_R   0.764868 0.408933 0.957706 -0.020302
C7    C     C_R   0.929002 0.456846 0.979219 0.007213
C8    C     C_R   0.708066 0.409449 0.886027 -0.090869
C9    C     C_R   0.810053 0.455887 0.835548 -0.051537
C10   C     C_R   0.972108 0.507376 0.858232 -0.004879
C11   C     C_R   0.030261 0.508498 0.930445 -0.000356
C12   C     C_3   0.633761 0.822784 0.297895 0.339977
C13   C     C_R   0.756737 0.448891 0.762133 -0.002408
C14   C     C_R   0.866097 0.488840 0.712638 -0.299836
C15   C     C_R   0.023249 0.544921 0.734354 0.051017
C16   C     C_3   0.111454 0.791368 0.189368 -0.364402
C17   C     C_R   0.077031 0.556365 0.808632 -0.043657
C18   C     C_R   0.153569 0.503143 0.072670 0.010804
C19   C     C_R   0.214341 0.501600 0.144168 -0.002374
C20   C     C_R   0.112471 0.448620 0.192812 -0.043111
C21   C     C_R   0.957829 0.390852 0.166276 -0.031175
C22   C     C_R   0.233377 0.612893 0.834759 -0.052864
C23   C     C_3   0.460106 0.279678 0.313180 0.287404
C24   C     C_R   0.292652 0.611629 0.905475 0.038454
C25   C     C_R   0.191569 0.559025 0.953499 0.038841
C26   C     C_R   0.252758 0.556792 0.024586 0.065877
C27   C     C_R   0.453835 0.660490 0.928439 -0.073412
C28   C     C_3   0.236497 0.789234 0.620434 0.278434
C29   C     C_R   0.514839 0.656958 0.998132 -0.076522
C30   C     C_R   0.415239 0.605653 0.046717 0.049873
C31   C     C_R   0.376569 0.553106 0.166760 -0.043805
C32   C     C_R   0.476453 0.602272 0.116742 -0.121787
C33   C     C_R   0.432395 0.555357 0.239145 -0.004066
C34   C     C_3   0.429147 0.242969 0.231893 -0.373862
C35   C     C_R   0.325121 0.511876 0.288236 -0.298139
C36   C     C_R   0.167238 0.457064 0.266567 0.045070
C37   C     C_R   0.767395 0.181507 0.522894 -0.287816
C38   C     C_R   0.427681 0.807196 0.470173 -0.286706
C39   C     C_R   0.402503 0.984077 0.442893 -0.105780
C40   C     C_3   0.220272 0.908613 0.632649 -0.341163
C41   C     C_R   0.337531 0.875765 0.440342 -0.010329
C42   C     C_R   0.577736 0.847851 0.508234 0.065258
C43   C     C_R   0.643173 0.959706 0.513866 -0.063239
C44   C     C_R   0.554742 0.027796 0.479597 -0.065546
C45   C     C_3   0.021063 0.234048 0.731221 0.353498
C46   C     C_R   0.618901 0.138725 0.484777 0.040181
C47   C     C_R   0.857887 0.115384 0.554283 -0.002392
C48   C     C_R   0.793856 0.005993 0.552173 -0.084090
C49   C     C_3   0.958857 0.209336 0.377651 0.272557
C50   C     C_3   0.957045 0.087517 0.361083 -0.336724
C51   C     C_3   0.729928 0.708682 0.683309 0.315559
C52   C     C_3   0.754812 0.748830 0.764539 -0.408383
C53   C     C_3   0.149615 0.217640 0.854308 -0.149815
C54   C     C_3   0.246436 0.121598 0.840488 -0.155167
C55   C     C_3   0.169289 0.024018 0.873850 -0.426650
C56   C     C_3   0.991989 0.201216 0.806166 -0.242138
C57   C     C_2   0.486327 0.317163 0.995220 0.823035
C58   C     C_3   0.536052 0.173867 0.685111 0.312519
C59   C     C_3   0.582331 0.072246 0.709343 -0.420077
C60   C     C_R   0.992498 0.452608 0.049654 0.010182
H1    H     H_    0.723393 0.866644 0.341681 0.075064
H2    H     H_    0.845839 0.684141 0.661808 0.017514
H3    H     H_    0.629544 0.638151 0.674067 0.061148
H4    H     H_    0.531259 0.968406 0.287257 0.105354
H5    H     H_    0.862229 0.814652 0.775262 0.123894
H6    H     H_    0.777350 0.681838 0.793266 0.059453
H7    H     H_    0.642983 0.780689 0.786059 0.118044
H8    H     H_    0.521656 0.788448 0.323811 -0.051051
H9    H     H_    0.489487 0.860473 0.210006 0.113353
H10   H     H_    0.346450 0.305990 0.336549 0.023756
H11   H     H_    0.562635 0.348925 0.322175 0.061984
H12   H     H_    0.276408 0.948230 0.686227 0.115653
H13   H     H_    0.319937 0.178449 0.221425 0.134362
H14   H     H_    0.406235 0.312219 0.205398 0.069672
H15   H     H_    0.538364 0.210463 0.207955 0.127784
H16   H     H_    0.692056 0.939432 0.224997 0.130553
H17   H     H_    0.150185 0.726675 0.148716 0.062766
H18   H     H_    0.105217 0.312601 0.736770 0.071729
H19   H     H_    0.899896 0.246365 0.709304 -0.082711
H20   H     H_    0.905748 0.252162 0.834362 0.066242
H21   H     H_    0.930395 0.116076 0.800467 0.118274
H22   H     H_    0.638535 0.205734 0.652865 -0.014269
H23   H     H_    0.282252 0.948249 0.589582 0.084327
H24   H     H_    0.422747 0.151017 0.649913 0.110896
H25   H     H_    0.714103 0.085068 0.725492 0.109491
H26   H     H_    0.561584 0.003265 0.663724 0.087970
H27   H     H_    0.047637 0.687165 0.268003 0.092415
H28   H     H_    0.510417 0.050211 0.755783 0.124413
H29   H     H_    0.657871 0.310397 0.113613 0.100953
H30   H     H_    0.825730 0.479475 0.656282 0.069540
H31   H     H_    0.586535 0.368715 0.868204 0.143903
H32   H     H_    0.881311 0.343508 0.199776 0.095489
H33   H     H_    0.312807 0.656560 0.800298 0.093700
H34   H     H_    0.088400 0.917980 0.632483 0.131478
H35   H     H_    0.533776 0.700448 0.892141 0.056138
H36   H     H_    0.640318 0.694448 0.014031 0.065130
H37   H     H_    0.602092 0.639333 0.131650 0.107582
H38   H     H_    0.259816 0.753407 0.274539 -0.074824
H39   H     H_    0.367729 0.517121 0.343951 0.073207
H40   H     H_    0.329880 0.033252 0.417453 0.099336
H41   H     H_    0.863265 0.958852 0.580477 0.101019
H42   H     H_    0.816209 0.266605 0.525929 0.064413
H43   H     H_    0.375957 0.722653 0.467323 0.070389
H44   H     H_    0.980913 0.797956 0.177022 0.149727
H45   H     H_    0.833457 0.226304 0.389323 0.005924
H46   H     H_    0.189596 0.869661 0.185393 0.114087
H47   H     H_    0.367250 0.780435 0.613830 0.007984
H48   H     H_    0.162305 0.750091 0.570428 0.068769
H49   H     H_    0.154735 0.047996 0.932934 0.139703
H50   H     H_    0.047392 0.988232 0.847369 0.132141
H51   H     H_    0.250890 0.960637 0.865969 0.129236
H52   H     H_    0.255856 0.096004 0.781470 0.169303
H53   H     H_    0.373429 0.148623 0.864456 0.141607
H54   H     H_    0.116071 0.230845 0.912136 0.123792
H55   H     H_    0.230228 0.292587 0.845186 0.166888
H56   H     H_    0.043778 0.242306 0.425431 0.073253
H57   H     H_    0.291148 0.211929 0.017394 0.301374
H58   H     H_    0.878442 0.052733 0.311775 0.118529
H59   H     H_    0.907475 0.049003 0.406924 0.085416
H60   H     H_    0.084252 0.069821 0.351670 0.138553
O1    O     O_2   0.873090 0.425890 0.325140 -0.470081
O2    O     O_2   0.198813 0.120569 0.554116 -0.496073
O3    O     O_3   0.087840 0.153052 0.685141 -0.616275
O4    O     O_3   0.122420 0.434370 0.414380 -0.493170
O5    O     O_3   0.578370 0.633800 0.536380 -0.487501
O6    O     O_2   0.341510 0.231850 0.465510 -0.466768
O7    O     O_3   0.501408 0.192592 0.343937 -0.650054
O8    O     O_2   0.410055 0.440692 0.758613 -0.489309
O9    O     O_3   0.505855 0.249448 0.745655 -0.617506
O10   O     O_3   0.659500 0.627100 0.368810 -0.471015
O11   O     O_2   0.772172 0.546686 0.242702 -0.496029
O12   O     O_3   0.688528 0.793450 0.650443 -0.642277
O13   O     O_3   0.008761 0.253057 0.316250 -0.641496
O14   O     O_3   0.709772 0.744803 0.253400 -0.597530
O15   O     O_2   0.848200 0.768190 0.534530 -0.471204
O16   O     O_3   0.081160 0.685950 0.404810 -0.485555
O17   O     O_2   0.001668 0.879955 0.450649 -0.485205
O18   O     O_2   0.399270 0.364860 0.962204 -0.658562
O19   O     O_R   0.415266 0.227960 0.025679 -0.771317
O20   O     O_3   0.086328 0.849174 0.316012 -0.599525
O21   O     O_2   0.316610 0.574140 0.674900 -0.474252
O22   O     O_3   0.067290 0.565720 0.585630 -0.494474
O23   O     O_3   0.530210 0.372990 0.631200 -0.473096
O24   O     O_3   0.182759 0.747015 0.682041 -0.641440
O25   O     O_3   0.611340 0.366290 0.463630 -0.475686
O26   O     O_3   0.108550 0.314140 0.595200 -0.476013
P1    P     P_3+3 0.041040 0.394770 0.336330 0.972086
P2    P     P_3+3 0.672880 0.754030 0.556100 0.969663
P3    P     P_3+3 0.127487 0.824191 0.403446 0.949651
P4    P     P_3+3 0.148670 0.605320 0.663680 0.972589
P5    P     P_3+3 0.063004 0.174516 0.595583 0.944666
P6    P     P_3+3 0.642780 0.616047 0.274851 0.949353
P7    P     P_3+3 0.520923 0.230759 0.438258 0.933372
P8    P     P_3+3 0.549766 0.381275 0.725119 0.946980

loop_
_geom_bond_atom_site_label_1
_geom_bond_atom_site_label_2
_ccdc_geom_bond_type
C53   C54   S    
O1    P1    D    
C16   H17   S    
Ba2   O22   S    
C33   P6    S    
Ba1   O10   S    
C23   O7    S    
C16   H44   S    
Ba1   O15   S    
C5    C6    A    
C51   C52   S    
C39   H40   S    
Ba2   O23   S    
C24   C25   A    
C28   H48   S    
C40   H34   S    
C57   O18   D    
C47   P5    S    
O9    P8    S    
C34   H13   S    
C22   C24   A    
C34   H15   S    
C56   H20   S    
O5    P2    S    
O4    P1    S    
C55   H50   S    
C19   C31   A    
C53   H54   S    
Ba2   O26   S    
C13   C14   A    
O12   P2    S    
C2    C60   A    
C23   H10   S    
C49   H56   S    
C54   C55   S    
Ba1   Ba2   S    
C29   H36   S    
C7    C11   A    
C34   H14   S    
O6    P7    D    
C31   C33   A    
O23   P8    S    
C49   O13   S    
C38   C41   A    
C6    C7    A    
O7    P7    S    
O10   P6    S    
C39   C44   A    
C28   O24   S    
C4    O20   S    
C51   H3    S    
C36   P1    S    
Ba2   O5    S    
C48   H41   S    
O2    P5    D    
Ba2   O21   S    
C39   C41   A    
C12   H8    S    
C50   H60   S    
C45   H18   S    
C58   O9    S    
C5    C57   S    
O3    P5    S    
C45   O3    S    
Ba2   P4    S    
C4    C16   S    
C44   C46   A    
C40   H12   S    
C51   O12   S    
C28   H47   S    
C49   C50   S    
C37   H42   S    
Ba1   O4    S    
C22   H33   S    
C3    C5    A    
C2    C21   A    
C58   H24   S    
C14   C15   A    
C55   H51   S    
C52   H5    S    
C18   C26   A    
C8    H31   S    
Ba2   O25   S    
O13   P1    S    
C51   H2    S    
C42   P2    S    
O11   P6    D    
C58   C59   S    
C30   C32   A    
O20   P3    S    
C1    H9    S    
Ba1   O1    S    
C38   H43   S    
C35   C36   A    
C59   H26   S    
O14   P6    S    
C50   H59   S    
C29   C30   A    
C26   C30   A    
C32   H37   S    
Ba1   P2    S    
C40   H23   S    
C10   C11   A    
Ba1   P1    S    
C13   P8    S    
C3    H29   S    
C1    C12   S    
O24   P4    S    
Ba2   O4    S    
C49   H45   S    
O21   P4    D    
C37   C47   A    
C46   P7    S    
C14   H30   S    
C9    C13   A    
H57   O19   S    
O15   P2    D    
Ba1   O25   S    
C1    H4    S    
O26   P5    S    
C50   H58   S    
C41   P3    S    
C59   H28   S    
C59   H25   S    
C53   H55   S    
C33   C35   A    
C28   C40   S    
C42   C43   A    
Ba1   O5    S    
C2    C3    A    
C9    C10   A    
O16   P3    S    
C4    H27   S    
C7    C60   A    
C21   H32   S    
C27   H35   S    
C17   C22   A    
C27   C29   A    
Ba1   O22   S    
C56   H21   S    
C45   C56   S    
C35   H39   S    
C58   H22   S    
C55   H49   S    
C52   H7    S    
C12   O14   S    
C43   C48   A    
C12   H1    S    
C10   C17   A    
O17   P3    D    
C15   C17   A    
C54   H53   S    
C31   C32   A    
C23   H11   S    
C45   H19   S    
O25   P7    S    
C18   C60   A    
C16   H46   S    
C8    C9    A    
C23   C34   S    
C15   P4    S    
C43   C44   A    
C38   C42   A    
C52   H6    S    
C18   C19   A    
C57   O19   S    
C24   C27   A    
C6    C8    A    
C47   C48   A    
C53   C56   S    
C25   C26   A    
C54   H52   S    
C20   C21   A    
C11   C25   A    
O8    P8    D    
C19   C20   A    
C1    H16   S    
Ba1   O16   S    
O22   P4    S    
C4    H38   S    
C37   C46   A    
C20   C36   A    
Ba2   O6    S    
