data_mof_unit_68315.cif
_audit_creation_date              2012-12-11T14:19:31-0500
_audit_creation_method            fapswitch 2.2
_symmetry_space_group_name_H-M    P1
_symmetry_Int_Tables_number       1
_space_group_crystal_system       triclinic
_cell_length_a                    8.215175
_cell_length_b                    12.603991
_cell_length_c                    15.013462
_cell_angle_alpha                 95.234611
_cell_angle_beta                  99.161921
_cell_angle_gamma                 97.653923
_cell_volume                      1510.97087617

loop_
_atom_site_label
_atom_site_type_symbol
_atom_type_description
_atom_site_fract_x
_atom_site_fract_y
_atom_site_fract_z
_atom_type_partial_charge
Ba1   Ba    Ba6+2 0.153570 0.551840 0.456200 1.653667
Ba2   Ba    Ba6+2 0.656590 0.448150 0.543720 1.665178
C1    C     C_3   0.276318 0.812587 0.111376 0.251010
C2    C     C_R   0.727350 0.815761 0.468888 -0.284307
C3    C     C_R   0.694628 0.995625 0.433796 -0.066904
C4    C     C_3   0.910350 0.837174 0.254505 0.428328
C5    C     C_R   0.628509 0.887058 0.431039 0.054387
C6    C     C_R   0.889021 0.851389 0.515444 0.038356
C7    C     C_R   0.955309 0.963835 0.523662 -0.062182
C8    C     C_R   0.856525 0.037159 0.481104 -0.071362
C9    C     C_R   0.921854 0.149737 0.488608 0.068164
C10   C     C_R   0.182540 0.113983 0.574894 -0.041906
C11   C     C_R   0.117577 0.004976 0.571194 -0.105395
C12   C     C_3   0.351066 0.784698 0.205546 0.716638
C13   C     C_R   0.231319 0.459172 0.766350 -0.280563
C14   C     C_R   0.134563 0.417742 0.826885 0.005167
C15   C     C_R   0.202446 0.424615 0.919317 -0.120619
C16   C     C_3   0.877389 0.946057 0.221858 0.727658
C17   C     C_R   0.366161 0.479906 0.953384 0.014857
C18   C     C_R   0.454758 0.529165 0.890721 -0.119455
C19   C     C_R   0.388723 0.517453 0.798424 0.031667
C20   C     C_R   0.611773 0.535444 0.083886 -0.152024
C21   C     C_R   0.677358 0.554679 0.176586 0.043802
C22   C     C_R   0.416107 0.475597 0.211695 0.062680
C23   C     C_3   0.628506 0.779915 0.688369 0.296072
C24   C     C_R   0.346166 0.459928 0.119321 -0.125646
C25   C     C_R   0.441597 0.491694 0.052961 -0.013248
C26   C     C_R   0.578613 0.526971 0.240144 -0.256678
C27   C     C_3   0.712766 0.301779 0.267715 0.301484
C28   C     C_3   0.657695 0.261652 0.167243 -0.411027
C29   C     C_3   0.081741 0.687014 0.730060 0.322779
C30   C     C_3   0.133232 0.718387 0.832478 0.181649
C31   C     C_3   0.238024 0.222533 0.348803 0.273287
C32   C     C_3   0.298774 0.114430 0.341264 -0.302394
C33   C     C_3   0.484775 0.069422 0.918473 -0.345321
C34   C     C_3   0.567948 0.884250 0.664073 -0.384242
C35   C     C_3   0.909754 0.157398 0.750793 0.421482
C36   C     C_3   0.922751 0.053490 0.794586 0.163846
C37   C     C_3   0.374341 0.170346 0.788649 0.317718
C38   C     C_3   0.458380 0.179182 0.888170 -0.174404
C39   C     C_R   0.082644 0.185505 0.537022 -0.275120
H1    H     H_    0.273984 0.710451 0.218354 -0.014186
H2    H     H_    0.306581 0.268134 0.413523 0.059956
H3    H     H_    0.145142 0.823916 0.110442 0.126192
H4    H     H_    0.217757 0.058630 0.286446 0.107666
H5    H     H_    0.300174 0.079136 0.406090 0.095788
H6    H     H_    0.425314 0.125167 0.323769 0.140291
H7    H     H_    0.274537 0.744390 0.058193 -0.034599
H8    H     H_    0.757868 0.799282 0.726374 0.068106
H9    H     H_    0.628767 0.728879 0.623927 0.010922
H10   H     H_    0.538854 0.929857 0.724796 0.139949
H11   H     H_    0.664980 0.934912 0.636616 0.046611
H12   H     H_    0.552145 0.194419 0.158158 0.145974
H13   H     H_    0.453802 0.866247 0.611848 0.144322
H14   H     H_    0.817700 0.139236 0.686619 0.028026
H15   H     H_    0.033278 0.187234 0.733979 -0.137111
H16   H     H_    0.798494 0.017446 0.806521 0.051720
H17   H     H_    0.966242 0.994561 0.747550 0.031685
H18   H     H_    0.262067 0.108181 0.776647 0.047255
H19   H     H_    0.337734 0.250413 0.776548 -0.018052
H20   H     H_    0.378291 0.216197 0.931495 0.095150
H21   H     H_    0.580182 0.232943 0.898555 0.145841
H22   H     H_    0.037773 0.847651 0.294955 -0.043400
H23   H     H_    0.616600 0.326910 0.128950 0.067692
H24   H     H_    0.617033 0.046586 0.399841 0.103133
H25   H     H_    0.196791 0.953496 0.604414 0.102088
H26   H     H_    0.134182 0.269733 0.541152 0.063535
H27   H     H_    0.675429 0.731547 0.464482 0.074483
H28   H     H_    0.696274 0.556643 0.038212 0.099929
H29   H     H_    0.124220 0.387517 0.962469 0.071289
H30   H     H_    0.218461 0.421462 0.101555 0.088230
H31   H     H_    0.572979 0.580496 0.911645 0.088717
H32   H     H_    0.630735 0.541208 0.311826 0.069816
H33   H     H_    0.819892 0.813840 0.299465 -0.003898
H34   H     H_    0.762916 0.232756 0.138870 0.134567
H35   H     H_    0.179595 0.452905 0.694800 0.063279
H36   H     H_    0.940058 0.011679 0.276141 -0.152753
H37   H     H_    0.604936 0.326067 0.295518 0.012950
H38   H     H_    0.814256 0.371380 0.275594 0.051345
H39   H     H_    0.013336 0.835808 0.861364 0.341513
H40   H     H_    0.517957 0.718917 0.151260 0.262539
H41   H     H_    0.457434 0.886798 0.061775 0.334740
H42   H     H_    0.693493 0.025614 0.195070 0.329860
H43   H     H_    0.976889 0.101792 0.923666 0.337315
H44   H     H_    0.566461 0.030791 0.877671 0.136694
H45   H     H_    0.184580 0.654605 0.702978 -0.050119
H46   H     H_    0.545141 0.079889 0.990984 0.142937
H47   H     H_    0.363443 0.015809 0.910957 0.176315
H48   H     H_    0.055787 0.989023 0.155519 0.293569
H49   H     H_    0.970244 0.624138 0.717323 0.065565
H50   H     H_    0.248690 0.779070 0.847093 0.058034
H51   H     H_    0.161447 0.646588 0.865785 0.025508
H52   H     H_    0.103058 0.209867 0.350986 0.005649
O1    O     O_2   0.168170 0.764170 0.543850 -0.457059
O2    O     O_2   0.796422 0.430851 0.822696 -0.467798
O3    O     O_3   0.855800 0.232491 0.810370 -0.594797
O4    O     O_3   0.898670 0.629780 0.545890 -0.495350
O5    O     O_3   0.409490 0.443300 0.392340 -0.497462
O6    O     O_2   0.674250 0.555830 0.719690 -0.453136
O7    O     O_3   0.527127 0.731497 0.745146 -0.639495
O8    O     O_2   0.519232 0.115701 0.562005 -0.490470
O9    O     O_3   0.483774 0.140466 0.731275 -0.592079
O10   O     O_3   0.365980 0.695510 0.380810 -0.479213
O11   O     O_2   0.291992 0.884720 0.438357 -0.512486
O12   O     O_3   0.263558 0.271403 0.270938 -0.627306
O13   O     O_3   0.048038 0.778734 0.689087 -0.663675
O14   O     O_3   0.346575 0.870659 0.271603 -0.597362
O15   O     O_2   0.136040 0.444100 0.280280 -0.461819
O16   O     O_3   0.934510 0.640480 0.335500 -0.497145
O17   O     O_2   0.019298 0.574980 0.176275 -0.511412
O18   O     O_3   0.003374 0.757955 0.869057 -0.700730
O19   O     O_3   0.515736 0.765802 0.207447 -0.729917
O20   O     O_3   0.364571 0.907874 0.091063 -0.687923
O21   O     O_3   0.706425 0.951259 0.208502 -0.668993
O22   O     O_3   0.036764 0.073117 0.876502 -0.733890
O23   O     O_3   0.897880 0.758075 0.180094 -0.600076
O24   O     O_3   0.935510 0.959748 0.139917 -0.689611
O25   O     O_2   0.642110 0.235770 0.456130 -0.478248
O26   O     O_3   0.911620 0.370210 0.454030 -0.494308
O27   O     O_3   0.444310 0.304480 0.619110 -0.460134
O28   O     O_3   0.769589 0.217368 0.311335 -0.643211
O29   O     O_3   0.400800 0.556680 0.607590 -0.470463
O30   O     O_3   0.875770 0.359510 0.664420 -0.482520
P1    P     P_3+3 0.998660 0.747790 0.570900 0.965409
P2    P     P_3+3 0.306970 0.411860 0.294270 0.986958
P3    P     P_3+3 0.885488 0.629387 0.217151 0.959567
P4    P     P_3+3 0.811620 0.252200 0.429030 0.972213
P5    P     P_3+3 0.915433 0.361985 0.782530 0.988738
P6    P     P_3+3 0.409269 0.835164 0.381055 0.994222
P7    P     P_3+3 0.498024 0.591088 0.720633 0.977970
P8    P     P_3+3 0.404707 0.165342 0.621055 0.953307

loop_
_geom_bond_atom_site_label_1
_geom_bond_atom_site_label_2
_ccdc_geom_bond_type
C28   H34   S    
C10   P8    S    
C28   H23   S    
O27   P8    S    
C17   C18   A    
O14   P6    S    
C16   O21   S    
Ba2   O25   S    
C39   H26   S    
C30   H51   S    
Ba2   O30   S    
C12   O19   S    
C24   C25   A    
C27   C28   S    
C30   O18   S    
C35   C36   S    
Ba1   P2    S    
O28   P4    S    
O4    P1    S    
O7    P7    S    
C30   H50   S    
C13   C14   A    
C1    H7    S    
C38   H21   S    
O3    P5    S    
Ba1   Ba2   S    
Ba1   O26   S    
C7    C11   A    
C23   H9    S    
Ba1   O16   S    
C36   H17   S    
C35   H15   S    
C33   H46   S    
O2    P5    D    
O5    P2    S    
C27   H37   S    
Ba2   O4    S    
C6    C7    A    
C27   O28   S    
C32   H5    S    
O15   P2    D    
C17   C25   S    
C7    C8    A    
Ba1   O10   S    
C20   H28   S    
C34   H11   S    
C2    C6    A    
C12   H1    S    
Ba2   P4    S    
C13   H35   S    
C15   H29   S    
C29   H45   S    
O23   P3    S    
C24   H30   S    
H42   O21   S    
C2    C5    A    
C26   H32   S    
C4    H33   S    
C11   H25   S    
Ba2   O29   S    
C4    C16   S    
C28   H12   S    
C1    H3    S    
C31   H2    S    
C31   O12   S    
O9    P8    S    
C3    H24   S    
C1    O20   S    
Ba1   O4    S    
C37   C38   S    
C3    C5    A    
Ba2   O27   S    
C6    P1    S    
C23   C34   S    
C38   H20   S    
C35   O3    S    
C4    H22   S    
C9    P4    S    
C10   C39   A    
C36   H16   S    
O10   P6    S    
C33   H47   S    
C23   O7    S    
C29   C30   S    
C27   H38   S    
H40   O19   S    
C29   H49   S    
C37   H18   S    
C31   C32   S    
C32   H4    S    
C21   C26   A    
C10   C11   A    
C14   P5    S    
C16   O24   S    
C4    O23   S    
C34   H10   S    
O17   P3    D    
C21   P3    S    
O8    P8    D    
C12   O14   S    
H48   O24   S    
Ba2   O6    S    
H43   O22   S    
C20   C25   A    
C22   P2    S    
C29   O13   S    
O25   P4    D    
C37   O9    S    
C2    H27   S    
O6    P7    D    
C22   C26   A    
H41   O20   S    
C22   C24   A    
C31   H52   S    
Ba1   O5    S    
Ba1   O1    S    
Ba2   O26   S    
C1    C12   S    
O12   P2    S    
O11   P6    D    
C33   C38   S    
Ba1   P1    S    
C3    C8    A    
C36   O22   S    
C33   H44   S    
O30   P5    S    
C14   C15   A    
C16   H36   S    
C37   H19   S    
H39   O18   S    
C15   C17   A    
C9    C39   A    
C23   H8    S    
C19   P7    S    
C5    P6    S    
C34   H13   S    
C8    C9    A    
Ba1   O15   S    
C35   H14   S    
O16   P3    S    
C13   C19   A    
C18   C19   A    
Ba2   O5    S    
O13   P1    S    
C20   C21   A    
C18   H31   S    
C32   H6    S    
O29   P7    S    
Ba1   O29   S    
O26   P4    S    
O1    P1    D    
