data_mof_unit_24463.cif
_audit_creation_date              2012-12-10T17:56:44-0500
_audit_creation_method            fapswitch 2.2
_symmetry_space_group_name_H-M    P1
_symmetry_Int_Tables_number       1
_space_group_crystal_system       triclinic
_cell_length_a                    10.845066
_cell_length_b                    9.559651
_cell_length_c                    10.781372
_cell_angle_alpha                 87.143571
_cell_angle_beta                  92.341221
_cell_angle_gamma                 90.910088
_cell_volume                      1115.33119786

loop_
_atom_site_label
_atom_site_type_symbol
_atom_type_description
_atom_site_fract_x
_atom_site_fract_y
_atom_site_fract_z
_atom_type_partial_charge
C1    C     C_R   0.263022 0.498611 0.507870 0.743280
C2    C     C_R   0.738037 0.502392 0.495081 0.789111
C3    C     C_R   0.943469 0.631594 0.518181 -0.075068
C4    C     C_R   0.068814 0.617363 0.553170 -0.006752
C5    C     C_R   0.429604 0.079485 0.415055 0.046782
C6    C     C_R   0.569110 0.072550 0.585822 0.034042
C7    C     C_R   0.428310 0.931011 0.413692 0.072337
C8    C     C_R   0.569963 0.924210 0.587618 0.078613
C9    C     C_R   0.503163 0.504806 0.262029 0.778177
C10   C     C_R   0.504355 0.496170 0.737717 0.774458
C11   C     C_R   0.688281 0.670281 0.108520 -0.036173
C12   C     C_R   0.734672 0.529841 0.893413 -0.039875
C13   C     C_R   0.803575 0.682768 0.054619 -0.054222
C14   C     C_R   0.827975 0.608574 0.951385 -0.189570
C15   C     C_R   0.613716 0.526972 0.940750 0.114226
C16   C     C_R   0.598177 0.574688 0.060302 -0.013591
C17   C     C_R   0.496397 0.518226 0.126502 -0.212089
C18   C     C_R   0.506539 0.484679 0.872523 -0.140571
C19   C     C_R   0.394792 0.455998 0.062807 -0.029648
C20   C     C_R   0.395252 0.452835 0.932345 -0.035752
C21   C     C_R   0.061784 0.379607 0.481966 -0.132482
C22   C     C_R   0.934353 0.382384 0.477740 -0.115792
C23   C     C_R   0.873126 0.507728 0.494475 -0.164151
C24   C     C_R   0.129757 0.497299 0.517904 -0.137182
Cu1   Cu    Cu3+1 0.500000 0.640660 0.500000 0.927269
Cu2   Cu    Cu3+1 0.500000 0.359340 0.500000 0.992672
H1    H     H_    0.874300 0.752976 0.090548 0.203808
H2    H     H_    0.920052 0.613907 0.915718 0.184605
H3    H     H_    0.106960 0.284887 0.458075 0.186681
H4    H     H_    0.883898 0.287384 0.456050 0.188754
H5    H     H_    0.373064 0.141175 0.348545 0.182492
H6    H     H_    0.624751 0.128494 0.652973 0.216936
N1    N     N_R   0.500000 0.852070 0.500000 -0.244805
N2    N     N_R   0.500000 0.147940 0.500000 -0.218165
O1    O     O_R   0.319640 0.618740 0.499990 -0.623950
O2    O     O_R   0.680360 0.618740 0.500010 -0.631501
O3    O     O_R   0.319620 0.381170 0.499990 -0.582358
O4    O     O_R   0.680380 0.381170 0.500010 -0.549499
O5    O     O_R   0.500000 0.618810 0.319650 -0.628957
O6    O     O_R   0.500000 0.618810 0.680350 -0.609003
O7    O     O_R   0.499970 0.381240 0.319640 -0.565082
O8    O     O_R   0.500030 0.381240 0.680360 -0.545206
C25   C     C_2   0.288783 0.397639 0.133749 0.497092
H7    H     H_    0.264192 0.443640 0.219236 0.023045
O9    O     O_2   0.231283 0.294419 0.100193 -0.465053
C26   C     C_2   0.280317 0.421291 0.857380 0.417911
H8    H     H_    0.284753 0.367217 0.771724 0.078400
O10   O     O_2   0.179887 0.460480 0.888128 -0.534434
C27   C     C_2   0.655078 0.782690 0.189799 0.446223
H9    H     H_    0.560482 0.817414 0.189408 0.098675
O11   O     O_2   0.733332 0.842283 0.253288 -0.538633
C28   C     C_2   0.774205 0.435377 0.798834 0.375104
H10   H     H_    0.854338 0.462923 0.745481 0.072376
O12   O     O_2   0.725483 0.320597 0.787777 -0.506779
C29   C     C_2   0.897158 0.776008 0.488776 0.548372
H11   H     H_    0.806303 0.808509 0.509203 0.077736
O13   O     O_2   0.963851 0.863692 0.437982 -0.480758
C30   C     C_2   0.131752 0.718411 0.637919 0.436045
H12   H     H_    0.224027 0.698755 0.676488 0.098058
O14   O     O_2   0.078733 0.819967 0.673258 -0.512260
C31   C     C_2   0.346326 0.866609 0.317778 0.364685
H13   H     H_    0.324925 0.756789 0.319788 0.141125
O15   O     O_2   0.299161 0.938378 0.232222 -0.519775
C32   C     C_2   0.648525 0.852942 0.686871 0.376921
H14   H     H_    0.683975 0.749769 0.677820 0.101511
O16   O     O_2   0.677145 0.911326 0.782328 -0.528387

loop_
_geom_bond_atom_site_label_1
_geom_bond_atom_site_label_2
_ccdc_geom_bond_type
C21   H3    S    
C15   C18   A    
C6    H6    S    
C29   H11   S    
Cu2   O3    S    
C4    C30   S    
C11   C27   S    
C10   O8    A    
C25   O9    D    
C11   C16   A    
C2    O4    A    
C3    C23   A    
C19   C20   A    
C12   C15   A    
C1    O3    A    
C25   H7    S    
Cu2   O4    S    
C5    N2    A    
C14   H2    S    
C31   O15   D    
C30   H12   S    
C21   C22   A    
Cu1   O5    S    
C11   C13   A    
Cu2   O8    S    
C7    C31   S    
C3    C29   S    
Cu1   O1    S    
C4    C24   A    
C32   H14   S    
C9    C17   S    
C12   C28   S    
C19   C25   S    
C18   C20   A    
C8    N1    A    
C29   O13   D    
Cu1   O6    S    
C31   H13   S    
C10   C18   S    
C26   O10   D    
C5    H5    S    
C7    N1    A    
Cu1   O2    S    
C30   O14   D    
C15   C16   A    
C8    C32   S    
C6    N2    A    
C12   C14   A    
C9    O5    A    
C2    O2    A    
C28   H10   S    
C1    O1    A    
C1    C24   S    
C10   O6    A    
C27   H9    S    
C21   C24   A    
Cu1   N1    S    
C2    C23   S    
C5    C7    A    
C26   H8    S    
C13   H1    S    
C6    C8    A    
C22   H4    S    
C17   C19   A    
Cu1   Cu2   S    
C13   C14   A    
C9    O7    A    
Cu2   N2    S    
C22   C23   A    
C20   C26   S    
C3    C4    A    
Cu2   O7    S    
C28   O12   D    
C16   C17   A    
C27   O11   D    
C32   O16   D    
