data_mof_unit_22690.cif
_audit_creation_date              2013-03-05T16:27:23-0500
_audit_creation_method            fapswitch 2.2
_symmetry_space_group_name_H-M    P1
_symmetry_Int_Tables_number       1
_space_group_crystal_system       triclinic
_cell_length_a                    18.42976
_cell_length_b                    18.495875
_cell_length_c                    18.420225
_cell_angle_alpha                 120.070421
_cell_angle_beta                  89.871588
_cell_angle_gamma                 120.243112
_cell_volume                      4423.80029383

loop_
_atom_site_label
_atom_site_type_symbol
_atom_site_description
_atom_site_fract_x
_atom_site_fract_y
_atom_site_fract_z
_atom_type_partial_charge
Zn1   Zn    Zn3+2 0.457010 0.413240 0.543760 1.027019
Zn2   Zn    Zn3+2 0.456230 0.586760 0.542990 1.086505
Zn3   Zn    Zn3+2 0.456230 0.413270 0.369490 0.978695
Zn4   Zn    Zn3+2 0.630520 0.586730 0.543760 1.082975
O1    O     O_3   0.500000 0.500000 0.500000 -0.535270
O2    O     O_R   0.676800 0.731580 0.616070 -0.641627
O3    O     O_R   0.384470 0.268410 0.445190 -0.650161
O4    O     O_R   0.383920 0.560720 0.615530 -0.619819
O5    O     O_R   0.554810 0.439290 0.323210 -0.658534
O6    O     O_R   0.383160 0.560750 0.443890 -0.614400
O7    O     O_R   0.677560 0.560680 0.616830 -0.592803
O8    O     O_R   0.383160 0.439320 0.322450 -0.644287
O9    O     O_R   0.556120 0.439250 0.616830 -0.589918
O10   O     O_R   0.384470 0.439280 0.616070 -0.625221
O11   O     O_R   0.676800 0.560710 0.445190 -0.628872
O12   O     O_R   0.554810 0.731590 0.615530 -0.575610
O13   O     O_R   0.383920 0.268420 0.323210 -0.642473
C1    C     C_R   0.640073 0.779519 0.638281 0.934706
C2    C     C_R   0.363231 0.220610 0.360302 0.842619
C3    C     C_R   0.358369 0.498042 0.637963 0.887366
C4    C     C_R   0.639305 0.495807 0.359754 0.900118
C5    C     C_R   0.361042 0.501722 0.359316 0.821754
C6    C     C_R   0.641089 0.501470 0.642686 1.028077
C7    C     C_3   0.798148 0.547214 0.687305 0.328733
C8    C     C_3   0.865219 0.572464 0.767574 0.150453
C9    C     C_3   0.701819 0.566812 0.805499 0.123608
C10   C     C_3   0.652609 0.378777 0.662841 0.349184
C11   C     C_3   0.697838 0.499953 0.699789 -0.400921
C12   C     C_3   0.801064 0.501481 0.802869 -0.221176
C13   C     C_3   0.754428 0.554094 0.865191 0.262353
C14   C     C_3   0.723375 0.380872 0.718331 0.195692
C15   C     C_R   0.266504 0.053549 0.336778 -0.002233
C16   C     C_R   0.318578 0.109819 0.305734 -0.092583
C17   C     C_R   0.329387 0.056751 0.223534 0.175861
C18   C     C_R   0.267816 0.947944 0.164338 0.167058
C19   C     C_R   0.207389 0.892656 0.195443 -0.146989
C20   C     C_R   0.215537 0.948363 0.284895 -0.004429
C21   C     C_3   0.147959 0.942316 0.331910 0.363755
C22   C     C_3   0.205982 0.061816 0.389682 0.216595
C23   C     C_R   0.784808 0.555285 0.339303 -0.060609
C24   C     C_R   0.693364 0.482925 0.302824 -0.066037
C25   C     C_R   0.657569 0.398066 0.211462 0.051365
C26   C     C_R   0.713086 0.400477 0.157774 0.306313
C27   C     C_R   0.803098 0.487317 0.194800 -0.166234
C28   C     C_R   0.836885 0.559875 0.286802 -0.061977
C29   C     C_3   0.905183 0.673561 0.353231 0.334983
C30   C     C_3   0.845911 0.667376 0.413354 0.288431
C31   C     C_R   0.782185 0.949404 0.743867 -0.048826
C32   C     C_R   0.696201 0.890608 0.686359 -0.148971
C33   C     C_R   0.665478 0.943463 0.677356 0.312812
C34   C     C_R   0.719892 0.052931 0.730854 0.076887
C35   C     C_R   0.803568 0.108941 0.795712 -0.046168
C36   C     C_R   0.832440 0.053133 0.796440 -0.082543
C37   C     C_3   0.904887 0.064621 0.848195 0.382993
C38   C     C_3   0.847708 0.944856 0.787064 0.207710
C39   C     C_R   0.244310 0.518189 0.326606 0.008549
C40   C     C_R   0.313604 0.510514 0.305150 -0.066763
C41   C     C_R   0.339038 0.519518 0.235402 0.154559
C42   C     C_R   0.282245 0.515817 0.178766 0.140663
C43   C     C_R   0.204415 0.508690 0.196566 -0.059848
C44   C     C_R   0.191339 0.516750 0.273797 -0.056385
C45   C     C_3   0.112143 0.472299 0.301487 0.382329
C46   C     C_3   0.173005 0.473460 0.361753 0.154449
C47   C     C_R   0.294154 0.575991 0.740718 -0.092065
C48   C     C_R   0.295153 0.490875 0.686473 -0.072669
C49   C     C_R   0.230129 0.398367 0.676852 0.053908
C50   C     C_R   0.177063 0.399715 0.732867 0.286869
C51   C     C_R   0.186832 0.492277 0.795693 -0.187648
C52   C     C_R   0.240791 0.576413 0.792451 -0.007608
C53   C     C_3   0.302362 0.690851 0.860203 0.138161
C54   C     C_3   0.363588 0.690417 0.801643 0.479679
Zn5   Zn    Zn3+2 0.042950 0.586670 0.956190 0.992893
Zn6   Zn    Zn3+2 0.043720 0.586650 0.130470 1.023810
Zn7   Zn    Zn3+2 0.043720 0.413150 0.956960 1.084988
Zn8   Zn    Zn3+2 0.869430 0.413180 0.956190 1.050456
O14   O     O_3   0.999960 0.499910 0.999960 -0.532423
O15   O     O_R   0.823160 0.439210 0.054770 -0.588022
O16   O     O_R   0.115490 0.560640 0.883890 -0.672883
O17   O     O_R   0.116030 0.731490 0.176740 -0.612309
O18   O     O_R   0.945140 0.268320 0.884430 -0.582728
O19   O     O_R   0.116800 0.560590 0.177500 -0.651563
O20   O     O_R   0.822390 0.439230 0.883130 -0.671252
O21   O     O_R   0.116800 0.439160 0.056060 -0.611833
O22   O     O_R   0.943840 0.560660 0.883130 -0.599344
O23   O     O_R   0.115490 0.731510 0.054770 -0.624735
O24   O     O_R   0.823160 0.268340 0.883890 -0.636789
O25   O     O_R   0.945140 0.560620 0.176740 -0.655352
O26   O     O_R   0.116030 0.439190 0.884430 -0.592566
C55   C     C_R   0.859775 0.498106 0.139836 0.928473
C56   C     C_R   0.138781 0.499087 0.859140 0.836305
C57   C     C_R   0.142138 0.780154 0.139792 0.849377
C58   C     C_R   0.859871 0.220379 0.858060 0.897117
C59   C     C_R   0.142021 0.501258 0.140724 0.875661
C60   C     C_R   0.858809 0.499146 0.858097 0.962693
N1    N     N_R   0.839738 0.641178 0.688017 0.267260
O27   O     O_R   0.824730 0.710536 0.728395 -0.394742
O28   O     O_R   0.900906 0.659939 0.650871 -0.336066
C61   C     C_3   0.670417 0.299875 0.741026 -0.759726
H1    H     H_    0.711622 0.286388 0.768191 0.256720
H2    H     H_    0.628709 0.309716 0.781828 0.234980
H3    H     H_    0.623110 0.221915 0.678879 0.245924
N2    N     N_R   0.613102 0.538861 0.818280 0.202263
O29   O     O_R   0.551576 0.521016 0.764343 -0.339890
O30   O     O_R   0.610121 0.576227 0.898973 -0.325548
C62   C     C_3   0.691153 0.491119 0.900044 -0.629869
H4    H     H_    0.714520 0.457226 0.919283 0.247452
H5    H     H_    0.687914 0.542321 0.964360 0.286614
H6    H     H_    0.621191 0.433191 0.859018 0.203612
C63   C     C_3   0.408626 0.114403 0.202118 -0.807629
H7    H     H_    0.463152 0.187662 0.263790 0.238632
H8    H     H_    0.437905 0.071028 0.171769 0.250148
H9    H     H_    0.388667 0.128795 0.156611 0.253725
C64   C     C_3   0.264945 0.892713 0.069066 -0.814044
H10   H     H_    0.199603 0.856884 0.023841 0.281416
H11   H     H_    0.315175 0.942739 0.052639 0.241542
H12   H     H_    0.275771 0.834116 0.055061 0.233390
C65   C     C_3   0.054428 0.884893 0.268909 -0.712298
H13   H     H_    0.057893 0.899303 0.216842 0.216565
H14   H     H_    0.018997 0.801145 0.234427 0.269798
H15   H     H_    0.015389 0.909862 0.306604 0.295776
N3    N     N_R   0.146817 0.901066 0.382707 0.220725
O31   O     O_R   0.115384 0.920278 0.448108 -0.362937
O32   O     O_R   0.186889 0.856706 0.370846 -0.380526
C66   C     C_3   0.163610 0.109572 0.375538 -0.875140
H16   H     H_    0.214020 0.192576 0.407933 0.227231
H17   H     H_    0.136547 0.074866 0.303961 0.247520
H18   H     H_    0.109272 0.099415 0.404550 0.271965
C67   C     C_3   0.253126 0.116981 0.488898 -0.674388
H19   H     H_    0.287876 0.085735 0.497558 0.250930
H20   H     H_    0.303817 0.199779 0.521469 0.240613
H21   H     H_    0.203994 0.109109 0.524445 0.268919
C68   C     C_3   0.562722 0.304326 0.171772 -0.714112
H22   H     H_    0.515624 0.320853 0.159754 0.262312
H23   H     H_    0.549492 0.236392 0.108216 0.268570
H24   H     H_    0.549862 0.282092 0.218337 0.223916
N4    N     N_R   0.786672 0.470091 0.594009 0.205069
O33   O     O_R   0.849579 0.459059 0.573355 -0.387854
O34   O     O_R   0.735370 0.451037 0.529152 -0.323205
N5    N     N_R   0.677198 0.315871 0.065923 0.214701
O35   O     O_R   0.617706 0.298063 0.009379 -0.359252
O36   O     O_R   0.703456 0.256044 0.038986 -0.322387
C69   C     C_3   0.996506 0.698651 0.386864 -0.774779
H25   H     H_    0.989019 0.638515 0.392629 0.209671
H26   H     H_    0.033297 0.703105 0.339985 0.296875
H27   H     H_    0.036298 0.772373 0.453546 0.290511
N6    N     N_R   0.909746 0.735507 0.323347 0.246867
O37   O     O_R   0.941643 0.831275 0.382663 -0.290125
O38   O     O_R   0.867358 0.692603 0.241500 -0.377763
C70   C     C_3   0.884979 0.686612 0.500160 -0.716928
H28   H     H_    0.944740 0.767018 0.545620 0.254429
H29   H     H_    0.835675 0.674973 0.535114 0.289689
H30   H     H_    0.903474 0.633604 0.486916 0.252296
N7    N     N_R   0.804756 0.722096 0.426860 0.261173
O39   O     O_R   0.746152 0.692413 0.360518 -0.341923
O40   O     O_R   0.831597 0.805792 0.504249 -0.347082
N8    N     N_R   0.580214 0.886800 0.613672 0.215331
O41   O     O_R   0.564383 0.825079 0.529272 -0.375311
O42   O     O_R   0.517985 0.896041 0.640101 -0.301833
C71   C     C_3   0.691300 0.108507 0.714692 -0.753099
H31   H     H_    0.667073 0.142175 0.768585 0.275757
H32   H     H_    0.748408 0.169323 0.712254 0.203983
H33   H     H_    0.637643 0.058082 0.650093 0.269248
N9    N     N_R   0.991163 0.115721 0.836301 0.200649
O43   O     O_R   0.058480 0.125788 0.873776 -0.301847
O44   O     O_R   0.999198 0.142252 0.781735 -0.285675
N10   N     N_R   0.912955 0.109933 0.942602 0.240484
O45   O     O_R   0.865995 0.144186 0.976638 -0.315635
O46   O     O_R   0.967999 0.116507 0.993619 -0.222582
C72   C     C_3   0.888701 0.897803 0.722361 -0.628212
H34   H     H_    0.945582 0.909874 0.759552 0.286152
H35   H     H_    0.838685 0.814481 0.672740 0.275133
H36   H     H_    0.912808 0.932862 0.685388 0.257505
C73   C     C_3   0.940797 0.559512 0.737613 -0.609014
H37   H     H_    0.968824 0.596397 0.702720 0.280462
H38   H     H_    0.002329 0.605288 0.793502 0.245846
H39   H     H_    0.924064 0.481800 0.697632 0.209709
N11   N     N_R   0.812818 0.898278 0.835395 0.256142
O47   O     O_R   0.729735 0.855520 0.831160 -0.349003
O48   O     O_R   0.866290 0.902423 0.885686 -0.277410
C74   C     C_3   0.425840 0.535362 0.222287 -0.753058
H40   H     H_    0.468656 0.547869 0.275314 0.243585
H41   H     H_    0.411823 0.467961 0.157424 0.251398
H42   H     H_    0.466572 0.605807 0.224157 0.249876
C75   C     C_3   0.302925 0.518981 0.100121 -0.773534
H43   H     H_    0.252462 0.443844 0.037060 0.281582
H44   H     H_    0.302019 0.580212 0.103585 0.210252
H45   H     H_    0.368604 0.534582 0.096373 0.249038
C76   C     C_3   0.084503 0.545705 0.348026 -0.838014
H46   H     H_    0.143212 0.626986 0.392694 0.246507
H47   H     H_    0.044187 0.538819 0.297233 0.258653
H48   H     H_    0.043095 0.525190 0.387351 0.258856
N12   N     N_R   0.035407 0.368345 0.229638 0.221518
O49   O     O_R   0.964589 0.321432 0.246986 -0.312746
O50   O     O_R   0.037646 0.320440 0.149473 -0.330044
C77   C     C_3   0.198797 0.548120 0.462965 -0.689788
H49   H     H_    0.138579 0.524248 0.483093 0.240219
H50   H     H_    0.246220 0.547315 0.499038 0.275252
H51   H     H_    0.231482 0.628236 0.484148 0.255937
C78   C     C_3   0.145176 0.367130 0.334678 -0.740917
H52   H     H_    0.134990 0.316851 0.263098 0.266347
H53   H     H_    0.197427 0.375011 0.374175 0.194951
H54   H     H_    0.082429 0.329375 0.347565 0.274643
C79   C     C_3   0.216087 0.298812 0.607176 -0.761430
H55   H     H_    0.267063 0.294725 0.633203 0.268084
H56   H     H_    0.148799 0.230800 0.587925 0.271491
H57   H     H_    0.221152 0.294670 0.545616 0.206389
N13   N     N_R   0.114934 0.307831 0.726686 0.231671
O51   O     O_R   0.142906 0.262389 0.740686 -0.295031
O52   O     O_R   0.030152 0.268106 0.704830 -0.362068
C80   C     C_3   0.257299 0.742604 0.862452 -0.733838
H58   H     H_    0.307383 0.826973 0.902032 0.260941
H59   H     H_    0.225380 0.714703 0.794342 0.253365
H60   H     H_    0.204289 0.724949 0.892532 0.255150
N14   N     N_R   0.922382 0.685878 0.842708 0.203688
O53   O     O_R   0.965299 0.717669 0.919677 -0.302758
O54   O     O_R   0.964175 0.754045 0.825835 -0.282885
C81   C     C_3   0.341540 0.721269 0.952717 -0.774606
H61   H     H_    0.370196 0.679378 0.948244 0.262221
H62   H     H_    0.394465 0.805047 0.997260 0.271649
H63   H     H_    0.288967 0.701941 0.983043 0.209140
N15   N     N_R   0.371921 0.743378 0.760141 0.211496
O55   O     O_R   0.422255 0.843167 0.807706 -0.291310
O56   O     O_R   0.327394 0.692193 0.676782 -0.379956
N16   N     N_R   0.451187 0.721827 0.844808 0.192512
O57   O     O_R   0.465683 0.654625 0.830678 -0.356412
O58   O     O_R   0.514023 0.818739 0.903129 -0.275433
C82   C     C_3   0.745575 0.680306 0.840105 -0.446558
H64   H     H_    0.818535 0.727692 0.861730 0.276401
H65   H     H_    0.715046 0.683707 0.791293 0.236571
H66   H     H_    0.729018 0.721306 0.898161 0.291479
N17   N     N_R   0.821085 0.653380 0.952616 0.245881
O59   O     O_R   0.871596 0.654083 0.002801 -0.355164
O60   O     O_R   0.803801 0.720545 0.996784 -0.314624
C83   C     C_3   0.556311 0.324196 0.670382 -0.683141
H67   H     H_    0.548319 0.363001 0.733835 0.225382
H68   H     H_    0.503797 0.304266 0.620702 0.268814
H69   H     H_    0.528840 0.245782 0.650257 0.221893
N18   N     N_R   0.630977 0.308364 0.564559 0.242185
O61   O     O_R   0.615193 0.219156 0.532240 -0.369628
O62   O     O_R   0.588213 0.309668 0.509596 -0.361907
C84   C     C_3   0.771023 0.333507 0.661425 -0.737880
H70   H     H_    0.786725 0.348855 0.611916 0.290847
H71   H     H_    0.830980 0.355765 0.703984 0.176233
H72   H     H_    0.731102 0.248363 0.621058 0.270174

loop_
_geom_bond_atom_site_label_1
_geom_bond_atom_site_label_2
_geom_bond_distance
_ccdc_geom_bond_type
C23   C30   1.499354 S    
C79   H55   1.108163 S    
C54   N15   1.471713 S    
C31   C38   1.507368 S    
N1    O27   1.294500 A    
C38   N11   1.468411 S    
C72   H34   1.110088 S    
C37   C38   1.561908 S    
N9    O43   1.301025 A    
Zn7   O21   1.963659 S    
Zn5   O14   1.966162 S    
N16   O57   1.301557 A    
C5    C40   1.447758 S    
Zn5   O23   1.946682 S    
O23   C57   1.284403 A    
C48   C49   1.423617 A    
C29   C69   1.536774 S    
C73   H37   1.108285 S    
O16   C56   1.288206 A    
C81   H63   1.107893 S    
C79   H56   1.108844 S    
O15   C55   1.284916 A    
O4    C3    1.290625 A    
Zn7   O14   1.969754 S    
C76   H48   1.110106 S    
Zn1   O1    1.966013 S    
C66   H17   1.109721 S    
C19   C20   1.393951 A    
N9    O44   1.301307 A    
C84   H70   1.082365 S    
C63   H8    1.110218 S    
C71   H31   1.109614 S    
C12   C60   1.504822 S    
N14   O54   1.301116 A    
C47   C54   1.508062 S    
Zn1   O10   1.947087 S    
O21   C59   1.279777 A    
O8    C5    1.283228 A    
O19   C59   1.283222 A    
C75   H43   1.109386 S    
O9    C6    1.281461 A    
C76   H47   1.109976 S    
C17   C18   1.425758 A    
C24   C25   1.430314 A    
C14   C61   1.588890 S    
C34   C71   1.508618 S    
Zn6   O25   1.944775 S    
Zn5   O16   1.946938 S    
Zn3   O8    1.968165 S    
C10   C83   1.588323 S    
N2    O29   1.296624 A    
C29   C30   1.558376 S    
C21   C65   1.541326 S    
N8    O42   1.301177 A    
C30   C70   1.542327 S    
C36   C37   1.501209 S    
C33   N8    1.435632 S    
C68   H22   1.109891 S    
N11   O48   1.300784 A    
C78   H54   1.110266 S    
C51   C56   1.458132 S    
C71   H32   1.110350 S    
C26   N5    1.434574 S    
C53   C54   1.559460 S    
C54   N16   1.474487 S    
C37   N9    1.470255 S    
N7    O40   1.301360 A    
C12   C13   1.649896 S    
Zn2   O12   1.945087 S    
O17   C57   1.296548 A    
C74   H42   1.110078 S    
C64   H12   1.103811 S    
C43   C59   1.450389 S    
C7    N4    1.507965 S    
C49   C50   1.419842 A    
C42   C43   1.425848 A    
Zn7   O18   1.945086 S    
C67   H19   1.111424 S    
N10   O46   1.300975 A    
C72   H35   1.105132 S    
C69   H27   1.106392 S    
C64   H10   1.109367 S    
C52   C53   1.504989 S    
C83   H68   1.102968 S    
C37   N10   1.470955 S    
Zn6   O19   1.968356 S    
C65   H15   1.106429 S    
C79   H57   1.104589 S    
C74   H41   1.110272 S    
C16   C17   1.414925 A    
N6    O38   1.301853 A    
C73   H38   1.107813 S    
C8    C12   1.683041 S    
C31   C36   1.352270 A    
O2    C1    1.285114 A    
C62   H6    1.087610 S    
N18   O62   1.301525 A    
C39   C46   1.506077 S    
C53   C81   1.541890 S    
C69   H25   1.109579 S    
C10   C14   1.631747 S    
N13   O51   1.301130 A    
C72   H36   1.110253 S    
O10   C3    1.289110 A    
C3    C48   1.460101 S    
C21   C22   1.558307 S    
C7    C8    1.633073 S    
Zn4   O2    1.951013 S    
C2    C16   1.458610 S    
C63   H9    1.110170 S    
N14   O53   1.297140 A    
C51   C52   1.395757 A    
C45   N12   1.472298 S    
C30   N7    1.477028 S    
C41   C42   1.431698 A    
C6    C11   1.505012 S    
C18   C64   1.508481 S    
C42   C75   1.518973 S    
O6    C5    1.278736 A    
C22   C66   1.544106 S    
C50   C51   1.416918 A    
C67   H20   1.103882 S    
C43   C44   1.387902 A    
C84   H71   1.107833 S    
C83   H69   1.104360 S    
N12   O50   1.301032 A    
C13   N17   1.499190 S    
O18   C58   1.288371 A    
Zn8   O14   1.958491 S    
C20   C21   1.505181 S    
Zn3   O5    1.944879 S    
C8    C73   1.581866 S    
N15   O55   1.301202 A    
C62   H5    1.111881 S    
Zn8   O24   1.950914 S    
C82   H64   1.095559 S    
O11   C4    1.292787 A    
C9    C82   1.555399 S    
C45   C46   1.564724 S    
C33   C34   1.426809 A    
Zn6   O17   1.949302 S    
C71   H33   1.108043 S    
N17   O60   1.300474 A    
O22   C60   1.282322 A    
C15   C20   1.371338 A    
Zn4   O7    1.967548 S    
N2    O30   1.303234 A    
Zn8   O15   1.945984 S    
N3    O31   1.299395 A    
Zn5   O22   1.963665 S    
C77   H50   1.109597 S    
N11   O47   1.301917 A    
C66   H18   1.110159 S    
C4    C24   1.460514 S    
C49   C79   1.502665 S    
C19   C57   1.474469 S    
C68   H23   1.107844 S    
C23   C24   1.383730 A    
C82   H65   1.106145 S    
O26   C56   1.291725 A    
C32   C33   1.422790 A    
O3    C2    1.283999 A    
O25   C55   1.287967 A    
C13   C62   1.583190 S    
N10   O45   1.302029 A    
C53   C80   1.539030 S    
Zn6   O14   1.960585 S    
C46   C77   1.539952 S    
C70   H30   1.110636 S    
Zn2   O1    1.969904 S    
Zn1   O9    1.963768 S    
C83   H67   1.080747 S    
O20   C60   1.285568 A    
Zn2   O6    1.963556 S    
C67   H21   1.109028 S    
C10   C11   1.665316 S    
C50   N13   1.434823 S    
C74   H40   1.106071 S    
N4    O34   1.301115 A    
C45   C76   1.538205 S    
N6    O37   1.300546 A    
C73   H39   1.094154 S    
C39   C40   1.389753 A    
N18   O61   1.301691 A    
N8    O41   1.301264 A    
C22   C67   1.543179 S    
Zn1   O3    1.946531 S    
C9    C11   1.679999 S    
C14   C84   1.577321 S    
Zn2   O4    1.945191 S    
C27   C28   1.394476 A    
C7    C11   1.675204 S    
N13   O52   1.301264 A    
N4    O33   1.299615 A    
Zn3   O1    1.960586 S    
N16   O58   1.301146 A    
C25   C68   1.509515 S    
N5    O35   1.301162 A    
N1    O28   1.303771 A    
Zn8   O20   1.967398 S    
C9    C13   1.642594 S    
C8    N14   1.515467 S    
C81   H62   1.110264 S    
C80   H60   1.107073 S    
C47   C52   1.368001 A    
C62   H4    1.095119 S    
C80   H59   1.111344 S    
C75   H44   1.110666 S    
C75   H45   1.104974 S    
N15   O56   1.301413 A    
C84   H72   1.111785 S    
C15   C16   1.385281 A    
C77   H51   1.110569 S    
Zn4   O11   1.945939 S    
C65   H14   1.107353 S    
C81   H61   1.110880 S    
C34   C35   1.427352 A    
C12   C14   1.662119 S    
O24   C58   1.284988 A    
C70   H28   1.110006 S    
N12   O49   1.301397 A    
N5    O36   1.301126 A    
O5    C4    1.276931 A    
C40   C41   1.425209 A    
C29   N6    1.468877 S    
C26   C27   1.421326 A    
C68   H24   1.102436 S    
C31   C32   1.390347 A    
C47   C48   1.389189 A    
O7    C6    1.287523 A    
O13   C2    1.287945 A    
C46   C78   1.543292 S    
Zn3   O13   1.949405 S    
C69   H26   1.106613 S    
C80   H58   1.109310 S    
C44   C45   1.508155 S    
C61   H2    1.090946 S    
C78   H53   1.110551 S    
N3    O32   1.302432 A    
C21   N3    1.468743 S    
C35   C58   1.456948 S    
C78   H52   1.111312 S    
C77   H49   1.110247 S    
C70   H29   1.107163 S    
C28   C29   1.505126 S    
Zn4   O1    1.958339 S    
C82   H66   1.109395 S    
C23   C28   1.363681 A    
C10   N18   1.499990 S    
O12   C1    1.287691 A    
C61   H1    1.098584 S    
C25   C26   1.421457 A    
C63   H7    1.107826 S    
N17   O59   1.304200 A    
C15   C22   1.494917 S    
C17   C63   1.508507 S    
C7    N1    1.497809 S    
C39   C44   1.360947 A    
C76   H46   1.110687 S    
C41   C74   1.516694 S    
C18   C19   1.432247 A    
Zn7   O26   1.945041 S    
N7    O39   1.302911 A    
C65   H13   1.110712 S    
C38   C72   1.538670 S    
C9    N2    1.504905 S    
C27   C55   1.464125 S    
C1    C32   1.454514 S    
C35   C36   1.384199 A    
C66   H16   1.106252 S    
C64   H11   1.105049 S    
C61   H3    1.110714 S    
