data_mof_unit_52121.cif
_audit_creation_date              2012-10-26T19:22:30-0400
_audit_creation_method            fapswitch 2.2
_symmetry_space_group_name_H-M    P1
_symmetry_Int_Tables_number       1
_space_group_crystal_system       triclinic
_cell_length_a                    11.756544
_cell_length_b                    13.014069
_cell_length_c                    13.887293
_cell_angle_alpha                 89.047229
_cell_angle_beta                  90.268074
_cell_angle_gamma                 100.78689
_cell_volume                      2086.92685342

loop_
_atom_site_label
_atom_site_type_symbol
_atom_type_description
_atom_site_fract_x
_atom_site_fract_y
_atom_site_fract_z
_atom_type_partial_charge
C1    C     C_R   0.477783 0.299143 0.497792 0.597637
C2    C     C_R   0.845312 0.460377 0.540770 0.085359
C3    C     C_R   0.032858 0.536204 0.467506 -0.064337
C4    C     C_R   0.967106 0.463446 0.531967 -0.059153
C5    C     C_R   0.517865 0.500234 0.681768 0.574940
C6    C     C_R   0.482200 0.500517 0.318240 0.575681
C7    C     C_1   0.472309 0.501885 0.215913 0.028434
C8    C     C_1   0.527762 0.499451 0.784093 0.052499
C9    C     C_2   0.454164 0.504214 0.026911 -0.086014
C10   C     C_2   0.545998 0.497672 0.973103 -0.093415
C11   C     C_1   0.536582 0.498654 0.870234 0.008783
C12   C     C_R   0.522287 0.700746 0.502629 0.585000
C13   C     C_1   0.463527 0.503008 0.129777 -0.005925
C14   C     C_R   0.536364 0.814586 0.504519 0.009975
C15   C     C_R   0.464194 0.185180 0.497743 0.013380
C16   C     C_R   0.370812 0.020840 0.569111 -0.085444
C17   C     C_R   0.631677 0.979638 0.436407 -0.064762
C18   C     C_R   0.376465 0.126986 0.554277 -0.165436
C19   C     C_R   0.625346 0.873358 0.449720 -0.162268
C20   C     C_R   0.541728 0.134390 0.447704 0.258792
C21   C     C_R   0.459185 0.864865 0.555675 0.216396
C22   C     C_R   0.544004 0.028732 0.471476 0.015841
C23   C     C_R   0.457679 0.971136 0.533324 0.006917
C24   C     C_R   0.025513 0.397615 0.587385 0.230168
C25   C     C_R   0.974363 0.601654 0.411666 0.264240
C26   C     C_R   0.148154 0.414412 0.585214 0.241492
C27   C     C_R   0.851708 0.585325 0.414474 0.254754
C28   C     C_R   0.154737 0.539449 0.459001 0.091186
Cu1   Cu    Cu3+1 0.615220 0.507680 0.492970 1.032758
Cu2   Cu    Cu3+1 0.384780 0.492320 0.507030 1.047870
H1    H     H_    0.628555 0.491428 0.005973 0.158225
H2    H     H_    0.610023 0.322890 0.246848 0.367768
H3    H     H_    0.734272 0.671973 0.362853 0.264536
H4    H     H_    0.762700 0.574657 0.288165 0.254172
H5    H     H_    0.265598 0.328161 0.637283 0.254418
H6    H     H_    0.236828 0.425481 0.711632 0.274450
H7    H     H_    0.045316 0.172027 0.637479 0.347249
H8    H     H_    0.021106 0.838350 0.255177 0.387004
H9    H     H_    0.371592 0.510416 0.994048 0.170640
H10   H     H_    0.689326 0.836667 0.414974 0.155287
H11   H     H_    0.312774 0.164035 0.588998 0.139231
H12   H     H_    0.297918 0.979306 0.609536 0.180804
H13   H     H_    0.705365 0.021913 0.397214 0.213283
H14   H     H_    0.794311 0.410638 0.593668 0.206398
H15   H     H_    0.205923 0.589313 0.406310 0.207782
H16   H     H_    0.208435 0.796893 0.589613 0.351111
N1    N     N_R   0.788370 0.519230 0.482390 -0.265082
N2    N     N_R   0.211630 0.480770 0.517610 -0.252846
N3    N     N_3   0.796115 0.631753 0.337894 -0.513631
N4    N     N_3   0.203484 0.368169 0.662082 -0.539760
O1    O     O_R   0.581500 0.354430 0.495010 -0.438177
O2    O     O_2   0.362276 0.872767 0.732724 -0.253759
O3    O     O_3   0.245578 0.739519 0.614472 -0.472550
O4    O     O_2   0.742653 0.247387 0.382932 -0.253351
O5    O     O_2   0.634105 0.121765 0.270597 -0.265733
O6    O     O_3   0.558461 0.291374 0.299995 -0.514638
O7    O     O_2   0.902959 0.340715 0.748141 -0.224055
O8    O     O_2   0.845524 0.235754 0.605515 -0.273910
O9    O     O_3   0.029347 0.207991 0.696894 -0.442708
O10   O     O_2   0.153167 0.763486 0.391462 -0.302952
O11   O     O_2   0.097864 0.654192 0.250643 -0.263620
O12   O     O_R   0.418500 0.645570 0.504990 -0.437735
O13   O     O_3   0.969960 0.787963 0.297576 -0.476178
O14   O     O_R   0.386890 0.341450 0.506880 -0.536305
O15   O     O_R   0.613110 0.658550 0.493120 -0.533856
O16   O     O_R   0.611060 0.507430 0.631070 -0.501360
O17   O     O_R   0.388940 0.492570 0.368930 -0.493565
O18   O     O_R   0.416450 0.494450 0.642940 -0.494170
O19   O     O_R   0.583550 0.505550 0.357060 -0.511344
O20   O     O_2   0.437596 0.716627 0.696657 -0.239481
S1    S     S_3+6 0.376723 0.798373 0.653979 0.052997
S2    S     S_3+6 0.623771 0.198495 0.348389 0.037710
S3    S     S_3+6 0.947066 0.294222 0.660701 0.048045
S4    S     S_3+6 0.052771 0.703181 0.336275 0.024313

loop_
_geom_bond_atom_site_label_1
_geom_bond_atom_site_label_2
_ccdc_geom_bond_type
C27   N1    A    
C2    H14   S    
C15   C18   A    
C2    C4    A    
C17   H13   S    
Cu1   Cu2   S    
C1    C15   S    
O13   S4    S    
Cu2   O14   S    
O11   S4    D    
C6    O19   A    
C12   O12   A    
C12   O15   A    
O9    S3    S    
C17   C22   A    
C7    C13   T    
H5    N4    S    
C21   C23   A    
C3    C4    A    
H6    N4    S    
C28   H15   S    
O2    S1    D    
C5    O16   A    
C5    O18   A    
C1    O1    A    
H7    O9    S    
Cu2   O17   S    
C21   S1    S    
C8    C11   T    
Cu1   O15   S    
Cu1   N1    S    
C10   H1    S    
C2    N1    A    
Cu2   N2    S    
C6    O17   A    
C17   C19   A    
C24   C26   A    
H8    O13   S    
C16   C23   A    
Cu1   O19   S    
C19   H10   S    
C26   N4    S    
Cu2   O12   S    
Cu1   O1    S    
C15   C20   A    
C4    C24   A    
Cu2   O18   S    
C24   S3    S    
C5    C8    S    
C25   C27   A    
C10   C11   S    
C20   C22   A    
C14   C21   A    
Cu1   O16   S    
O3    S1    S    
C1    O14   A    
C27   N3    S    
C3    C25   A    
O20   S1    D    
O4    S2    D    
C26   N2    A    
H16   O3    S    
C3    C28   A    
C16   C18   A    
C25   S4    S    
C9    C10   D    
C18   H11   S    
O10   S4    D    
C9    C13   S    
C22   C23   A    
C28   N2    A    
H4    N3    S    
C16   H12   S    
O7    S3    D    
C14   C19   A    
H2    O6    S    
C9    H9    S    
C20   S2    S    
C6    C7    S    
O5    S2    D    
O8    S3    D    
C12   C14   S    
H3    N3    S    
O6    S2    S    
