data_mof_unit_63121.cif
_audit_creation_date              2012-12-10T19:35:14-0500
_audit_creation_method            fapswitch 2.2
_symmetry_space_group_name_H-M    P1
_symmetry_Int_Tables_number       1
_space_group_crystal_system       triclinic
_cell_length_a                    30.685665
_cell_length_b                    31.850969
_cell_length_c                    21.644977
_cell_angle_alpha                 89.718686
_cell_angle_beta                  135.049023
_cell_angle_gamma                 90.395322
_cell_volume                      14945.7624723

loop_
_atom_site_label
_atom_site_type_symbol
_atom_type_description
_atom_site_fract_x
_atom_site_fract_y
_atom_site_fract_z
_atom_type_partial_charge
C1    C     C_R   0.499892 0.000110 0.379953 0.892808
C2    C     C_R   0.000035 0.500324 0.379989 0.932118
C3    C     C_3   0.473773 0.735789 0.524294 -0.168853
C4    C     C_3   0.444379 0.263688 0.455627 -0.187352
C5    C     C_3   0.981328 0.235755 0.534935 -0.210364
C6    C     C_3   0.943680 0.763924 0.436402 -0.184954
C7    C     C_3   0.501019 0.708610 0.499461 0.086901
C8    C     C_3   0.502191 0.291475 0.503783 0.077599
C9    C     C_3   0.000821 0.208590 0.498915 0.086669
C10   C     C_3   0.001868 0.791537 0.502962 0.082035
C11   C     C_3   0.531633 0.763875 0.577620 0.185331
C12   C     C_3   0.483206 0.235898 0.537909 0.190138
C13   C     C_3   0.038052 0.263767 0.579110 0.189823
C14   C     C_3   0.967444 0.736026 0.513362 0.173393
C15   C     C_3   0.559114 0.736450 0.554187 -0.095230
C16   C     C_3   0.540287 0.263935 0.586226 -0.087249
C17   C     C_3   0.057943 0.236356 0.544574 -0.069829
C18   C     C_3   0.024655 0.763892 0.579531 -0.083164
C19   C     C_1   0.499661 0.836872 0.498178 0.019037
C20   C     C_1   0.501636 0.163181 0.501808 0.024654
C21   C     C_1   0.999762 0.336871 0.498315 0.015940
C22   C     C_1   0.001468 0.663219 0.501433 0.028809
C23   C     C_1   0.500243 0.663184 0.499255 0.028429
C24   C     C_1   0.500988 0.336872 0.501962 0.043675
C25   C     C_1   0.999914 0.163172 0.498733 0.027431
C26   C     C_1   0.001009 0.836921 0.501554 0.084888
C27   C     C_R   0.458992 0.977684 0.239426 0.051232
C28   C     C_R   0.954246 0.482225 0.234445 0.057188
C29   C     C_R   0.499829 0.001763 0.314411 -0.085206
C30   C     C_R   0.000866 0.500961 0.315105 -0.099715
C31   C     C_R   0.543031 0.026956 0.326141 -0.263198
C32   C     C_R   0.050627 0.519643 0.333004 -0.262944
C33   C     C_R   0.545037 0.026657 0.263247 0.196590
C34   C     C_R   0.052060 0.519217 0.269519 0.186699
C35   C     C_R   0.499885 0.918793 0.499836 0.900809
C36   C     C_R   0.500182 0.081217 0.500154 0.888163
C37   C     C_R   0.999894 0.418793 0.499948 0.928283
C38   C     C_R   0.000174 0.581227 0.500108 0.885867
C39   C     C_R   0.503757 0.000169 0.189284 -0.089969
C40   C     C_R   0.003051 0.499672 0.188203 -0.078841
C41   C     C_R   0.462561 0.975808 0.181191 0.026599
C42   C     C_R   0.955943 0.481104 0.174224 0.021854
C43   C     C_3   0.414052 0.942741 0.126569 -0.485680
C44   C     C_3   0.895628 0.458881 0.107468 -0.520706
C45   C     C_3   0.410058 0.944335 0.194088 -0.161192
C46   C     C_3   0.893454 0.459682 0.176940 -0.143104
C47   C     C_R   0.547520 0.981226 0.766317 0.155467
C48   C     C_R   0.043985 0.477618 0.762532 0.151107
C49   C     C_R   0.501299 0.002007 0.687337 -0.094119
C50   C     C_R   0.001312 0.501651 0.687188 -0.087579
C51   C     C_R   0.458754 0.027006 0.676263 -0.197249
C52   C     C_R   0.962853 0.529547 0.680098 -0.199107
C53   C     C_R   0.458893 0.027116 0.740704 -0.168735
C54   C     C_R   0.963128 0.529765 0.744664 -0.157699
C55   C     C_R   0.500252 0.001221 0.814220 -0.080679
C56   C     C_R   0.000400 0.501155 0.814206 -0.082846
C57   C     C_R   0.546579 0.980451 0.828822 0.098346
C58   C     C_R   0.042948 0.476935 0.824958 0.089842
C59   C     C_R   0.500171 0.999917 0.620311 0.861923
C60   C     C_R   0.000166 0.499858 0.620243 0.860608
C61   C     C_3   0.565982 0.935583 0.851272 -0.456266
C62   C     C_3   0.054624 0.430806 0.839584 -0.446082
C63   C     C_3   0.567196 0.936417 0.782338 -0.481587
C64   C     C_3   0.056035 0.431561 0.770875 -0.503265
C65   C     C_R   0.380243 0.500294 0.380165 0.911741
C66   C     C_R   0.880282 0.000092 0.380232 0.919835
C67   C     C_R   0.499527 0.581246 0.499362 0.952517
C68   C     C_R   0.499806 0.418763 0.499943 0.940457
C69   C     C_R   0.999099 0.081239 0.498933 0.959442
C70   C     C_R   0.999950 0.918775 0.500058 0.914883
C71   C     C_R   0.619718 0.500729 0.619712 0.959493
C72   C     C_R   0.119648 0.000191 0.619669 0.961273
C73   C     C_R   0.620338 0.000144 0.120313 0.890930
C74   C     C_R   0.120291 0.500140 0.119664 0.894197
C75   C     C_R   0.501377 0.999951 0.121422 0.908291
C76   C     C_R   0.000239 0.499900 0.120174 0.912216
C77   C     C_R   0.379737 0.999916 0.880659 0.935987
C78   C     C_R   0.879808 0.499911 0.880865 0.936879
C79   C     C_R   0.499313 0.000156 0.879030 0.910045
C80   C     C_R   0.999236 0.500150 0.878897 0.917384
C81   C     C_R   0.281723 0.467637 0.302021 -0.011110
C82   C     C_R   0.781756 0.966468 0.265079 -0.010535
C83   C     C_3   0.468751 0.735542 0.417344 -0.210261
C84   C     C_3   0.522364 0.264877 0.468239 -0.201437
C85   C     C_3   0.961965 0.235611 0.415342 -0.205881
C86   C     C_3   0.037862 0.764907 0.492047 -0.177763
C87   C     C_R   0.315092 0.501893 0.314717 -0.081167
C88   C     C_R   0.815214 0.001628 0.315167 -0.072943
C89   C     C_R   0.283056 0.537289 0.259876 0.195578
C90   C     C_R   0.783376 0.038062 0.301632 0.192169
C91   C     C_R   0.718539 0.037475 0.236823 -0.281305
C92   C     C_R   0.218171 0.536519 0.194446 -0.273707
C93   C     C_R   0.686156 0.000858 0.186986 -0.104977
C94   C     C_R   0.186027 0.500825 0.184062 -0.112942
C95   C     C_R   0.719865 0.965979 0.203916 0.102076
C96   C     C_R   0.219869 0.466927 0.238906 0.088678
C97   C     C_3   0.715152 0.921875 0.176450 -0.521802
C98   C     C_3   0.215381 0.423776 0.261379 -0.511175
C99   C     C_3   0.286923 0.424368 0.333884 -0.129147
C100  C     C_3   0.786770 0.922293 0.247557 -0.132991
C101  C     C_R   0.717676 0.469363 0.693971 0.011293
C102  C     C_R   0.217396 0.966281 0.702877 0.006321
C103  C     C_R   0.685095 0.502837 0.685258 -0.089150
C104  C     C_R   0.184874 0.002122 0.685114 -0.083525
C105  C     C_R   0.718267 0.536874 0.745195 -0.066961
C106  C     C_R   0.217895 0.038803 0.735894 -0.070795
C107  C     C_3   0.526899 0.763925 0.472858 -0.089770
C108  C     C_3   0.559912 0.236776 0.550589 -0.091685
C109  C     C_3   0.019246 0.263916 0.461857 -0.081478
C110  C     C_3   0.060008 0.736704 0.568265 -0.086364
C111  C     C_R   0.282646 0.037293 0.801514 -0.234051
C112  C     C_R   0.783072 0.535047 0.810919 -0.233312
C113  C     C_R   0.313910 0.000240 0.816879 -0.073870
C114  C     C_R   0.814113 0.500172 0.817543 -0.070682
C115  C     C_R   0.279264 0.965068 0.767207 0.046927
C116  C     C_R   0.779445 0.467444 0.759004 0.047396
C117  C     C_3   0.282774 0.919636 0.751883 -0.237906
C118  C     C_3   0.783041 0.425170 0.731914 -0.243515
C119  C     C_3   0.710515 0.427500 0.655548 -0.273657
C120  C     C_3   0.210132 0.921129 0.676566 -0.275454
C121  C     C_1   0.499628 0.874355 0.498960 -0.121877
C122  C     C_1   0.500726 0.125682 0.500796 -0.131397
C123  C     C_1   0.999680 0.374353 0.499097 -0.130977
C124  C     C_1   0.000668 0.625709 0.500586 -0.130230
C125  C     C_1   0.499825 0.625695 0.499277 -0.097230
C126  C     C_1   0.500264 0.374343 0.500785 -0.056875
C127  C     C_1   0.999400 0.125687 0.498796 -0.093034
C128  C     C_1   0.000416 0.874381 0.500747 -0.095365
C129  C     C_3   0.441864 0.763536 0.442470 -0.188143
C130  C     C_3   0.464813 0.236283 0.420591 -0.198488
C131  C     C_3   0.942842 0.263599 0.451604 -0.191171
C132  C     C_3   0.979873 0.736441 0.426028 -0.201132
C133  C     C_3   0.500143 0.791430 0.497511 0.065130
C134  C     C_3   0.502918 0.208653 0.503249 0.068052
C135  C     C_3   0.000184 0.291425 0.497555 0.064900
C136  C     C_3   0.002636 0.708707 0.502824 0.058770
H1    H     H_    0.424859 0.045433 0.617446 0.168091
H2    H     H_    0.931989 0.550244 0.624210 0.166699
H3    H     H_    0.424981 0.045534 0.731234 0.167837
H4    H     H_    0.932223 0.550534 0.738102 0.173449
H5    H     H_    0.529600 0.914579 0.834101 0.224462
H6    H     H_    0.612454 0.931928 0.918907 0.212511
H7    H     H_    0.014926 0.412765 0.818994 0.225036
H8    H     H_    0.100118 0.423507 0.906279 0.207442
H9    H     H_    0.531628 0.915854 0.725189 0.201297
H10   H     H_    0.614382 0.933271 0.810205 0.221669
H11   H     H_    0.017306 0.413874 0.710487 0.199016
H12   H     H_    0.102376 0.424791 0.797941 0.216948
H13   H     H_    0.693911 0.065501 0.225575 0.174718
H14   H     H_    0.193289 0.563648 0.152483 0.172843
H15   H     H_    0.693080 0.920260 0.107992 0.213906
H16   H     H_    0.694153 0.900694 0.190655 0.214954
H17   H     H_    0.194490 0.401235 0.207270 0.214307
H18   H     H_    0.193376 0.423817 0.285699 0.219007
H19   H     H_    0.442827 0.723190 0.351039 0.171715
H20   H     H_    0.538721 0.277520 0.439620 0.183477
H21   H     H_    0.930551 0.223336 0.347576 0.172549
H22   H     H_    0.067123 0.777526 0.483459 0.187336
H23   H     H_    0.308675 0.065152 0.839947 0.209024
H24   H     H_    0.809401 0.560976 0.856282 0.206628
H25   H     H_    0.452145 0.723740 0.545691 0.149676
H26   H     H_    0.396992 0.275029 0.417371 0.166764
H27   H     H_    0.966177 0.223735 0.565533 0.155001
H28   H     H_    0.895857 0.775610 0.382634 0.191671
H29   H     H_    0.393777 0.775258 0.396328 0.167408
H30   H     H_    0.434079 0.224379 0.352682 0.165998
H31   H     H_    0.895577 0.275362 0.413118 0.168887
H32   H     H_    0.961772 0.724608 0.363218 0.170717
H33   H     H_    0.575342 0.046357 0.384013 0.163866
H34   H     H_    0.088050 0.534475 0.395622 0.168084
H35   H     H_    0.432915 0.913059 0.126573 0.244199
H36   H     H_    0.372721 0.954749 0.060327 0.223280
H37   H     H_    0.901332 0.427174 0.092711 0.234393
H38   H     H_    0.860578 0.478766 0.048883 0.229128
O1    O     O_R   0.448310 0.000000 0.356640 -0.582306
O2    O     O_R   0.948310 0.500000 0.356640 -0.610245
O3    O     O_R   0.500000 0.561620 0.551710 -0.613131
O4    O     O_R   0.500000 0.438380 0.551710 -0.582024
O5    O     O_R   1.000000 0.061620 0.551710 -0.612028
O6    O     O_R   1.000000 0.938380 0.551710 -0.591068
O7    O     O_R   0.591480 0.500000 0.539730 -0.595208
O8    O     O_R   0.091480 0.000000 0.539730 -0.583086
O9    O     O_R   0.591580 0.500000 0.643270 -0.593493
O10   O     O_R   0.091580 0.000000 0.643270 -0.591956
O11   O     O_R   0.591630 0.965220 0.091680 -0.626894
O12   O     O_R   0.591630 0.034780 0.091680 -0.620637
O13   O     O_R   0.091630 0.465220 0.091680 -0.628625
O14   O     O_R   0.091630 0.534780 0.091680 -0.620623
O15   O     O_R   0.500040 0.965230 0.091630 -0.615721
O16   O     O_R   0.500040 0.034770 0.091630 -0.605013
O17   O     O_R   0.000040 0.465230 0.091630 -0.621927
O18   O     O_R   0.000040 0.534770 0.091630 -0.605395
O19   O     O_R   0.408450 0.965250 0.908360 -0.595594
O20   O     O_R   0.408450 0.034750 0.908360 -0.638082
O21   O     O_R   0.908450 0.465250 0.908360 -0.595797
O22   O     O_R   0.908450 0.534750 0.908360 -0.633001
O23   O     O_R   0.500040 0.965230 0.908410 -0.612729
O24   O     O_R   0.500040 0.034770 0.908410 -0.625119
O25   O     O_R   0.000040 0.465230 0.908410 -0.615212
O26   O     O_R   0.000040 0.534770 0.908410 -0.628989
O27   O     O_R   0.551720 0.000000 0.460130 -0.620942
O28   O     O_R   0.051720 0.500000 0.460130 -0.621318
O29   O     O_R   0.448310 0.938390 0.448250 -0.601770
O30   O     O_R   0.448310 0.061610 0.448250 -0.619492
O31   O     O_R   0.948310 0.438390 0.448250 -0.600078
O32   O     O_R   0.948310 0.561610 0.448250 -0.621544
O33   O     O_R   0.551720 0.938410 0.551740 -0.609227
O34   O     O_R   0.551720 0.061590 0.551740 -0.597802
O35   O     O_R   0.051720 0.438410 0.551740 -0.607378
O36   O     O_R   0.051720 0.561590 0.551740 -0.600209
O37   O     O_R   0.448310 0.000000 0.539870 -0.621074
O38   O     O_R   0.948310 0.500000 0.539870 -0.620627
O39   O     O_R   0.551720 0.000000 0.643360 -0.616556
O40   O     O_R   0.051720 0.500000 0.643360 -0.618072
O41   O     O_R   0.408300 0.500000 0.356580 -0.592075
O42   O     O_R   0.908300 0.000000 0.356580 -0.634083
O43   O     O_R   0.408400 0.500000 0.460120 -0.637852
O44   O     O_R   0.908400 0.000000 0.460120 -0.591476
O45   O     O_R   0.499900 0.561630 0.448170 -0.610027
O46   O     O_R   0.499900 0.438370 0.448170 -0.617779
O47   O     O_R   0.999900 0.061630 0.448170 -0.613783
O48   O     O_R   0.999900 0.938370 0.448170 -0.610173
Zn1   Zn    Zn3+2 0.430960 0.000000 0.430900 1.030977
Zn2   Zn    Zn3+2 0.930960 0.500000 0.430900 1.028471
Zn3   Zn    Zn3+2 0.569060 0.000000 0.569100 1.014229
Zn4   Zn    Zn3+2 0.069060 0.500000 0.569100 1.013024
Zn5   Zn    Zn3+2 0.499870 0.500000 0.430790 1.053272
Zn6   Zn    Zn3+2 0.999870 0.000000 0.430790 1.059676
Zn7   Zn    Zn3+2 0.500010 0.500000 0.569060 1.058295
Zn8   Zn    Zn3+2 0.000010 0.000000 0.569060 1.053289
Zn9   Zn    Zn3+2 0.500030 0.953570 0.000010 1.015670
Zn10  Zn    Zn3+2 0.500030 0.046430 0.000010 0.998484
Zn11  Zn    Zn3+2 0.000030 0.453570 0.000010 1.011863
Zn12  Zn    Zn3+2 0.000030 0.546430 0.000010 0.999885
C137  C     C_2   0.555884 0.778887 0.442885 0.956284
O49   O     O_2   0.574138 0.753262 0.423644 -0.594911
O50   O     O_R   0.562001 0.821852 0.437187 -0.769576
H39   H     H_    0.582310 0.827906 0.416262 0.372336
C138  C     C_2   0.624448 0.222451 0.602705 0.957205
O51   O     O_2   0.665315 0.248463 0.635679 -0.577609
O52   O     O_R   0.637626 0.179612 0.613393 -0.787878
H40   H     H_    0.682759 0.173999 0.649869 0.353971
C139  C     C_2   0.039838 0.278793 0.419983 0.953405
O53   O     O_2   0.051766 0.253116 0.391982 -0.595610
O54   O     O_R   0.045540 0.321725 0.413426 -0.788722
H41   H     H_    0.059678 0.327730 0.383795 0.359952
C140  C     C_2   0.125373 0.722437 0.641425 0.961182
O55   O     O_2   0.166623 0.748507 0.687564 -0.546918
O56   O     O_R   0.138878 0.679612 0.656596 -0.792210
H42   H     H_    0.184575 0.674048 0.707777 0.353446
C141  C     C_2   0.432413 0.905035 0.249246 0.920717
O57   O     O_2   0.481127 0.888856 0.282810 -0.600838
O58   O     O_R   0.397815 0.887424 0.262752 -0.768788
H43   H     H_    0.417619 0.861313 0.300624 0.350644
C142  C     C_2   0.348241 0.960103 0.154353 0.976570
O59   O     O_2   0.302694 0.937517 0.104186 -0.569012
O60   O     O_R   0.342666 0.000483 0.173157 -0.783399
H44   H     H_    0.298847 0.007166 0.142047 0.345475
C143  C     C_2   0.897608 0.416489 0.210075 0.966505
O61   O     O_2   0.856045 0.391056 0.159965 -0.569326
O62   O     O_R   0.948374 0.405647 0.297500 -0.802395
H45   H     H_    0.945090 0.376048 0.311338 0.363779
C144  C     C_2   0.842552 0.486677 0.152246 0.953419
O63   O     O_2   0.834537 0.522297 0.124413 -0.608229
O64   O     O_R   0.805001 0.471104 0.162067 -0.770335
H46   H     H_    0.773020 0.492174 0.143861 0.347062
N1    N     N_2   0.315322 0.573388 0.270252 -0.301620
H47   H     H_    0.292794 0.588852 0.212322 0.237772
C145  C     C_3   0.334601 0.601876 0.337789 -0.788260
H48   H     H_    0.293669 0.614932 0.320714 0.247655
H49   H     H_    0.361409 0.628209 0.344030 0.235999
H50   H     H_    0.364386 0.585543 0.401804 0.241904
N2    N     N_2   0.815792 0.074985 0.352126 -0.311068
H51   H     H_    0.793524 0.091811 0.363668 0.231879
C146  C     C_3   0.834481 0.101504 0.319711 -0.778986
H52   H     H_    0.793276 0.113357 0.253320 0.252404
H53   H     H_    0.864256 0.083929 0.317072 0.248635
H54   H     H_    0.861113 0.128765 0.364136 0.232266
C147  C     C_2   0.315022 0.392724 0.318433 0.915314
O65   O     O_2   0.345921 0.404324 0.305182 -0.642288
O66   O     O_R   0.305647 0.349894 0.320003 -0.780150
H55   H     H_    0.326227 0.331711 0.308422 0.335967
C148  C     C_2   0.314733 0.424419 0.425947 0.940966
O67   O     O_2   0.356322 0.400159 0.480939 -0.600834
O68   O     O_R   0.293057 0.452675 0.448373 -0.807796
H56   H     H_    0.315266 0.449904 0.511677 0.350218
C149  C     C_2   0.815367 0.919767 0.212510 0.928917
O69   O     O_2   0.795537 0.941560 0.150407 -0.614347
O70   O     O_R   0.865114 0.892918 0.251892 -0.789530
H57   H     H_    0.880504 0.894319 0.223140 0.350660
C150  C     C_2   0.815001 0.892541 0.322541 0.924633
O71   O     O_2   0.808002 0.854671 0.309331 -0.613336
O72   O     O_R   0.849380 0.908058 0.406671 -0.809029
H58   H     H_    0.866373 0.884877 0.451002 0.346752
C151  C     C_2   0.688065 0.575037 0.740027 0.933586
O73   O     O_2   0.636004 0.584644 0.671697 -0.621638
O74   O     O_R   0.720152 0.600865 0.813411 -0.791288
H59   H     H_    0.695177 0.626090 0.801678 0.356325
C152  C     C_2   0.187526 0.079014 0.721951 0.927598
O75   O     O_2   0.135160 0.086534 0.652034 -0.625930
O76   O     O_R   0.219674 0.108979 0.788785 -0.798540
H60   H     H_    0.194384 0.135081 0.771517 0.356150
C153  C     C_2   0.309535 0.891407 0.828654 0.949345
O77   O     O_2   0.330298 0.906225 0.897271 -0.622100
O78   O     O_R   0.309844 0.847953 0.820175 -0.699815
H61   H     H_    0.328403 0.832245 0.875100 0.355724
C154  C     C_2   0.314829 0.913377 0.722379 0.933885
O79   O     O_2   0.341192 0.942600 0.722894 -0.634258
O80   O     O_R   0.314057 0.873674 0.694367 -0.713240
H62   H     H_    0.336713 0.873169 0.676137 0.344473
C155  C     C_2   0.808106 0.390990 0.799174 0.947641
O81   O     O_2   0.826983 0.399316 0.869935 -0.608038
O82   O     O_R   0.808871 0.349485 0.779250 -0.702082
H63   H     H_    0.826079 0.329342 0.828489 0.356007
C156  C     C_2   0.816695 0.426424 0.704116 0.930467
O83   O     O_2   0.844943 0.457887 0.715940 -0.642656
O84   O     O_R   0.815285 0.391080 0.664681 -0.713194
H64   H     H_    0.839251 0.395438 0.648968 0.343614
C157  C     C_2   0.675377 0.395557 0.659351 0.902757
O85   O     O_2   0.651136 0.405786 0.683704 -0.613211
O86   O     O_R   0.670936 0.354015 0.634749 -0.688793
H65   H     H_    0.646322 0.335592 0.639436 0.369294
C158  C     C_2   0.684168 0.431444 0.564329 0.939199
O87   O     O_2   0.674984 0.399856 0.524490 -0.539203
O88   O     O_R   0.672024 0.470974 0.526572 -0.774149
H66   H     H_    0.655091 0.469213 0.466012 0.347575
C159  C     C_2   0.176514 0.894863 0.691115 0.898833
O89   O     O_2   0.172179 0.856849 0.680103 -0.507007
O90   O     O_R   0.150688 0.913764 0.717277 -0.794860
H67   H     H_    0.129420 0.892793 0.724253 0.372880
C160  C     C_2   0.181875 0.916022 0.584408 0.921418
O91   O     O_2   0.165194 0.946610 0.537749 -0.598256
O92   O     O_R   0.175626 0.875803 0.553241 -0.720435
H68   H     H_    0.156468 0.876139 0.491297 0.346125
C161  C     C_2   0.624901 0.722243 0.617142 0.928150
O93   O     O_2   0.666339 0.748339 0.656227 -0.611174
O94   O     O_R   0.638546 0.679436 0.630941 -0.767020
H69   H     H_    0.684509 0.673892 0.675061 0.357094
C162  C     C_2   0.582666 0.278509 0.679128 0.918825
O95   O     O_2   0.610475 0.252658 0.738100 -0.579659
O96   O     O_R   0.590011 0.321374 0.697842 -0.781785
H70   H     H_    0.619902 0.327178 0.762810 0.371653
C163  C     C_2   0.122495 0.222163 0.596326 0.930159
O97   O     O_2   0.163355 0.248264 0.629897 -0.588865
O98   O     O_R   0.135629 0.179372 0.605833 -0.773720
H71   H     H_    0.180759 0.173841 0.642170 0.357325
C164  C     C_2   0.050052 0.778333 0.665798 0.953579
O99   O     O_2   0.066293 0.752385 0.720471 -0.589686
O100  O     O_R   0.054988 0.821191 0.683265 -0.806935
H72   H     H_    0.072846 0.826899 0.743618 0.355038
N3    N     N_2   0.565392 0.780800 0.663505 -0.305804
H73   H     H_    0.600042 0.801274 0.685221 0.249661
C165  C     C_3   0.584827 0.750290 0.728566 -0.725185
H74   H     H_    0.607561 0.766692 0.790438 0.246159
H75   H     H_    0.618149 0.727957 0.741475 0.243944
H76   H     H_    0.544416 0.732733 0.706462 0.242914
N4    N     N_2   0.461900 0.218858 0.574943 -0.298915
H77   H     H_    0.431893 0.193926 0.539559 0.229013
C166  C     C_3   0.439701 0.249536 0.596258 -0.677762
H78   H     H_    0.428920 0.233739 0.630008 0.243774
H79   H     H_    0.397091 0.264613 0.535731 0.240360
H80   H     H_    0.475307 0.273949 0.640636 0.257824
N5    N     N_2   0.078691 0.280379 0.667008 -0.288448
H81   H     H_    0.059445 0.304933 0.671704 0.226477
C167  C     C_3   0.106214 0.249310 0.734834 -0.720546
H82   H     H_    0.139847 0.264864 0.799765 0.246302
H83   H     H_    0.131151 0.225354 0.732579 0.250102
H84   H     H_    0.070145 0.233705 0.727224 0.226065
N6    N     N_2   0.929366 0.719113 0.524383 -0.292955
H85   H     H_    0.902231 0.694276 0.483067 0.233644
C168  C     C_3   0.895185 0.749921 0.524785 -0.702688
H86   H     H_    0.871307 0.734216 0.540053 0.249031
H87   H     H_    0.860073 0.765131 0.459618 0.239629
H88   H     H_    0.926636 0.774223 0.575345 0.250343
N7    N     N_2   0.589478 0.051782 0.276204 -0.294828
H89   H     H_    0.600087 0.079365 0.309371 0.231792
C169  C     C_3   0.644293 0.029175 0.313327 -0.743436
H90   H     H_    0.676127 0.050710 0.320299 0.231576
H91   H     H_    0.632288 0.002701 0.270264 0.235199
H92   H     H_    0.668392 0.016852 0.379093 0.245252
N8    N     N_2   0.102370 0.538110 0.287791 -0.308378
H93   H     H_    0.121941 0.563157 0.330405 0.232132
C170  C     C_3   0.148362 0.508657 0.312989 -0.703504
H94   H     H_    0.183867 0.525533 0.320935 0.250709
H95   H     H_    0.127089 0.484167 0.262094 0.228804
H96   H     H_    0.171174 0.493417 0.376074 0.256670

loop_
_geom_bond_atom_site_label_1
_geom_bond_atom_site_label_2
_ccdc_geom_bond_type
C118  C156  S    
C142  O60   S    
N4    H77   S    
O36   Zn4   S    
C150  O71   D    
C2    O28   A    
C73   C93   S    
C73   O12   A    
C102  C120  S    
C39   C41   A    
O92   H68   S    
O27   Zn3   S    
C100  C149  S    
C68   O46   A    
C67   C125  S    
O12   Zn10  S    
C61   C63   S    
C77   O19   A    
C169  H92   S    
C62   C64   S    
C11   C15   S    
C146  H52   S    
C49   C51   A    
C50   C52   A    
C149  O70   S    
C4    C12   S    
C63   H10   S    
C5    C13   S    
C82   C88   A    
C7    C15   S    
C12   N4    S    
C8    C16   S    
C53   H3    S    
C118  C155  S    
C41   C43   S    
C130  C134  S    
C42   C44   S    
C77   C113  S    
C165  H75   S    
C44   C46   S    
C65   C87   S    
C13   N5    S    
C158  O87   D    
C71   O9    A    
C141  O57   D    
C75   O16   A    
C72   O10   A    
C6    C132  S    
C91   H13   S    
C4    C130  S    
C81   C99   S    
O76   H60   S    
C40   C76   S    
O46   Zn5   S    
C32   C34   A    
C21   C123  T    
C153  O77   D    
O37   Zn1   S    
C1    C29   S    
C111  C113  A    
C94   C96   A    
C60   O38   A    
O13   Zn11  S    
C45   C142  S    
C129  C133  S    
C105  C112  A    
C87   C89   A    
N8    H93   S    
O17   Zn11  S    
O35   Zn4   S    
C170  H94   S    
C74   O13   A    
C144  O64   S    
C120  C160  S    
C112  H24   S    
C86   C110  S    
C3    C129  S    
C62   H8    S    
C143  O62   S    
C17   C109  S    
N7    H89   S    
C95   C97   S    
C57   C61   S    
C3    C7    S    
C167  H82   S    
C85   C131  S    
C65   O43   A    
C84   H20   S    
C10   C86   S    
C10   C18   S    
C84   C130  S    
C97   H16   S    
C116  C118  S    
C69   O47   A    
C147  O66   S    
C3    C11   S    
C161  O93   D    
C107  C133  S    
O86   H65   S    
C166  H78   S    
O1    Zn1   S    
C51   C53   A    
C21   C135  S    
C168  H86   S    
C113  C115  A    
C110  C140  S    
C7    C83   S    
C98   H18   S    
O100  H72   S    
C109  C135  S    
C71   O7    A    
C53   C55   A    
C110  C136  S    
N3    H73   S    
C86   C132  S    
C112  C114  A    
C90   C91   A    
C151  O74   S    
O7    Zn5   S    
C28   C46   S    
O56   H42   S    
O42   Zn6   S    
C5    H27   S    
C150  O72   S    
C44   H38   S    
C83   C129  S    
O25   Zn11  S    
C66   C88   S    
O62   H45   S    
C47   C57   A    
O60   H44   S    
C36   O34   A    
C11   N3    S    
C60   O40   A    
C9    C85   S    
C37   C123  S    
C99   C147  S    
O32   Zn2   S    
C96   C98   S    
C39   C75   S    
C14   N6    S    
C20   C122  T    
C132  C136  S    
C40   C42   A    
C131  H31   S    
C93   C95   A    
C79   O24   A    
C12   C134  S    
O50   H39   S    
C64   H12   S    
C24   C126  T    
C13   C135  S    
C59   O37   A    
C106  C111  A    
C12   C16   S    
C146  H54   S    
C138  O52   S    
C167  H84   S    
C159  O90   S    
C43   H35   S    
C46   C144  S    
C80   O25   A    
C33   N7    S    
C158  O88   S    
C5    C9    S    
O72   H58   S    
C76   O18   A    
C6    C14   S    
C152  O76   S    
C108  C138  S    
N5    H81   S    
C168  H88   S    
O70   H57   S    
C103  C105  A    
C78   O22   A    
C38   O36   A    
C43   C45   S    
C18   C164  S    
C61   H5    S    
C98   C99   S    
C119  C158  S    
C155  O82   S    
O30   Zn1   S    
C97   C100  S    
O38   Zn2   S    
C71   C103  S    
C59   O39   A    
C1    O1    A    
C82   C95   A    
O2    Zn2   S    
C37   O31   A    
C73   O11   A    
C48   C58   A    
O18   Zn12  S    
C49   C59   S    
C13   C17   S    
C2    C30   S    
C50   C60   S    
C67   O45   A    
C170  H96   S    
C45   C141  S    
O8    Zn6   S    
O22   Zn12  S    
C7    C23   S    
C48   C50   A    
C8    C24   S    
C56   C58   A    
C166  H80   S    
O41   Zn5   S    
C66   O42   A    
C169  H91   S    
O39   Zn3   S    
C120  C159  S    
C101  C103  A    
C148  O67   D    
O54   H41   S    
C63   H9    S    
C38   C124  S    
C143  O61   D    
N6    C168  S    
C58   C62   S    
C74   C94   S    
C138  O51   D    
C155  O81   D    
C1    O27   A    
C104  C106  A    
C165  H74   S    
C9    C25   S    
C144  O63   D    
O28   Zn4   S    
C75   O15   A    
C85   C109  S    
C47   C63   S    
C48   C64   S    
C27   C29   A    
C139  O53   D    
O90   H67   S    
C15   C107  S    
C111  H23   S    
O44   Zn8   S    
C107  C137  S    
C102  C115  A    
C17   C163  S    
C19   C121  T    
C115  C117  S    
C52   H2    S    
C137  O49   D    
C84   C108  S    
C106  C152  S    
O9    Zn7   S    
C27   C45   S    
O23   Zn9   S    
C156  O83   D    
N4    C166  S    
C145  H48   S    
C78   C114  S    
C85   H21   S    
C34   N8    S    
C74   O14   A    
C140  O56   S    
O94   H69   S    
C154  O79   D    
C35   C121  S    
C117  C120  S    
C151  O73   D    
C81   C96   A    
C31   H33   S    
O80   H62   S    
C145  H49   S    
C22   C136  S    
C89   N1    S    
C160  O91   D    
C108  C134  S    
O68   H56   S    
C91   C93   A    
C55   C79   S    
C130  H30   S    
C114  C116  A    
C162  O95   D    
O48   Zn6   S    
N1    H47   S    
C97   H15   S    
O29   Zn1   S    
C81   C87   A    
C51   H1    S    
C35   O33   A    
C6    H28   S    
C92   H14   S    
C4    H26   S    
O19   Zn9   S    
C164  O99   D    
C165  H76   S    
O14   Zn12  S    
C161  O94   S    
C46   C143  S    
O15   Zn9   S    
C8    C84   S    
C18   C110  S    
C56   C80   S    
C6    C10   S    
N3    C165  S    
C65   O41   A    
C19   C133  S    
C72   C104  S    
O31   Zn2   S    
C129  H29   S    
C167  H83   S    
C25   C127  T    
C147  O65   D    
O10   Zn8   S    
C159  O89   D    
C66   O44   A    
C69   O5    A    
N1    C145  S    
C70   O6    A    
O82   H63   S    
O58   H43   S    
C14   C136  S    
C163  O98   S    
C68   O4    A    
C70   O48   A    
O88   H66   S    
C3    H25   S    
C157  O85   D    
C5    C131  S    
C83   H19   S    
C69   C127  S    
O78   H61   S    
C145  H50   S    
N8    C170  S    
C101  C116  A    
O21   Zn11  S    
O45   Zn5   S    
C163  O97   D    
C79   O23   A    
C148  O68   S    
O74   H59   S    
C14   C18   S    
C62   H7    S    
C4    C8    S    
C47   C49   A    
O96   H70   S    
O47   Zn6   S    
O6    Zn8   S    
C33   C39   A    
C34   C40   A    
C146  H53   S    
O26   Zn12  S    
O52   H40   S    
C100  C150  S    
C131  C135  S    
C11   C133  S    
O3    Zn7   S    
O24   Zn10  S    
C141  O58   S    
C109  C139  S    
C80   O26   A    
C118  C119  S    
C89   C92   A    
C2    O2    A    
O33   Zn3   S    
C54   H4    S    
C117  C154  S    
C83   C107  S    
C139  O54   S    
C31   C33   A    
N2    C146  S    
O64   H46   S    
C23   C125  T    
O43   Zn7   S    
C10   C26   S    
C105  C151  S    
C98   H17   S    
C20   C134  S    
C137  O50   S    
C76   O17   A    
C43   H36   S    
C92   C94   A    
C52   C54   A    
N5    C167  S    
N7    C169  S    
O11   Zn9   S    
C54   C56   A    
C156  O84   S    
C101  C119  S    
O20   Zn10  S    
C44   H37   S    
O4    Zn7   S    
C67   O3    A    
C152  O75   D    
C168  H87   S    
O66   H55   S    
C154  O80   S    
C36   C122  S    
C170  H95   S    
O34   Zn3   S    
C164  O100  S    
C27   C41   A    
C117  C153  S    
N2    H51   S    
C166  H79   S    
C55   C57   A    
C26   C128  T    
O5    Zn8   S    
C102  C104  A    
C160  O92   S    
C37   O35   A    
C169  H90   S    
C9    C17   S    
C162  O96   S    
C64   H11   S    
C142  O59   D    
C68   C126  S    
C153  O78   S    
N6    H85   S    
C70   C128  S    
C32   H34   S    
C38   O32   A    
C82   C100  S    
C15   C161  S    
C132  H32   S    
C88   C90   A    
C140  O55   D    
C86   H22   S    
C22   C124  T    
C28   C30   A    
C72   O8    A    
C29   C31   A    
C77   O20   A    
C30   C32   A    
C35   O29   A    
C28   C42   A    
C119  C157  S    
C90   N2    S    
O16   Zn10  S    
C78   O21   A    
O84   H64   S    
O40   Zn4   S    
C16   C108  S    
C149  O69   D    
C61   H6    S    
C157  O86   S    
C36   O30   A    
O98   H71   S    
C16   C162  S    
C99   C148  S    
