data_mof_unit_40953.cif
_audit_creation_date              2012-12-10T17:20:26-0500
_audit_creation_method            fapswitch 2.2
_symmetry_space_group_name_H-M    P1
_symmetry_Int_Tables_number       1
_space_group_crystal_system       triclinic
_cell_length_a                    11.704411
_cell_length_b                    10.778844
_cell_length_c                    9.615854
_cell_angle_alpha                 90.056415
_cell_angle_beta                  90.043028
_cell_angle_gamma                 92.52426
_cell_volume                      1211.95821379

loop_
_atom_site_label
_atom_site_type_symbol
_atom_type_description
_atom_site_fract_x
_atom_site_fract_y
_atom_site_fract_z
_atom_type_partial_charge
C1    C     C_R   0.496138 0.262612 0.499958 0.787277
C2    C     C_R   0.227861 0.052391 0.717485 0.033570
C3    C     C_R   0.229470 0.922702 0.717562 -0.180343
C4    C     C_R   0.314656 0.862129 0.646710 -0.202456
C5    C     C_R   0.402453 0.929918 0.575463 0.107742
C6    C     C_R   0.402044 0.060981 0.574956 0.075713
C7    C     C_R   0.488156 0.128400 0.499701 -0.086772
C8    C     C_R   0.568808 0.067281 0.421437 -0.186742
C9    C     C_R   0.568988 0.939318 0.421624 -0.203698
C10   C     C_R   0.488593 0.870570 0.500203 -0.079284
C11   C     C_R   0.651295 0.665787 0.144029 -0.136775
C12   C     C_R   0.284157 0.499550 0.499983 0.801278
C13   C     C_R   0.724741 0.747331 0.072085 -0.202946
C14   C     C_R   0.724715 0.747386 0.928798 -0.187705
C15   C     C_R   0.651202 0.665924 0.856514 -0.130495
C16   C     C_R   0.574188 0.581616 0.925396 0.205906
C17   C     C_R   0.574204 0.581549 0.074858 0.211750
C18   C     C_R   0.429403 0.422337 0.073661 -0.045179
C19   C     C_R   0.429430 0.422362 0.925898 -0.040282
C20   C     C_R   0.496511 0.737092 0.500086 0.758821
C21   C     C_R   0.715836 0.500271 0.500053 0.802451
C22   C     C_1   0.162425 0.499735 0.500041 -0.152182
C23   C     C_1   0.059927 0.499967 0.500177 0.029473
C24   C     C_1   0.940092 0.500223 0.500237 0.015485
C25   C     C_1   0.837584 0.500326 0.500182 -0.172762
C26   C     C_R   0.313565 0.120768 0.645144 -0.249566
Cu1   Cu    Cu3+1 0.499990 0.499990 0.640660 0.943579
Cu2   Cu    Cu3+1 0.500010 0.500010 0.359340 0.944500
H1    H     H_    0.782416 0.810824 0.872896 0.166507
H2    H     H_    0.658944 0.673199 0.746914 0.195543
H3    H     H_    0.371547 0.358612 0.870737 0.160201
H4    H     H_    0.308864 0.220620 0.641801 0.170513
H5    H     H_    0.163734 0.867366 0.771021 0.184399
H6    H     H_    0.309195 0.761826 0.646515 0.164035
H7    H     H_    0.633966 0.893680 0.362658 0.137830
H8    H     H_    0.371494 0.358579 0.128519 0.147456
H9    H     H_    0.659152 0.672975 0.253620 0.190404
H10   H     H_    0.782424 0.810751 0.128276 0.154717
N1    N     N_R   0.501070 0.501210 0.147910 -0.200899
N2    N     N_R   0.501110 0.501290 0.852040 -0.202940
O1    O     O_R   0.499990 0.319640 0.618810 -0.576595
O2    O     O_R   0.500000 0.319660 0.381240 -0.574531
O3    O     O_R   0.337190 0.500000 0.618790 -0.572748
O4    O     O_R   0.337200 0.500030 0.381210 -0.568643
O5    O     O_R   0.500000 0.680340 0.618760 -0.603493
O6    O     O_R   0.500010 0.680360 0.381190 -0.589322
O7    O     O_R   0.662800 0.499970 0.618790 -0.583627
O8    O     O_R   0.662810 0.500000 0.381210 -0.589979
H11   H     H_    0.633674 0.119165 0.362389 0.154604
C27   C     C_2   0.135626 0.116005 0.791306 0.828064
O9    O     O_2   0.134042 0.229431 0.791467 -0.611739
O10   O     O_R   0.049978 0.046257 0.861172 -0.777417
H12   H     H_    0.992020 0.100087 0.907289 0.337301

loop_
_geom_bond_atom_site_label_1
_geom_bond_atom_site_label_2
_ccdc_geom_bond_type
C27   O10   S    
C23   C24   S    
C26   H4    S    
C6    C7    A    
C12   C22   S    
C9    C10   A    
Cu1   O1    S    
C20   O5    A    
Cu1   N2    S    
C18   N1    A    
C21   O8    A    
C19   H3    S    
Cu1   O5    S    
C2    C3    A    
C5    C10   A    
C12   O4    A    
C13   C14   A    
C24   C25   T    
C11   C13   A    
Cu2   O6    S    
C13   H10   S    
C6    C26   A    
C16   N2    A    
C1    O1    A    
Cu2   O8    S    
C27   O9    D    
C12   O3    A    
C22   C23   T    
C5    C6    A    
C4    H6    S    
C16   C17   A    
C19   N2    A    
C3    H5    S    
C14   H1    S    
C9    H7    S    
C3    C4    A    
Cu1   O3    S    
C1    O2    A    
C7    C8    A    
O10   H12   S    
C15   H2    S    
C2    C26   A    
C18   C19   A    
C17   N1    A    
Cu1   O7    S    
Cu1   Cu2   S    
C11   H9    S    
C21   C25   S    
C14   C15   A    
C4    C5    A    
C2    C27   S    
Cu2   N1    S    
C1    C7    S    
C18   H8    S    
C8    H11   S    
Cu2   O4    S    
C20   O6    A    
C15   C16   A    
C10   C20   S    
C8    C9    A    
C21   O7    A    
Cu2   O2    S    
C11   C17   A    
