data_mof_unit_65822.cif
_audit_creation_date              2012-12-10T21:21:45-0500
_audit_creation_method            fapswitch 2.2
_symmetry_space_group_name_H-M    P1
_symmetry_Int_Tables_number       1
_space_group_crystal_system       triclinic
_cell_length_a                    17.527193
_cell_length_b                    16.746048
_cell_length_c                    23.454235
_cell_angle_alpha                 89.988119
_cell_angle_beta                  90.896009
_cell_angle_gamma                 90.10004
_cell_volume                      6883.22865788

loop_
_atom_site_label
_atom_site_type_symbol
_atom_type_description
_atom_site_fract_x
_atom_site_fract_y
_atom_site_fract_z
_atom_type_partial_charge
C1    C     C_R   0.353172 0.499872 0.499598 0.840788
C2    C     C_R   0.530485 0.559044 0.705762 0.430226
C3    C     C_R   0.469218 0.553234 0.235238 -0.208734
C4    C     C_R   0.526155 0.556260 0.764990 -0.210226
C5    C     C_R   0.507840 0.490954 0.208564 0.172410
C6    C     C_R   0.492105 0.491081 0.791780 0.173927
C7    C     C_R   0.844839 0.567945 0.467460 -0.169716
C8    C     C_R   0.154151 0.432382 0.466858 -0.172698
C9    C     C_R   0.150621 0.568298 0.503050 -0.173630
C10   C     C_R   0.848727 0.429007 0.497297 -0.171692
C11   C     C_R   0.766475 0.568756 0.474491 -0.223882
C12   C     C_R   0.646822 0.500023 0.499218 0.846796
C13   C     C_R   0.232811 0.431561 0.473876 -0.203261
C14   C     C_R   0.229293 0.567603 0.510142 -0.220926
C15   C     C_R   0.770364 0.429675 0.504414 -0.202725
C16   C     C_R   0.729064 0.499832 0.493514 -0.042273
C17   C     C_R   0.270644 0.499404 0.495225 -0.036019
C18   C     C_R   0.885442 0.498180 0.479062 0.168170
C19   C     C_R   0.113640 0.500823 0.481256 0.168486
C20   C     C_R   0.500651 0.499856 0.389228 0.939441
C21   C     C_R   0.499324 0.499833 0.610852 0.937085
C22   C     C_1   0.965660 0.499172 0.476550 -0.068475
C23   C     C_R   0.546430 0.433474 0.241032 -0.199667
C24   C     C_1   0.033389 0.500069 0.477274 -0.068326
C25   C     C_R   0.447344 0.832769 0.466969 -0.380878
C26   C     C_R   0.549515 0.167730 0.536127 -0.382263
C27   C     C_R   0.553239 0.832719 0.532956 -0.378387
C28   C     C_R   0.450804 0.167445 0.463869 -0.377710
C29   C     C_R   0.446138 0.747759 0.468490 0.604225
C30   C     C_R   0.547646 0.252573 0.536738 0.595145
C31   C     C_R   0.554104 0.747776 0.531351 0.609851
C32   C     C_R   0.452486 0.252242 0.463277 0.592456
C33   C     C_R   0.500322 0.875760 0.500009 0.032643
C34   C     C_R   0.457896 0.430522 0.759429 -0.201779
C35   C     C_R   0.500208 0.124537 0.500000 0.040131
C36   C     C_1   0.500371 0.963595 0.500035 0.015081
C37   C     C_1   0.500314 0.036714 0.500020 0.012336
C38   C     C_R   0.563699 0.483973 0.880141 0.517928
C39   C     C_R   0.436962 0.477974 0.120212 0.518005
C40   C     C_R   0.427222 0.482710 0.881565 0.522709
C41   C     C_R   0.573119 0.488049 0.118791 0.522968
C42   C     C_R   0.428275 0.478903 0.941070 -0.022923
C43   C     C_R   0.572331 0.484493 0.059281 -0.022949
C44   C     C_R   0.499138 0.480363 0.970221 -0.021278
C45   C     C_R   0.547239 0.438261 0.300247 0.414974
C46   C     C_R   0.501567 0.480261 0.030128 -0.021282
C47   C     C_R   0.567557 0.482869 0.939627 -0.020102
C48   C     C_R   0.433181 0.476884 0.060723 -0.020121
C49   C     C_R   0.360427 0.474959 0.971961 -0.160535
C50   C     C_R   0.640252 0.486392 0.028389 -0.160526
C51   C     C_R   0.362883 0.473414 0.031297 -0.161109
C52   C     C_R   0.637902 0.485046 0.969051 -0.161178
C53   C     C_3   0.319861 0.734297 0.439897 -0.325092
C54   C     C_3   0.591675 0.272991 0.628557 -0.271891
C55   C     C_3   0.680959 0.732541 0.556982 -0.342445
C56   C     C_R   0.456910 0.435005 0.700205 0.417963
C57   C     C_3   0.411906 0.274956 0.371163 -0.280285
C58   C     C_3   0.661462 0.409807 0.341781 -0.250285
C59   C     C_3   0.344926 0.397033 0.659050 -0.252068
C60   C     C_3   0.345511 0.588601 0.320768 -0.206850
C61   C     C_3   0.647745 0.603547 0.681860 -0.201625
C62   C     C_R   0.504740 0.498611 0.327276 -0.293018
C63   C     C_R   0.495206 0.498483 0.672949 -0.294139
C64   C     C_R   0.465109 0.555958 0.294449 0.430560
H1    H     H_    0.305310 0.473342 0.950450 0.190667
H2    H     H_    0.124964 0.379821 0.450578 0.139952
H3    H     H_    0.118640 0.620884 0.514986 0.134970
H4    H     H_    0.880762 0.375175 0.506753 0.139386
H5    H     H_    0.735201 0.622800 0.464545 0.158136
H6    H     H_    0.263989 0.378506 0.461917 0.194268
H7    H     H_    0.257687 0.619935 0.527433 0.156013
H8    H     H_    0.742280 0.375803 0.518808 0.186723
H9    H     H_    0.407333 0.865380 0.440223 0.168173
H10   H     H_    0.589312 0.135663 0.563410 0.166313
H11   H     H_    0.593564 0.865122 0.559662 0.168707
H12   H     H_    0.695326 0.489216 0.049901 0.190664
H13   H     H_    0.411055 0.135251 0.436537 0.166779
H14   H     H_    0.310721 0.783413 0.408742 0.165312
H15   H     H_    0.306262 0.754281 0.483913 0.140341
H16   H     H_    0.278813 0.686210 0.428637 0.185755
H17   H     H_    0.627496 0.219558 0.637086 0.146909
H18   H     H_    0.531627 0.261859 0.641396 0.194795
H19   H     H_    0.614118 0.322070 0.655846 0.192407
H20   H     H_    0.692776 0.782591 0.586899 0.164354
H21   H     H_    0.692796 0.750765 0.512260 0.143850
H22   H     H_    0.721342 0.683810 0.568006 0.186649
H23   H     H_    0.309577 0.470682 0.053972 0.190299
H24   H     H_    0.380251 0.219185 0.360828 0.148836
H25   H     H_    0.473049 0.269197 0.359482 0.197659
H26   H     H_    0.387106 0.323238 0.344332 0.190311
H27   H     H_    0.692801 0.365162 0.368043 0.190018
H28   H     H_    0.661317 0.466841 0.366183 0.139171
H29   H     H_    0.692818 0.417434 0.301226 0.173407
H30   H     H_    0.316689 0.349564 0.633310 0.188651
H31   H     H_    0.340904 0.453545 0.634148 0.138038
H32   H     H_    0.313354 0.402685 0.699670 0.172596
H33   H     H_    0.338774 0.538126 0.351180 0.144201
H34   H     H_    0.691240 0.486886 0.946376 0.190292
H35   H     H_    0.323736 0.571326 0.277608 0.153859
H36   H     H_    0.309405 0.638536 0.335396 0.189893
H37   H     H_    0.660589 0.552878 0.652854 0.145103
H38   H     H_    0.669079 0.590414 0.725857 0.151969
H39   H     H_    0.679620 0.656536 0.666934 0.194621
H40   H     H_    0.576109 0.385116 0.220253 0.180917
H41   H     H_    0.431714 0.379938 0.780311 0.180718
H42   H     H_    0.439868 0.598028 0.209842 0.178329
H43   H     H_    0.551922 0.603498 0.790338 0.177276
H44   H     H_    0.873784 0.621634 0.453606 0.135196
N1    N     N_R   0.494298 0.485428 0.852509 -0.328300
N2    N     N_R   0.506054 0.485075 0.147846 -0.328304
N3    N     N_R   0.500000 0.707230 0.500000 -0.177450
N4    N     N_R   0.500000 0.292770 0.500000 -0.158082
O1    O     O_R   0.389110 0.566570 0.500000 -0.592717
O2    O     O_2   0.372200 0.471951 0.150347 -0.577945
O3    O     O_2   0.359848 0.484949 0.852932 -0.569699
O4    O     O_2   0.640138 0.495724 0.147426 -0.569557
O5    O     O_3   0.394635 0.703656 0.435765 -0.533528
O6    O     O_3   0.597179 0.296654 0.570992 -0.591151
O7    O     O_3   0.605795 0.703834 0.563796 -0.537268
O8    O     O_3   0.402793 0.295767 0.428969 -0.596804
O9    O     O_3   0.586777 0.381310 0.331439 -0.602433
O10   O     O_3   0.421471 0.374837 0.669292 -0.600982
O11   O     O_3   0.422063 0.614724 0.319833 -0.555252
O12   O     O_R   0.610890 0.433430 0.500000 -0.589751
O13   O     O_3   0.569063 0.621292 0.680331 -0.556128
O14   O     O_R   0.610890 0.566570 0.500000 -0.596006
O15   O     O_R   0.389110 0.433430 0.500000 -0.593746
O16   O     O_R   0.499970 0.566560 0.416150 -0.560878
O17   O     O_R   0.500030 0.433440 0.583850 -0.557428
O18   O     O_R   0.500030 0.566560 0.583850 -0.557898
O19   O     O_R   0.499970 0.433440 0.416150 -0.562853
O20   O     O_2   0.628703 0.483499 0.850008 -0.578142
Zn1   Zn    Zn3+2 0.500000 0.588860 0.500000 1.049306
Zn2   Zn    Zn3+2 0.500000 0.411140 0.500000 1.049181

loop_
_geom_bond_atom_site_label_1
_geom_bond_atom_site_label_2
_ccdc_geom_bond_type
C34   C56   A    
C8    C13   A    
C23   C45   A    
C61   H39   S    
C14   H7    S    
C2    C4    A    
O15   Zn2   S    
C60   H35   S    
C55   O7    S    
C3    C64   A    
C27   C33   A    
C7    C11   A    
C15   H8    S    
C49   H1    S    
C36   C37   T    
C35   C37   S    
C58   H29   S    
C20   O16   A    
C10   C15   A    
C53   O5    S    
C40   O3    S    
C12   O14   A    
C13   H6    S    
C15   C16   A    
C45   C62   A    
C33   C36   S    
C62   C64   A    
C9    C19   A    
C48   C51   A    
C12   C16   S    
O14   Zn1   S    
O17   Zn2   S    
C49   C51   A    
C12   O12   A    
C50   C52   A    
C8    H2    S    
C59   H30   S    
C58   H27   S    
C44   C47   A    
C7    C18   A    
C59   O10   S    
C40   C42   A    
O1    Zn1   S    
C41   C43   A    
C14   C17   A    
O19   Zn2   S    
C42   C44   A    
C32   O8    S    
C27   H11   S    
C54   H19   S    
C44   C46   A    
C39   N2    A    
C3    H42   S    
C25   C29   A    
C4    H43   S    
C46   C48   A    
C8    C19   A    
C57   H26   S    
C27   C31   A    
C28   C32   A    
C53   H16   S    
C28   C35   A    
C4    C6    A    
C60   H33   S    
C51   H23   S    
N3    Zn1   S    
C30   O6    S    
C3    C5    A    
C29   O5    S    
C6    C34   A    
C30   N4    A    
C38   O20   S    
C55   H21   S    
C60   O11   S    
C61   H37   S    
C9    C14   A    
C9    H3    S    
C50   H12   S    
C11   C16   A    
C23   H40   S    
C5    C23   A    
C39   O2    S    
C21   O17   A    
C56   C63   A    
C38   N1    A    
C28   H13   S    
C31   O7    S    
C38   C47   A    
C40   N1    A    
C57   H25   S    
C59   H31   S    
C57   O8    S    
C26   C30   A    
C41   N2    A    
C54   O6    S    
C6    N1    S    
C22   C24   T    
O18   Zn1   S    
C59   H32   S    
C41   O4    S    
C54   H18   S    
C2    C63   A    
C58   O9    S    
C32   N4    A    
C53   H15   S    
C18   C22   S    
C34   H41   S    
C29   N3    A    
C1    O15   A    
N4    Zn2   S    
C60   H36   S    
C11   H5    S    
C43   C50   A    
C47   C52   A    
C10   H4    S    
C64   O11   S    
C1    C17   S    
C57   H24   S    
C13   C17   A    
C45   O9    S    
C55   H22   S    
C61   H38   S    
O16   Zn1   S    
C10   C18   A    
C52   H34   S    
C26   H10   S    
C19   C24   S    
C25   H9    S    
C1    O1    A    
C20   C62   S    
C43   C46   A    
C21   O18   A    
C21   C63   S    
C42   C49   A    
C53   H14   S    
O12   Zn2   S    
C2    O13   S    
C26   C35   A    
C5    N2    S    
C25   C33   A    
C31   N3    A    
C7    H44   S    
C61   O13   S    
C20   O19   A    
C55   H20   S    
C58   H28   S    
C54   H17   S    
C56   O10   S    
C39   C48   A    
