data_mof_unit_60962.cif
_audit_creation_date              2012-10-26T18:00:57-0400
_audit_creation_method            fapswitch 2.2
_symmetry_space_group_name_H-M    P1
_symmetry_Int_Tables_number       1
_space_group_crystal_system       triclinic
_cell_length_a                    30.238715
_cell_length_b                    30.6159
_cell_length_c                    21.543969
_cell_angle_alpha                 89.919191
_cell_angle_beta                  134.284428
_cell_angle_gamma                 90.090584
_cell_volume                      14278.3247781

loop_
_atom_site_label
_atom_site_type_symbol
_atom_type_description
_atom_site_fract_x
_atom_site_fract_y
_atom_site_fract_z
_atom_type_partial_charge
C1    C     C_R   0.309192 0.809627 0.118650 0.540535
C2    C     C_R   0.478095 0.673845 0.002494 -0.114026
C3    C     C_R   0.348278 0.160848 0.256410 -0.148505
C4    C     C_R   0.062875 0.632853 0.669250 -0.141378
C5    C     C_R   0.880576 0.628355 0.321221 -0.147342
C6    C     C_R   0.621246 0.127725 0.680367 -0.146312
C7    C     C_R   0.380475 0.128306 0.321111 -0.145984
C8    C     C_R   0.091491 0.592651 0.683883 0.026940
C9    C     C_R   0.908053 0.593111 0.316279 0.022104
C10   C     C_R   0.592145 0.093090 0.683860 0.020554
C11   C     C_R   0.408040 0.093099 0.316249 0.020772
C12   C     C_R   0.151382 0.586468 0.763323 0.015768
C13   C     C_R   0.022972 0.173864 0.000043 -0.113594
C14   C     C_R   0.901208 0.591770 0.245639 0.016707
C15   C     C_R   0.597417 0.092359 0.753150 0.016837
C16   C     C_R   0.401286 0.091798 0.245685 0.016214
C17   C     C_3   0.203410 0.554768 0.816298 -0.275928
C18   C     C_3   0.915963 0.566101 0.203375 -0.267139
C19   C     C_3   0.580551 0.067526 0.793627 -0.265443
C20   C     C_3   0.416121 0.066168 0.203482 -0.267507
C21   C     C_3   0.238549 0.589829 0.888052 -0.261575
C22   C     C_3   0.879031 0.600954 0.131188 -0.257234
C23   C     C_3   0.617421 0.102367 0.865783 -0.258964
C24   C     C_R   0.978352 0.173884 0.003000 -0.113622
C25   C     C_3   0.379211 0.101033 0.131315 -0.258070
C26   C     C_R   0.940820 0.559385 0.381459 0.535896
C27   C     C_R   0.059284 0.559141 0.618772 0.538152
C28   C     C_R   0.440811 0.059377 0.381440 0.537786
C29   C     C_R   0.559228 0.059396 0.618555 0.537816
C30   C     C_R   0.440888 0.940516 0.381610 0.557651
C31   C     C_R   0.559173 0.940406 0.618630 0.565865
C32   C     C_R   0.940871 0.440503 0.381578 0.557338
C33   C     C_R   0.059166 0.440418 0.618607 0.564305
C34   C     C_R   0.163628 0.749113 0.998431 0.558839
C35   C     C_R   0.476687 0.832834 0.999105 -0.114811
C36   C     C_R   0.836433 0.749037 0.001809 0.557389
C37   C     C_R   0.663564 0.249002 0.998256 0.558276
C38   C     C_R   0.336428 0.249054 0.001751 0.557053
C39   C     C_R   0.589752 0.793238 0.992811 0.235386
C40   C     C_R   0.409259 0.793285 0.004803 0.234728
C41   C     C_R   0.089736 0.293252 0.992761 0.235459
C42   C     C_R   0.909230 0.293326 0.004734 0.234765
C43   C     C_R   0.613508 0.752763 0.994781 -0.006006
C44   C     C_R   0.386284 0.752801 0.004704 -0.004483
C45   C     C_R   0.113527 0.252773 0.994811 -0.005860
C46   C     C_R   0.521407 0.832824 0.996435 -0.113450
C47   C     C_R   0.886333 0.252841 0.004792 -0.005635
C48   C     C_R   0.590256 0.713381 0.995475 -0.164716
C49   C     C_R   0.410081 0.713417 0.005346 -0.164017
C50   C     C_R   0.090355 0.213396 0.995671 -0.164547
C51   C     C_R   0.910250 0.213462 0.005666 -0.164776
C52   C     C_R   0.545106 0.713356 0.997424 0.007088
C53   C     C_R   0.455109 0.713378 0.003152 0.007456
C54   C     C_R   0.045239 0.213381 0.997685 0.007092
C55   C     C_R   0.955280 0.213419 0.003479 0.006839
C56   C     C_R   0.522452 0.753397 0.998195 0.017860
C57   C     C_R   0.976610 0.332866 0.998930 -0.114295
C58   C     C_R   0.477052 0.753405 0.000692 0.017786
C59   C     C_R   0.022520 0.253425 0.998319 0.017824
C60   C     C_R   0.977129 0.253441 0.000832 0.017730
C61   C     C_2   0.964199 0.746562 0.166438 0.668788
C62   C     C_2   0.035747 0.748961 0.834204 0.669011
C63   C     C_2   0.464332 0.247860 0.166352 0.669134
C64   C     C_2   0.535615 0.248326 0.833651 0.669213
C65   C     C_2   0.531631 0.833120 0.462347 0.569107
C66   C     C_2   0.449617 0.859534 0.595789 0.582003
C67   C     C_2   0.035360 0.335259 0.458131 0.570136
C68   C     C_R   0.021337 0.332850 0.996270 -0.112842
C69   C     C_2   0.949834 0.355433 0.586466 0.581438
C70   C     C_R   0.403558 0.836206 0.264078 -0.013218
C71   C     C_R   0.594020 0.846037 0.757839 -0.021715
C72   C     C_R   0.904495 0.337110 0.262007 -0.014317
C73   C     C_R   0.691144 0.809518 0.881609 0.539733
C74   C     C_R   0.093704 0.344687 0.754958 -0.020008
C75   C     C_R   0.343641 0.843837 0.183982 0.010306
C76   C     C_R   0.658123 0.843687 0.817009 0.021619
C77   C     C_R   0.843429 0.343864 0.183770 0.011350
C78   C     C_R   0.157989 0.343773 0.817039 0.020727
C79   C     C_R   0.318554 0.886031 0.165862 -0.141425
C80   C     C_R   0.690479 0.877305 0.818485 -0.141056
C81   C     C_R   0.816864 0.385318 0.167045 -0.141266
C82   C     C_R   0.190092 0.378712 0.821062 -0.140558
C83   C     C_R   0.350290 0.917901 0.230942 -0.153656
C84   C     C_R   0.809154 0.309621 0.118606 0.540818
C85   C     C_R   0.658083 0.909185 0.753351 -0.140556
C86   C     C_R   0.848648 0.417160 0.232188 -0.152967
C87   C     C_R   0.157753 0.410578 0.755879 -0.144014
C88   C     C_R   0.407828 0.908057 0.313728 0.014044
C89   C     C_R   0.593139 0.908390 0.688185 0.018602
C90   C     C_R   0.907704 0.408088 0.313502 0.013919
C91   C     C_R   0.093032 0.408377 0.688028 0.020054
C92   C     C_R   0.435599 0.868054 0.327709 0.030270
C93   C     C_R   0.561775 0.878222 0.694861 0.028405
C94   C     C_R   0.936530 0.368974 0.325640 0.030678
C95   C     C_R   0.191145 0.309540 0.881602 0.539980
C96   C     C_R   0.061457 0.376790 0.691798 0.031776
C97   C     C_3   0.462159 0.835349 0.397931 -0.069053
C98   C     C_3   0.511151 0.846900 0.628583 -0.056206
C99   C     C_3   0.965987 0.335903 0.396219 -0.068667
C100  C     C_3   0.013291 0.344703 0.624119 -0.059449
C101  C     C_R   0.336307 0.750827 0.001459 0.532018
C102  C     C_R   0.663658 0.750807 0.998432 0.528040
C103  C     C_R   0.836329 0.250849 0.001501 0.530107
C104  C     C_R   0.163660 0.250809 0.998434 0.528380
C105  C     C_3   0.427550 0.800266 0.327740 -0.244136
C106  C     C_R   0.544918 0.793359 0.996178 0.061108
C107  C     C_3   0.546806 0.811797 0.698886 -0.255589
C108  C     C_3   0.931563 0.300861 0.326007 -0.245127
C109  C     C_3   0.048657 0.309728 0.694617 -0.254643
C110  C     C_R   0.869834 0.746329 0.926568 -0.148405
C111  C     C_R   0.130206 0.744724 0.073840 -0.146397
C112  C     C_R   0.369844 0.245260 0.926484 -0.148831
C113  C     C_R   0.630130 0.244862 0.073521 -0.148112
C114  C     C_R   0.886356 0.747104 0.005093 -0.044420
C115  C     C_R   0.113734 0.747311 0.995400 -0.041220
C116  C     C_R   0.386376 0.247045 0.005005 -0.045102
C117  C     C_R   0.453929 0.793375 0.001123 0.060115
C118  C     C_R   0.613612 0.246904 0.995016 -0.044866
C119  C     C_R   0.949182 0.746320 0.084586 0.053284
C120  C     C_R   0.050865 0.748259 0.916031 0.062116
C121  C     C_R   0.449237 0.246916 0.084463 0.053172
C122  C     C_R   0.550740 0.247052 0.915560 0.052894
C123  C     C_R   0.995981 0.744943 0.083940 0.042059
C124  C     C_R   0.004030 0.747207 0.916575 0.042777
C125  C     C_R   0.496020 0.245380 0.083787 0.041628
C126  C     C_R   0.503952 0.245550 0.916233 0.041634
C127  C     C_R   0.977726 0.745841 0.002355 -0.010384
C128  C     C_R   0.044912 0.293382 0.996146 0.060722
C129  C     C_R   0.022310 0.745937 0.998152 -0.010733
C130  C     C_R   0.477711 0.245281 0.002148 -0.010820
C131  C     C_R   0.522264 0.245241 0.997871 -0.010795
C132  C     C_R   0.914683 0.746262 0.924534 -0.019400
C133  C     C_R   0.085335 0.744372 0.075900 -0.018990
C134  C     C_R   0.414666 0.244851 0.924373 -0.019919
C135  C     C_R   0.585304 0.244522 0.075636 -0.019685
C136  C     C_R   0.059991 0.741894 0.161138 0.258084
C137  C     C_R   0.939886 0.746659 0.839132 0.258385
C138  C     C_R   0.560093 0.243116 0.161062 0.257484
C139  C     C_R   0.953919 0.293412 0.001089 0.059877
C140  C     C_R   0.439858 0.243538 0.838937 0.257408
C141  C     C_R   0.103524 0.742100 0.155694 -0.110891
C142  C     C_R   0.896399 0.746418 0.844619 -0.111455
C143  C     C_R   0.603578 0.243139 0.155535 -0.111928
C144  C     C_R   0.396376 0.243652 0.844463 -0.112211
C145  C     C_R   0.181861 0.617029 0.826310 0.016463
C146  C     C_R   0.868346 0.622003 0.182012 0.036064
C147  C     C_R   0.630202 0.122585 0.816767 0.035111
C148  C     C_R   0.368439 0.122039 0.182068 0.035553
C149  C     C_R   0.190546 0.690557 0.881383 0.568524
C150  C     C_R   0.522740 0.673834 0.999582 -0.113563
C151  C     C_R   0.809203 0.690613 0.118454 0.570311
C152  C     C_R   0.690782 0.190614 0.881556 0.569635
C153  C     C_R   0.309215 0.190614 0.118451 0.569730
C154  C     C_R   0.156294 0.657476 0.814576 0.024266
C155  C     C_R   0.841551 0.657575 0.184866 0.037608
C156  C     C_R   0.658520 0.157571 0.815223 0.037122
C157  C     C_R   0.341564 0.157575 0.184857 0.036971
C158  C     C_R   0.095541 0.665453 0.733749 -0.115320
C159  C     C_R   0.848362 0.660890 0.256504 -0.148911
C160  C     C_R   0.653397 0.160276 0.745026 -0.149065
Cu1   Cu    Cu3+1 0.280880 0.719080 0.061820 0.947869
Cu2   Cu    Cu3+1 0.455570 0.999980 0.500010 1.020433
Cu3   Cu    Cu3+1 0.044430 0.499980 0.499990 0.999911
Cu4   Cu    Cu3+1 0.955570 0.499980 0.500010 1.026512
Cu5   Cu    Cu3+1 0.719120 0.719080 0.938180 0.946095
Cu6   Cu    Cu3+1 0.780880 0.219080 0.061820 0.943383
Cu7   Cu    Cu3+1 0.219120 0.219080 0.938180 0.944348
Cu8   Cu    Cu3+1 0.219090 0.780890 0.938220 1.002088
Cu9   Cu    Cu3+1 0.780910 0.780890 0.061780 1.007372
Cu10  Cu    Cu3+1 0.719090 0.280890 0.938220 1.007351
Cu11  Cu    Cu3+1 0.280910 0.280890 0.061780 1.008899
Cu12  Cu    Cu3+1 0.544430 0.999980 0.499990 0.995931
H1    H     H_    0.390472 0.784262 0.319022 0.134442
H2    H     H_    0.847539 0.746255 0.785565 0.101579
H3    H     H_    0.652410 0.241840 0.214519 0.101589
H4    H     H_    0.347532 0.242554 0.785468 0.101494
H5    H     H_    0.073227 0.696470 0.720648 0.172862
H6    H     H_    0.828237 0.688061 0.261768 0.130904
H7    H     H_    0.674759 0.186985 0.740843 0.131407
H8    H     H_    0.328085 0.187989 0.261618 0.132104
H9    H     H_    0.016118 0.639263 0.607994 0.126784
H10   H     H_    0.884722 0.631046 0.375242 0.131597
H11   H     H_    0.618390 0.129963 0.627468 0.137889
H12   H     H_    0.564632 0.785476 0.685691 0.143856
H13   H     H_    0.384536 0.130963 0.375056 0.137224
H14   H     H_    0.191889 0.525105 0.832502 0.138715
H15   H     H_    0.966186 0.566275 0.241876 0.163117
H16   H     H_    0.530080 0.068390 0.753555 0.163103
H17   H     H_    0.466356 0.066361 0.242052 0.161961
H18   H     H_    0.223276 0.548618 0.789019 0.146596
H19   H     H_    0.893611 0.533396 0.181802 0.137947
H20   H     H_    0.602059 0.034575 0.815850 0.141111
H21   H     H_    0.393784 0.033459 0.181852 0.137499
H22   H     H_    0.247720 0.580274 0.945967 0.154919
H23   H     H_    0.896330 0.283426 0.319782 0.135894
H24   H     H_    0.908032 0.621457 0.128489 0.176734
H25   H     H_    0.588151 0.123539 0.866902 0.176551
H26   H     H_    0.408236 0.121570 0.128705 0.174768
H27   H     H_    0.608539 0.682615 0.996532 0.127100
H28   H     H_    0.392346 0.682641 0.005577 0.122685
H29   H     H_    0.108679 0.182629 0.996817 0.127105
H30   H     H_    0.892604 0.182686 0.006062 0.127929
H31   H     H_    0.278497 0.604082 0.901820 0.134604
H32   H     H_    0.835611 0.588292 0.067792 0.144210
H33   H     H_    0.659968 0.089468 0.929786 0.144626
H34   H     H_    0.069031 0.284340 0.683934 0.143173
H35   H     H_    0.335823 0.088371 0.067878 0.144029
H36   H     H_    0.539886 0.642886 0.999189 0.114689
H37   H     H_    0.461474 0.642905 0.004139 0.112301
H38   H     H_    0.040175 0.142913 0.999770 0.115132
H39   H     H_    0.961809 0.142947 0.004803 0.115192
H40   H     H_    0.459983 0.864010 0.999442 0.181040
H41   H     H_    0.537559 0.863992 0.994793 0.181714
H42   H     H_    0.959847 0.364044 0.999144 0.181871
H43   H     H_    0.037435 0.364015 0.994514 0.183145
H44   H     H_    0.273310 0.893720 0.103061 0.143013
H45   H     H_    0.821316 0.746884 0.866269 0.131845
H46   H     H_    0.740523 0.877599 0.867134 0.129373
H47   H     H_    0.770552 0.392334 0.105462 0.141651
H48   H     H_    0.240070 0.380091 0.871819 0.130177
H49   H     H_    0.329536 0.949734 0.217333 0.120921
H50   H     H_    0.683639 0.933791 0.752905 0.136351
H51   H     H_    0.826836 0.448353 0.219807 0.122661
H52   H     H_    0.183204 0.436297 0.757525 0.127887
H53   H     H_    0.444339 0.839836 0.428392 0.097988
H54   H     H_    0.509002 0.840436 0.575913 0.105164
H55   H     H_    0.949562 0.338966 0.428745 0.098425
H56   H     H_    0.178712 0.743857 0.134112 0.131259
H57   H     H_    0.014272 0.339227 0.574270 0.103717
H58   H     H_    0.456849 0.777340 0.329487 0.191113
H59   H     H_    0.525303 0.799918 0.721495 0.189954
H60   H     H_    0.960742 0.279221 0.325453 0.191215
H61   H     H_    0.025537 0.296655 0.714099 0.190320
H62   H     H_    0.624203 0.828232 0.959158 0.339238
H63   H     H_    0.374949 0.828653 0.038040 0.338811
H64   H     H_    0.124202 0.328221 0.959098 0.339640
H65   H     H_    0.874843 0.328725 0.037818 0.339190
H66   H     H_    0.999094 0.779913 0.273239 0.343265
H67   H     H_    0.321320 0.245201 0.866188 0.132561
H68   H     H_    0.005849 0.783924 0.731508 0.336588
H69   H     H_    0.498455 0.282201 0.271830 0.343021
H70   H     H_    0.501666 0.283056 0.728538 0.342920
H71   H     H_    0.125422 0.735877 0.287384 0.326352
H72   H     H_    0.874121 0.745368 0.712330 0.325519
H73   H     H_    0.625692 0.238540 0.287545 0.325919
H74   H     H_    0.374216 0.239260 0.712419 0.325697
H75   H     H_    0.607856 0.797169 0.520227 0.343673
H76   H     H_    0.382304 0.847451 0.592355 0.346786
H77   H     H_    0.112377 0.301671 0.511412 0.344011
H78   H     H_    0.678651 0.244598 0.133815 0.131530
H79   H     H_    0.879489 0.340264 0.575137 0.346797
H80   H     H_    0.152315 0.740178 0.214636 0.101729
O1    O     O_R   0.321150 0.768980 0.142380 -0.515500
O2    O     O_R   0.507570 0.954900 0.590190 -0.474978
O3    O     O_R   0.992430 0.454900 0.409810 -0.482736
O4    O     O_R   0.007570 0.454900 0.590190 -0.472125
O5    O     O_R   0.417320 0.954950 0.409780 -0.488939
O6    O     O_R   0.582680 0.954950 0.590220 -0.485047
O7    O     O_R   0.917320 0.454950 0.409780 -0.487125
O8    O     O_R   0.082680 0.454950 0.590220 -0.486768
O9    O     O_R   0.268980 0.821170 0.038000 -0.516818
O10   O     O_R   0.731020 0.821170 0.962000 -0.511943
O11   O     O_R   0.768980 0.321170 0.038000 -0.516625
O12   O     O_R   0.678850 0.768980 0.857620 -0.514507
O13   O     O_R   0.231020 0.321170 0.962000 -0.512222
O14   O     O_R   0.340930 0.723870 0.052190 -0.516526
O15   O     O_R   0.659070 0.723870 0.947810 -0.515674
O16   O     O_R   0.840930 0.223870 0.052190 -0.514150
O17   O     O_R   0.159070 0.223870 0.947810 -0.515490
O18   O     O_R   0.288760 0.776060 0.947810 -0.491540
O19   O     O_R   0.711240 0.776060 0.052190 -0.495943
O20   O     O_R   0.788760 0.276060 0.947810 -0.495264
O21   O     O_R   0.211240 0.276060 0.052190 -0.495520
O22   O     O_R   0.230990 0.678800 0.962040 -0.509084
O23   O     O_R   0.821150 0.268980 0.142380 -0.515385
O24   O     O_R   0.769010 0.678800 0.037960 -0.516194
O25   O     O_R   0.730990 0.178800 0.962040 -0.516102
O26   O     O_R   0.269010 0.178800 0.037960 -0.516337
O27   O     O_R   0.178820 0.731000 0.857660 -0.505533
O28   O     O_R   0.821180 0.731000 0.142340 -0.492965
O29   O     O_R   0.678820 0.231000 0.857660 -0.491667
O30   O     O_R   0.321180 0.231000 0.142340 -0.492421
O31   O     O_R   0.211210 0.723910 0.052230 -0.509226
O32   O     O_R   0.788790 0.723910 0.947770 -0.511436
O33   O     O_R   0.711210 0.223910 0.052230 -0.513684
O34   O     O_R   0.178850 0.268980 0.857620 -0.515112
O35   O     O_R   0.288790 0.223910 0.947770 -0.512293
O36   O     O_R   0.159040 0.776100 0.947850 -0.488013
O37   O     O_R   0.840960 0.776100 0.052150 -0.487530
O38   O     O_R   0.659040 0.276100 0.947850 -0.485808
O39   O     O_R   0.340960 0.276100 0.052150 -0.487007
O40   O     O_R   0.992480 0.545070 0.409820 -0.511731
O41   O     O_R   0.007520 0.545070 0.590180 -0.511140
O42   O     O_R   0.492480 0.045070 0.409820 -0.513657
O43   O     O_R   0.507520 0.045070 0.590180 -0.511820
O44   O     O_3   0.608328 0.832834 0.986161 -0.699145
O45   O     O_R   0.917370 0.545120 0.409780 -0.521714
O46   O     O_3   0.390092 0.832942 0.009965 -0.700692
O47   O     O_3   0.108271 0.332842 0.986020 -0.697612
O48   O     O_3   0.889971 0.332987 0.009717 -0.700137
O49   O     O_2   0.951343 0.714896 0.186006 -0.522134
O50   O     O_R   0.991590 0.783479 0.219707 -0.641648
O51   O     O_2   0.043294 0.716088 0.810400 -0.526505
O52   O     O_R   0.014072 0.787431 0.785618 -0.645305
O53   O     O_2   0.452336 0.216274 0.187257 -0.521362
O54   O     O_R   0.490800 0.285322 0.218111 -0.641855
O55   O     O_2   0.547401 0.216867 0.812371 -0.522349
O56   O     O_R   0.082630 0.545120 0.590220 -0.516971
O57   O     O_R   0.509365 0.285953 0.782311 -0.642062
O58   O     O_3   0.079703 0.737695 0.241200 -0.660273
O59   O     O_3   0.919911 0.745729 0.758624 -0.659668
O60   O     O_3   0.579942 0.239920 0.241334 -0.661002
O61   O     O_3   0.419979 0.240474 0.758641 -0.661199
O62   O     O_2   0.562229 0.865275 0.505973 -0.503106
O63   O     O_R   0.561189 0.794327 0.474399 -0.702692
O64   O     O_2   0.421433 0.890498 0.546260 -0.490867
O65   O     O_R   0.423874 0.835604 0.619505 -0.699730
O66   O     O_2   0.065113 0.367460 0.502494 -0.500994
O67   O     O_R   0.417370 0.045120 0.409780 -0.518732
O68   O     O_R   0.065866 0.297843 0.467042 -0.702463
O69   O     O_2   0.921819 0.386560 0.537344 -0.490210
O70   O     O_R   0.922214 0.329568 0.605219 -0.699846
O71   O     O_R   0.582630 0.045120 0.590220 -0.521859
O72   O     O_R   0.492430 0.954900 0.409810 -0.483413

loop_
_geom_bond_atom_site_label_1
_geom_bond_atom_site_label_2
_ccdc_geom_bond_type
C87   C91   A    
C30   O5    A    
C143  H3    S    
H77   O68   S    
C62   O51   D    
C26   O40   A    
Cu2   O67   S    
C154  C158  A    
C107  H59   S    
C138  C143  A    
C82   C87   A    
C61   O49   D    
C104  O17   A    
C91   C96   A    
C32   C90   S    
C152  C156  S    
C37   O38   A    
C151  C155  S    
C21   H22   S    
C85   H50   S    
C68   C128  A    
C81   C86   A    
C73   O12   A    
C97   C105  S    
C40   C117  A    
C67   O66   D    
C59   C60   A    
C130  C134  A    
Cu4   O41   S    
C9    C26   S    
Cu5   Cu9   S    
H75   O63   S    
C102  O19   A    
C48   H27   S    
C124  C137  A    
Cu10  O29   S    
C86   C90   A    
C37   O33   A    
C20   H17   S    
Cu7   Cu11  S    
C70   C105  S    
C17   C21   S    
C153  O26   A    
C19   C23   S    
C136  C141  A    
C19   H16   S    
C78   C82   A    
C17   H14   S    
C16   C20   S    
Cu1   O31   S    
C108  H23   S    
C56   C106  A    
C129  C133  A    
C95   O34   A    
C5    H10   S    
C13   C54   A    
C31   O2    A    
C29   O71   A    
Cu6   O33   S    
C112  C134  A    
C2    C53   A    
C6    C160  A    
C44   C101  S    
H79   O70   S    
C71   C93   A    
C119  C123  A    
C125  C138  A    
H70   O57   S    
C149  O22   A    
C130  C131  A    
C150  H36   S    
C105  H58   S    
C45   C50   A    
C49   C53   A    
C140  O61   S    
C32   O3    A    
C38   O39   A    
Cu11  O13   S    
C51   C55   A    
C152  O25   A    
C83   H49   S    
C69   C100  S    
C48   C52   A    
C113  C135  A    
C41   C45   A    
C75   C79   A    
C109  H61   S    
C2    C150  A    
C15   C147  A    
C101  O14   A    
C53   C58   A    
C21   H31   S    
C28   O42   A    
C151  O28   A    
C36   C114  S    
C5    C9    A    
C99   C108  S    
C100  H57   S    
Cu7   O34   S    
C18   H15   S    
H71   O58   S    
C27   O56   A    
C118  C122  A    
C4    C8    A    
C68   H43   S    
Cu12  O71   S    
C22   C146  S    
C34   O36   A    
C4    H9    S    
C110  C114  A    
C114  C119  A    
H65   O48   S    
C69   O69   D    
C105  H1    S    
C23   H33   S    
Cu5   O32   S    
C63   O54   S    
C27   O41   A    
C64   O57   S    
C24   H39   S    
C92   C97   S    
C54   C59   A    
C36   O37   A    
C155  C159  A    
C74   C96   A    
C156  C160  A    
C77   C84   S    
C34   C115  S    
C58   C117  A    
C30   O72   A    
C26   O45   A    
C12   C145  A    
C3    H8    S    
C127  C129  A    
C121  C125  A    
Cu11  O21   S    
C45   C104  S    
Cu9   O37   S    
C123  C127  A    
C8    C12   A    
C46   H41   S    
C144  H4    S    
Cu3   O3    S    
Cu4   O45   S    
C145  C154  A    
C79   H44   S    
H68   O52   S    
Cu6   Cu10  S    
C102  O15   A    
C86   H51   S    
C57   C68   A    
Cu2   O43   S    
C20   H21   S    
C112  C116  A    
C108  H60   S    
C8    C27   S    
C2    H37   S    
C153  O30   A    
C18   C22   S    
Cu3   O40   S    
C7    H13   S    
C76   C80   A    
C65   O63   S    
C66   O64   D    
C17   H18   S    
C100  C109  S    
C22   H32   S    
C107  H12   S    
C62   O52   S    
C66   C98   S    
C43   C102  S    
C72   C94   A    
C42   O48   S    
C96   C100  S    
C56   C58   A    
C83   C88   A    
C31   O6    A    
C148  C157  A    
C149  O27   A    
C89   C93   A    
C134  C144  A    
C66   O65   S    
C40   C44   A    
Cu2   Cu12  S    
C52   C150  A    
Cu4   O7    S    
C70   C75   A    
C3    C157  A    
C151  O24   A    
C159  H6    S    
C34   O31   A    
C99   H55   S    
C39   C106  A    
C97   H53   S    
C71   C107  S    
C137  C142  A    
C29   O43   A    
Cu12  O42   S    
C152  O29   A    
C15   C19   S    
C50   C54   A    
C111  H56   S    
C3    C7    A    
C33   C91   S    
C71   C76   A    
C95   O13   A    
C20   C25   S    
C81   H47   S    
C57   C139  A    
Cu3   O56   S    
C110  H45   S    
C25   H26   S    
Cu7   O35   S    
Cu8   O36   S    
C146  C155  A    
C31   C89   S    
C12   C17   S    
C110  C132  A    
Cu11  O30   S    
Cu6   O25   S    
C62   C120  S    
C67   C99   S    
H69   O54   S    
C55   C60   A    
Cu4   O4    S    
C1    O1    A    
C90   C94   A    
H66   O50   S    
C18   H19   S    
C47   C103  S    
C28   O67   A    
C116  C121  A    
C85   C89   A    
C47   C51   A    
C23   C147  S    
C61   O50   S    
H63   O46   S    
C21   C145  S    
C9    C14   A    
C80   C85   A    
Cu8   O18   S    
C138  O60   S    
C11   C16   A    
C77   C81   A    
C78   C95   S    
Cu5   O12   S    
Cu9   O28   S    
C103  O16   A    
C147  C156  A    
C73   C76   S    
Cu12  O6    S    
C50   H29   S    
C23   H25   S    
C33   O4    A    
C70   C92   A    
C140  C144  A    
C6    C10   A    
Cu10  O38   S    
C133  C141  A    
C35   H40   S    
C6    H11   S    
C87   H52   S    
C79   C83   A    
C41   O47   S    
C10   C29   S    
C11   C28   S    
Cu9   O10   S    
C124  C129  A    
C25   C148  S    
Cu5   O24   S    
C153  C157  S    
Cu6   O23   S    
Cu12  O72   S    
Cu1   O22   S    
C98   C107  S    
C82   H48   S    
C74   C78   A    
C84   O23   A    
C141  H80   S    
C25   H35   S    
C35   C46   A    
C104  O21   A    
Cu8   O27   S    
C44   C49   A    
C61   C119  S    
C14   C18   S    
Cu3   Cu4   S    
C63   O53   D    
C149  C154  S    
C74   C109  S    
Cu1   O1    S    
H73   O60   S    
C142  H2    S    
C24   C55   A    
C7    C11   A    
C126  C140  A    
C126  C131  A    
C158  H5    S    
C131  C135  A    
C10   C15   A    
C80   H46   S    
C46   C106  A    
C64   O55   D    
C127  C132  A    
C125  C130  A    
C4    C158  A    
C37   C118  S    
C88   C92   A    
Cu2   O5    S    
C5    C159  A    
Cu2   O2    S    
C84   O11   A    
C43   C48   A    
C19   H20   S    
H76   O65   S    
C41   C128  A    
C22   H24   S    
C63   C121  S    
H74   O61   S    
C38   O35   A    
C132  C142  A    
C1    C75   S    
C72   C108  S    
C36   O32   A    
H64   O47   S    
C65   O62   D    
C111  C133  A    
C39   C43   A    
C59   C128  A    
Cu3   O8    S    
C113  H78   S    
C13   C24   A    
Cu10  O11   S    
H62   O44   S    
C122  C126  A    
C160  H7    S    
C72   C77   A    
C137  O59   S    
C38   C116  S    
Cu1   O14   S    
C112  H67   S    
Cu7   O26   S    
C1    O9    A    
C69   O70   S    
Cu9   O19   S    
Cu10  O20   S    
C35   C117  A    
H72   O59   S    
C73   O10   A    
Cu8   O9    S    
C136  O58   S    
C67   O68   S    
C42   C139  A    
C13   H38   S    
C32   O7    A    
Cu7   O17   S    
C51   H30   S    
C101  O18   A    
C14   C146  A    
C123  C136  A    
C16   C148  A    
C103  O20   A    
C40   O46   S    
C65   C97   S    
C94   C99   S    
C64   C122  S    
C33   O8    A    
C135  C143  A    
C42   C47   A    
C109  H34   S    
Cu1   Cu8   S    
C60   C139  A    
C113  C118  A    
C120  C124  A    
C57   H42   S    
C115  C120  A    
Cu5   O15   S    
C39   O44   S    
Cu6   O16   S    
C111  C115  A    
C30   C88   S    
C93   C98   S    
C52   C56   A    
C98   H54   S    
C49   H28   S    
Cu11  O39   S    
