data_mof_unit_67662.cif
_audit_creation_date              2013-03-05T16:47:32-0500
_audit_creation_method            fapswitch 2.2
_symmetry_space_group_name_H-M    P1
_symmetry_Int_Tables_number       1
_space_group_crystal_system       triclinic
_cell_length_a                    10.871706
_cell_length_b                    10.940558
_cell_length_c                    9.866276
_cell_angle_alpha                 98.319235
_cell_angle_beta                  99.445502
_cell_angle_gamma                 92.983022
_cell_volume                      1141.97038252

loop_
_atom_site_label
_atom_site_type_symbol
_atom_site_description
_atom_site_fract_x
_atom_site_fract_y
_atom_site_fract_z
_atom_type_partial_charge
O1    O     O_R   0.517830 0.337490 0.617920 -0.574037
O2    O     O_R   0.482170 0.662510 0.382080 -0.574060
O3    O     O_R   0.482150 0.301790 0.382070 -0.581074
O4    O     O_R   0.517850 0.698210 0.617930 -0.581091
C1    C     C_R   0.500802 0.262139 0.499645 0.806821
C2    C     C_R   0.499178 0.737859 0.500356 0.806788
O5    O     O_R   0.337480 0.517860 0.617920 -0.558765
O6    O     O_R   0.662520 0.482140 0.382080 -0.558787
O7    O     O_R   0.301810 0.482160 0.382070 -0.586529
O8    O     O_R   0.698190 0.517840 0.617930 -0.586501
C3    C     C_R   0.261932 0.497667 0.498310 0.826511
C4    C     C_R   0.738068 0.502354 0.501689 0.826506
Cu1   Cu    Cu3+1 0.521120 0.521140 0.639640 0.984897
Cu2   Cu    Cu3+1 0.478880 0.478860 0.360360 0.984866
C5    C     C_R   0.108117 0.384385 0.019278 -0.069589
C6    C     C_R   0.891885 0.615693 0.980705 -0.069553
C7    C     C_R   0.108647 0.434982 0.158371 -0.145656
C8    C     C_R   0.891361 0.565097 0.841612 -0.145638
C9    C     C_R   0.066735 0.364730 0.252020 0.028372
C10   C     C_R   0.933270 0.635351 0.747964 0.028334
C11   C     C_R   0.021387 0.240018 0.205143 -0.005661
C12   C     C_R   0.978624 0.760062 0.794849 -0.005621
C13   C     C_R   0.007083 0.193117 0.063169 -0.248580
C14   C     C_R   0.992923 0.806962 0.936824 -0.248550
C15   C     C_R   0.049205 0.263526 0.969150 -0.023512
C16   C     C_R   0.950792 0.736552 0.030837 -0.023473
C17   C     C_R   0.912384 0.432055 0.394432 -0.127446
C18   C     C_R   0.087621 0.568018 0.605550 -0.127527
C19   C     C_R   0.872481 0.501323 0.506332 -0.058709
C20   C     C_R   0.127522 0.498734 0.493659 -0.058682
C21   C     C_R   0.961707 0.568630 0.615952 0.049251
C22   C     C_R   0.038296 0.431449 0.384029 0.049285
C23   C     C_R   0.301555 0.090233 0.021721 -0.106946
C24   C     C_R   0.698416 0.909812 0.978278 -0.106981
H1    H     H_    0.208012 0.072768 0.963341 0.187117
H2    H     H_    0.791959 0.927320 0.036647 0.187160
C25   C     C_R   0.327387 0.058648 0.154853 -0.155414
C26   C     C_R   0.672546 0.941406 0.845155 -0.155513
C27   C     C_R   0.449298 0.078624 0.230971 0.117931
C28   C     C_R   0.550636 0.921369 0.769041 0.117926
C29   C     C_R   0.545210 0.129886 0.171741 -0.055599
C30   C     C_R   0.454761 0.870036 0.828272 -0.055489
H3    H     H_    0.639937 0.145094 0.228922 0.148277
H4    H     H_    0.360038 0.854765 0.771090 0.148276
C31   C     C_R   0.518347 0.162742 0.038811 -0.144682
C32   C     C_R   0.481664 0.837167 0.961195 -0.144724
C33   C     C_R   0.396378 0.143142 0.963922 -0.140172
C34   C     C_R   0.603632 0.856834 0.036078 -0.140207
C35   C     C_R   0.473470 0.916017 0.376265 -0.205178
C36   C     C_R   0.526446 0.083976 0.623742 -0.205219
H5    H     H_    0.452400 0.851577 0.279655 0.165517
H6    H     H_    0.547527 0.148418 0.720349 0.165493
C37   C     C_R   0.498043 0.872112 0.503135 -0.079497
C38   C     C_R   0.501888 0.127882 0.496871 -0.079497
C39   C     C_R   0.523643 0.957721 0.629140 0.000919
C40   C     C_R   0.476266 0.042272 0.370870 0.000907
H7    H     H_    0.423804 0.413976 0.865405 0.191512
H8    H     H_    0.576198 0.586023 0.134596 0.191505
N1    N     N_2   0.447120 0.447110 0.150550 -0.281743
N2    N     N_2   0.552880 0.552890 0.849450 -0.281723
C41   C     C_2   0.508992 0.511761 0.078878 -0.049141
C42   C     C_2   0.491009 0.488238 0.921123 -0.049015
H9    H     H_    0.618321 0.620836 0.904890 0.210226
H10   H     H_    0.381683 0.379160 0.095109 0.210224
C43   C     C_2   0.022238 0.209067 0.820120 0.894238
O9    O     O_2   0.107061 0.192840 0.753763 -0.543062
O10   O     O_R   0.898878 0.170499 0.757324 -0.774126
H11   H     H_    0.891525 0.132615 0.655988 0.348441
C44   C     C_2   0.977730 0.791015 0.179868 0.894307
O11   O     O_2   0.892887 0.807241 0.246200 -0.543120
O12   O     O_R   0.101082 0.829567 0.242702 -0.774114
H12   H     H_    0.108408 0.867436 0.344041 0.348448
H13   H     H_    0.592044 0.202239 0.993268 0.150280
H14   H     H_    0.408006 0.797580 0.006729 0.150274
C45   C     C_2   0.165294 0.463834 0.932048 0.777373
O13   O     O_2   0.181917 0.421680 0.815800 -0.579058
O14   O     O_R   0.205154 0.587630 0.985872 -0.764420
H15   H     H_    0.246527 0.631310 0.919477 0.324343
C46   C     C_2   0.834701 0.536243 0.067930 0.777300
O15   O     O_2   0.818128 0.578382 0.184206 -0.579078
O16   O     O_R   0.794771 0.412465 0.014066 -0.764394
H16   H     H_    0.753359 0.368800 0.080446 0.324360
H17   H     H_    0.137491 0.532210 0.193969 0.205040
H18   H     H_    0.862528 0.467866 0.806015 0.205046
C47   C     C_2   0.980886 0.160763 0.301998 0.797359
O17   O     O_2   0.037923 0.170563 0.421200 -0.561827
O18   O     O_R   0.875887 0.076920 0.258185 -0.799769
H19   H     H_    0.852798 0.034584 0.336381 0.362547
C48   C     C_2   0.019134 0.839322 0.698005 0.797441
O19   O     O_2   0.962061 0.829590 0.578835 -0.561864
O20   O     O_R   0.124182 0.923089 0.741792 -0.799787
H20   H     H_    0.147258 0.965451 0.663607 0.362523
H21   H     H_    0.963808 0.100388 0.025403 0.155758
H22   H     H_    0.036195 0.899692 0.974594 0.155721
H23   H     H_    0.843878 0.378540 0.312351 0.143672
H24   H     H_    0.156129 0.621537 0.687621 0.143633
H25   H     H_    0.375418 0.167959 0.860842 0.168700
H26   H     H_    0.624622 0.832008 0.139151 0.168751
H27   H     H_    0.252615 0.018587 0.198549 0.175099
H28   H     H_    0.747290 0.981522 0.801460 0.175126

loop_
_geom_bond_atom_site_label_1
_geom_bond_atom_site_label_2
_geom_bond_distance
_ccdc_geom_bond_type
C5    C45   1.489447 S    
O18   H19   1.013724 S    
C4    C19   1.455166 S    
C17   C19   1.389496 A    
C17   H23   1.082937 S    
C25   H27   1.082307 S    
O7    Cu2   1.973158 S    
O16   H16   1.012306 S    
H7    C42   1.083175 S    
C27   C29   1.406155 A    
Cu1   N2    2.017376 S    
C47   O17   1.223269 D    
O5    C3    1.305211 A    
Cu2   N1    2.017376 S    
N1    H10   1.028364 S    
C36   C38   1.395188 A    
N2    H9    1.028361 S    
O1    C1    1.307838 A    
N2    C42   1.305433 D    
C9    C11   1.411077 A    
C14   C16   1.404655 A    
C5    C15   1.421916 A    
C31   H13   1.081158 S    
C30   C32   1.398678 A    
O4    Cu1   1.981111 S    
C44   O12   1.397574 S    
C23   H1    1.076181 S    
C3    C20   1.455156 S    
C35   H5    1.084035 S    
C36   H6    1.084027 S    
C48   O20   1.394767 S    
C8    C10   1.399749 A    
C41   C42   1.518543 S    
H8    C41   1.083179 S    
C31   C33   1.397569 A    
Cu1   Cu2   2.685351 S    
C29   H3    1.082058 S    
O2    C2    1.307845 A    
C30   H4    1.082047 S    
C9    C22   1.485025 S    
C32   C34   1.397564 A    
C37   C39   1.422180 A    
C6    C16   1.421913 A    
C38   C40   1.422170 A    
N1    C41   1.305433 D    
C47   O18   1.394873 S    
O10   H11   1.014005 S    
C20   C22   1.415521 A    
C1    C38   1.465834 S    
C15   C43   1.479788 S    
C26   H28   1.082311 S    
O20   H20   1.013735 S    
C46   O16   1.399845 S    
C43   O10   1.397588 S    
O14   H15   1.012295 S    
C11   C47   1.482247 S    
C23   C25   1.394266 A    
C13   H21   1.082956 S    
C7    H17   1.083618 S    
C45   O13   1.218383 D    
C14   H22   1.082960 S    
O7    C3    1.283185 A    
C8    H18   1.083623 S    
C27   C40   1.479014 S    
O6    C4    1.305211 A    
C28   C39   1.479048 S    
C6    C8    1.402503 A    
C45   O14   1.399798 S    
O3    Cu2   1.981111 S    
O8    C4    1.283193 A    
O4    C2    1.285498 A    
C10   C12   1.411097 A    
C11   C13   1.400640 A    
C23   C33   1.396195 A    
C12   C14   1.400650 A    
C24   C34   1.396191 A    
C2    C37   1.465819 S    
C32   H14   1.081174 S    
C5    C7    1.402493 A    
O6    Cu2   1.970541 S    
C17   C22   1.389703 A    
C24   C26   1.394253 A    
C18   C21   1.389718 A    
O3    C1    1.285510 A    
O8    Cu1   1.973158 S    
C35   C40   1.388943 A    
C34   H26   1.081783 S    
C36   C39   1.388957 A    
C33   H25   1.081786 S    
C18   H24   1.082922 S    
C6    C46   1.489449 S    
C18   C20   1.389495 A    
O12   H12   1.014023 S    
C19   C21   1.415553 A    
C26   C28   1.401443 A    
C35   C37   1.395187 A    
C28   C30   1.406178 A    
C7    C9    1.399751 A    
C12   C48   1.482230 S    
C24   H2    1.076171 S    
C13   C15   1.404660 A    
C44   O11   1.221538 D    
O2    Cu2   1.987368 S    
C46   O15   1.218422 D    
O5    Cu1   1.970542 S    
O1    Cu1   1.987368 S    
C25   C27   1.401448 A    
C43   O9    1.221522 D    
C16   C44   1.479798 S    
C29   C31   1.398655 A    
C48   O19   1.223197 D    
C10   C21   1.485044 S    
