data_mof_unit_64845.cif
_audit_creation_date              2012-12-10T20:10:27-0500
_audit_creation_method            fapswitch 2.2
_symmetry_space_group_name_H-M    P1
_symmetry_Int_Tables_number       1
_space_group_crystal_system       triclinic
_cell_length_a                    19.3336
_cell_length_b                    18.523436
_cell_length_c                    11.552522
_cell_angle_alpha                 89.999313
_cell_angle_beta                  91.087645
_cell_angle_gamma                 89.990767
_cell_volume                      4136.49803404

loop_
_atom_site_label
_atom_site_type_symbol
_atom_type_description
_atom_site_fract_x
_atom_site_fract_y
_atom_site_fract_z
_atom_type_partial_charge
C1    C     C_R   0.365715 0.500006 0.499711 0.884324
C2    C     C_R   0.634285 0.499994 0.500289 0.884323
C3    C     C_R   0.071747 0.500092 0.499315 0.099099
C4    C     C_R   0.928253 0.499909 0.500677 0.099100
C5    C     C_R   0.543772 0.726808 0.573091 0.430659
C6    C     C_R   0.456228 0.273192 0.426909 0.430659
C7    C     C_R   0.456228 0.726822 0.426908 0.430464
C8    C     C_R   0.543772 0.273178 0.573092 0.430464
C9    C     C_R   0.544385 0.802700 0.574040 -0.205618
C10   C     C_R   0.455615 0.197300 0.425960 -0.205618
C11   C     C_R   0.455614 0.802715 0.425958 -0.205565
C12   C     C_R   0.544386 0.197285 0.574042 -0.205566
C13   C     C_R   0.499999 0.841844 0.499999 0.152475
C14   C     C_R   0.500000 0.158156 0.500001 0.152476
C15   C     C_R   0.437574 0.962050 0.505635 0.507155
C16   C     C_R   0.562426 0.037950 0.494365 0.507155
C17   C     C_R   0.562425 0.962029 0.494364 0.507236
C18   C     C_R   0.437575 0.037971 0.505636 0.507236
C19   C     C_R   0.500000 0.077069 0.500002 -0.324072
C20   C     C_R   0.500000 0.922930 0.499998 -0.324072
C21   C     C_R   0.499888 0.500000 0.281742 0.924849
C22   C     C_R   0.500112 0.500000 0.718258 0.924850
C23   C     C_1   0.499892 0.500001 0.161378 -0.113442
C24   C     C_1   0.500108 0.499999 0.838622 -0.113442
C25   C     C_1   0.499950 0.500000 0.059283 0.047400
C26   C     C_1   0.500050 0.500000 0.940717 0.047400
C27   C     C_R   0.745569 0.434337 0.501030 -0.137022
C28   C     C_R   0.254431 0.565663 0.498966 -0.137022
C29   C     C_R   0.254416 0.434414 0.499085 -0.136089
C30   C     C_R   0.745584 0.565586 0.500911 -0.136090
C31   C     C_R   0.817203 0.434356 0.501212 -0.155865
C32   C     C_R   0.182797 0.565645 0.498782 -0.155865
C33   C     C_R   0.182779 0.434479 0.498832 -0.156654
C34   C     C_R   0.817221 0.565521 0.501162 -0.156655
C35   C     C_R   0.853139 0.499926 0.501173 0.095774
C36   C     C_R   0.146861 0.500074 0.498820 0.095774
C37   C     C_R   0.709421 0.499973 0.500765 -0.054146
C38   C     C_R   0.290579 0.500027 0.499233 -0.054147
C39   C     C_R   0.965260 0.544388 0.577792 -0.156901
C40   C     C_R   0.034740 0.455612 0.422200 -0.156901
C41   C     C_R   0.036890 0.544477 0.577116 -0.162967
C42   C     C_R   0.963110 0.455524 0.422876 -0.162968
H1    H     H_    0.718667 0.383057 0.501151 0.199085
H2    H     H_    0.281334 0.616943 0.498846 0.199086
H3    H     H_    0.281312 0.383118 0.499572 0.198815
H4    H     H_    0.718688 0.616882 0.500425 0.198815
H5    H     H_    0.844596 0.383323 0.502399 0.154930
H6    H     H_    0.155405 0.616677 0.497594 0.154930
H7    H     H_    0.155402 0.383463 0.500046 0.154371
H8    H     H_    0.844597 0.616537 0.499948 0.154371
H9    H     H_    0.938742 0.578259 0.639215 0.151707
H10   H     H_    0.061257 0.421741 0.360778 0.151707
H11   H     H_    0.065108 0.578388 0.638077 0.149023
H12   H     H_    0.934891 0.421613 0.361916 0.149023
H13   H     H_    0.578903 0.830883 0.633547 0.222683
H14   H     H_    0.421097 0.169117 0.366453 0.222683
H15   H     H_    0.421096 0.830910 0.366450 0.222759
H16   H     H_    0.578904 0.169090 0.633549 0.222759
N1    N     N_R   0.500000 0.689440 0.500000 -0.160932
N2    N     N_R   0.500000 0.310560 0.500000 -0.160932
O1    O     O_R   0.398180 0.560840 0.499970 -0.591618
O2    O     O_R   0.601820 0.439160 0.500030 -0.591618
O3    O     O_R   0.601820 0.560840 0.500030 -0.591453
O4    O     O_R   0.398180 0.439160 0.499970 -0.591453
O5    O     O_R   0.500010 0.560810 0.334440 -0.575988
O6    O     O_R   0.499990 0.439190 0.665560 -0.575988
O7    O     O_R   0.499990 0.560810 0.665560 -0.576087
O8    O     O_R   0.500010 0.439190 0.334440 -0.576087
Zn1   Zn    Zn3+2 0.500000 0.581210 0.500000 1.060240
Zn2   Zn    Zn3+2 0.500000 0.418790 0.500000 1.060240
Cl1   Cl    Cl    0.600518 0.681652 0.668649 -0.561986
Cl2   Cl    Cl    0.399482 0.318348 0.331351 -0.561987
Cl3   Cl    Cl    0.399486 0.681684 0.331350 -0.561064
Cl4   Cl    Cl    0.600514 0.318316 0.668650 -0.561063
F1    F     F_    0.376374 0.926756 0.514641 -0.582823
F2    F     F_    0.623625 0.073244 0.485359 -0.582823
F3    F     F_    0.623625 0.926714 0.485356 -0.582756
F4    F     F_    0.376375 0.073286 0.514644 -0.582756

loop_
_geom_bond_atom_site_label_1
_geom_bond_atom_site_label_2
_ccdc_geom_bond_type
C15   C18   A    
C39   H9    S    
C15   F1    S    
C17   C20   A    
C7    Cl3   S    
C6    Cl2   S    
C32   C36   A    
C24   C26   T    
C34   C35   A    
C33   H7    S    
C29   C33   A    
C33   C36   A    
O2    Zn2   S    
C18   C19   A    
C7    N1    A    
C9    C13   A    
C22   O6    A    
O3    Zn1   S    
C16   C17   A    
C29   C38   A    
C9    H13   S    
O4    Zn2   S    
C10   H14   S    
C18   F4    S    
C12   H16   S    
C40   C42   A    
C4    C35   S    
C31   H5    S    
C32   H6    S    
C8    Cl4   S    
C15   C20   A    
C34   H8    S    
C30   C34   A    
C27   C31   A    
C6    N2    A    
C28   C32   A    
C39   C41   A    
C10   C14   A    
C5    N1    A    
C25   C26   S    
C40   H10   S    
C28   H2    S    
C30   C37   A    
C29   H3    S    
O7    Zn1   S    
C7    C11   A    
C5    C9    A    
C4    C39   A    
N2    Zn2   S    
C8    C12   A    
C17   F3    S    
C41   H11   S    
C1    C38   S    
N1    Zn1   S    
C12   C14   A    
C3    C40   A    
C21   C23   S    
C21   O8    A    
C31   C35   A    
C1    O4    A    
C2    O3    A    
O1    Zn1   S    
C3    C41   A    
C13   C20   S    
C21   O5    A    
C16   F2    S    
C14   C19   S    
C30   H4    S    
C1    O1    A    
C6    C10   A    
C5    Cl1   S    
C42   H12   S    
C11   C13   A    
C2    C37   S    
O6    Zn2   S    
C4    C42   A    
C3    C36   S    
C27   C37   A    
C16   C19   A    
O5    Zn1   S    
C22   C24   S    
C23   C25   T    
C22   O7    A    
C27   H1    S    
O8    Zn2   S    
C28   C38   A    
C11   H15   S    
C8    N2    A    
C2    O2    A    
