data_mof_unit_47284.cif
_audit_creation_date              2012-10-26T20:02:58-0400
_audit_creation_method            fapswitch 2.2
_symmetry_space_group_name_H-M    P1
_symmetry_Int_Tables_number       1
_space_group_crystal_system       triclinic
_cell_length_a                    10.772712
_cell_length_b                    12.36191
_cell_length_c                    13.271266
_cell_angle_alpha                 117.106944
_cell_angle_beta                  76.332666
_cell_angle_gamma                 101.179765
_cell_volume                      1521.05962428

loop_
_atom_site_label
_atom_site_type_symbol
_atom_type_description
_atom_site_fract_x
_atom_site_fract_y
_atom_site_fract_z
_atom_type_partial_charge
Br1   Br    Br    0.185587 0.889783 0.250413 -0.075959
Br2   Br    Br    0.289807 0.201470 0.141613 -0.026756
Br3   Br    Br    0.813904 0.484851 0.880708 0.017454
Br4   Br    Br    0.391414 0.366813 0.639974 -0.121938
Br5   Br    Br    0.812791 0.118675 0.757033 -0.089067
C1    C     C_R   0.516396 0.854219 0.286289 0.611854
C2    C     C_R   0.562053 0.553978 0.026951 -0.074114
C3    C     C_R   0.496023 0.643212 0.126843 -0.142058
C4    C     C_R   0.739209 0.001426 0.502302 0.619219
C5    C     C_R   0.508794 0.430358 0.989273 -0.039533
C6    C     C_R   0.418092 0.392481 0.066723 -0.127230
C7    C     C_R   0.356254 0.481888 0.166957 0.457895
C8    C     C_R   0.385771 0.604109 0.189035 0.463521
C9    C     C_R   0.527944 0.348315 0.872771 0.374936
C10   C     C_R   0.412062 0.183945 0.919823 0.385858
C11   C     C_R   0.544371 0.768332 0.163981 -0.033276
C12   C     C_3   0.121424 0.003194 0.503135 -0.164607
C13   C     C_R   0.701182 0.338411 0.318515 0.464649
C14   C     C_R   0.313347 0.751997 0.633002 0.579511
C15   C     C_R   0.250891 0.641181 0.630000 0.494639
C16   C     C_R   0.485156 0.145036 0.713662 0.609927
C17   C     C_R   0.310912 0.534452 0.562178 0.429899
C18   C     C_R   0.440716 0.540155 0.509596 -0.069721
C19   C     C_R   0.490103 0.649906 0.497855 -0.005204
C20   C     C_R   0.518252 0.438757 0.458403 -0.081483
C21   C     C_R   0.627042 0.438447 0.373946 -0.060659
C22   C     C_R   0.662454 0.540204 0.349305 0.449651
C23   C     C_3   0.037938 0.991711 0.612812 0.706123
C24   C     C_R   0.598787 0.645061 0.413701 0.017626
C25   C     C_R   0.499746 0.343396 0.494650 0.329088
C26   C     C_R   0.671947 0.242695 0.350931 0.564724
C27   C     C_R   0.259918 0.001972 0.502378 0.644403
C28   C     C_3   0.954261 0.122906 0.502429 0.230793
C29   C     C_3   0.096100 0.126122 0.507076 0.639347
C30   C     C_3   0.892917 0.991543 0.613924 0.481588
C31   C     C_3   0.933763 0.893906 0.394247 0.635624
C32   C     C_3   0.876872 0.002995 0.504661 -0.187316
C33   C     C_3   0.078217 0.892602 0.393535 0.457369
C34   C     C_R   0.381517 0.266653 0.034514 0.232504
C35   C     C_R   0.476142 0.226140 0.837046 0.012162
C36   C     C_R   0.645532 0.803335 0.092574 0.416015
C37   C     C_R   0.714516 0.715359 0.998536 0.480792
C38   C     C_R   0.680201 0.591640 0.971149 0.231305
Cu1   Cu    Cu3+1 0.529690 0.098270 0.475420 1.294610
Cu2   Cu    Cu3+1 0.470310 0.901730 0.524580 1.243536
F1    F     F_    0.902352 0.226110 0.591365 -0.477405
F2    F     F_    0.744296 0.147295 0.297136 -0.462970
F3    F     F_    0.763509 0.541688 0.266201 -0.459410
F4    F     F_    0.803323 0.333458 0.234369 -0.424077
F5    F     F_    0.253432 0.854998 0.697158 -0.426333
F6    F     F_    0.237136 0.426038 0.536460 -0.434723
F7    F     F_    0.128865 0.635982 0.686554 -0.411899
F8    F     F_    0.170972 0.146993 0.415873 -0.509407
F9    F     F_    0.126790 0.223540 0.607213 -0.407344
F10   F     F_    0.077494 0.086475 0.710829 -0.473536
F11   F     F_    0.867706 0.784382 0.389821 -0.452711
F12   F     F_    0.828614 0.882158 0.612564 -0.468530
F13   F     F_    0.917541 0.903327 0.297885 -0.534041
F14   F     F_    0.093674 0.784499 0.394886 -0.405409
F15   F     F_    0.055494 0.884233 0.614398 -0.386909
F16   F     F_    0.370017 0.063968 0.888688 -0.485163
F17   F     F_    0.254529 0.452455 0.235689 -0.469879
F18   F     F_    0.582464 0.391262 0.793030 -0.547134
F19   F     F_    0.689832 0.922516 0.122313 -0.454052
F20   F     F_    0.823478 0.751424 0.941014 -0.422940
F21   F     F_    0.302290 0.682930 0.269180 -0.492623
H1    H     H_    0.948420 0.126535 0.421372 0.256295
H2    H     H_    0.635191 0.719416 0.391932 0.223569
N1    N     N_R   0.574690 0.246280 0.438200 -0.300450
N2    N     N_R   0.426100 0.754320 0.561190 -0.300454
O1    O     O_R   0.537340 0.972510 0.318130 -0.420037
O2    O     O_R   0.487200 0.806530 0.359650 -0.535258
O3    O     O_R   0.707380 0.082980 0.479220 -0.435859
O4    O     O_R   0.657240 0.917000 0.520740 -0.480002
O5    O     O_R   0.512800 0.193470 0.640350 -0.434513
O6    O     O_R   0.462660 0.027490 0.681870 -0.420989
O7    O     O_R   0.342760 0.083000 0.479260 -0.448487
O8    O     O_R   0.292620 0.917020 0.520780 -0.375019

loop_
_geom_bond_atom_site_label_1
_geom_bond_atom_site_label_2
_ccdc_geom_bond_type
C22   F3    S    
C2    C5    A    
C3    C8    A    
C22   C24   A    
C36   C37   A    
C14   C15   A    
C13   C21   A    
C19   N2    A    
C2    C3    A    
C1    O2    A    
C16   O6    A    
Br3   C38   S    
C21   C22   A    
Cu2   O6    S    
Cu1   O7    S    
C30   C32   S    
C31   F13   S    
Cu1   O1    S    
C19   C24   A    
C27   O7    A    
Br2   C34   S    
C23   C30   S    
C37   F20   S    
C18   C19   A    
Cu2   O8    S    
C2    C38   A    
C3    C11   A    
C26   F2    S    
Cu2   O2    S    
C28   F1    S    
C4    O3    A    
C23   F10   S    
C8    F21   S    
C23   F15   S    
C1    O1    A    
C5    C9    A    
C20   C21   A    
C9    C35   A    
C28   C32   S    
Cu2   O4    S    
Cu1   O5    S    
C31   F11   S    
C24   H2    S    
C7    F17   S    
C4    C32   S    
C28   C29   S    
C10   F16   S    
Cu1   N1    S    
C6    C34   A    
C10   C34   A    
Br1   C33   S    
C27   O8    A    
C15   C17   A    
C29   F9    S    
C12   C29   S    
C25   N1    A    
Cu1   Cu2   S    
C28   H1    S    
C20   C25   A    
C31   C32   S    
Cu2   N2    S    
C12   C23   S    
C6    C7    A    
C16   O5    A    
C30   F12   S    
C31   C33   S    
C15   F7    S    
C14   F5    S    
C16   C35   S    
C9    F18   S    
Br5   C30   S    
C12   C33   S    
C18   C20   A    
Cu1   O3    S    
C10   C35   A    
C5    C6    A    
C1    C11   S    
C33   F14   S    
C4    O4    A    
C26   N1    A    
C7    C8    A    
C29   F8    S    
C37   C38   A    
C12   C27   S    
C17   C18   A    
C14   N2    A    
C13   C26   A    
C36   F19   S    
C11   C36   A    
Br4   C25   S    
C13   F4    S    
C17   F6    S    
