data_mof_unit_40063.cif
_audit_creation_date              2012-12-10T16:49:23-0500
_audit_creation_method            fapswitch 2.2
_symmetry_space_group_name_H-M    P1
_symmetry_Int_Tables_number       1
_space_group_crystal_system       triclinic
_cell_length_a                    7.852632
_cell_length_b                    8.607314
_cell_length_c                    12.71636
_cell_angle_alpha                 88.279536
_cell_angle_beta                  87.486089
_cell_angle_gamma                 92.296945
_cell_volume                      857.547615199

loop_
_atom_site_label
_atom_site_type_symbol
_atom_type_description
_atom_site_fract_x
_atom_site_fract_y
_atom_site_fract_z
_atom_type_partial_charge
Br1   Br    Br    0.556192 0.811971 0.176729 -0.455053
Br2   Br    Br    0.443759 0.188014 0.823270 -0.455045
Br3   Br    Br    0.979307 0.671243 0.363613 -0.231270
Br4   Br    Br    0.020688 0.328769 0.636394 -0.231270
Br5   Br    Br    0.284969 0.993171 0.371681 -0.343913
Br6   Br    Br    0.715091 0.006832 0.628271 -0.343865
C1    C     C_R   0.456957 0.206199 0.497696 0.927365
C2    C     C_R   0.554795 0.324997 0.155418 -0.208948
C3    C     C_R   0.463963 0.395726 0.876976 0.217977
C4    C     C_R   0.536059 0.604278 0.123020 0.217967
C5    C     C_R   0.497074 0.422247 0.981935 0.052505
C6    C     C_R   0.502936 0.577753 0.018064 0.052489
C7    C     C_2   0.443093 0.046957 0.479005 0.024957
C8    C     C_2   0.556925 0.953044 0.520979 0.024987
C9    C     C_R   0.543046 0.793800 0.502299 0.927370
C10   C     C_R   0.465722 0.504583 0.699141 0.918745
C11   C     C_R   0.534278 0.495422 0.300859 0.918743
C12   C     C_R   0.554159 0.476467 0.190736 -0.083910
C13   C     C_R   0.445847 0.523535 0.809265 -0.083936
C14   C     C_R   0.472317 0.702333 0.948875 -0.087317
C15   C     C_R   0.527614 0.297645 0.051137 -0.087296
C16   C     C_R   0.445123 0.674978 0.844593 -0.208970
H1    H     H_    0.567365 0.227223 0.209962 0.193743
H2    H     H_    0.432464 0.772729 0.790059 0.193741
H3    H     H_    0.473390 0.821565 0.973292 0.213170
H4    H     H_    0.526454 0.178390 0.026735 0.213166
N1    N     N_2   0.054030 0.541640 0.471970 0.078564
N2    N     N_2   0.945970 0.458360 0.528030 0.078566
O1    O     O_R   0.609680 0.261530 0.506880 -0.587904
O2    O     O_R   0.390320 0.738470 0.493120 -0.587908
O3    O     O_R   0.323330 0.288220 0.488910 -0.576909
O4    O     O_R   0.676670 0.711780 0.511090 -0.576913
O5    O     O_R   0.619510 0.488830 0.661140 -0.579244
O6    O     O_R   0.380490 0.511170 0.338860 -0.579245
O7    O     O_R   0.333160 0.515520 0.643180 -0.599537
O8    O     O_R   0.666840 0.484480 0.356820 -0.599538
Zn1   Zn    Zn3+2 0.691200 0.482180 0.511990 1.126969
Zn2   Zn    Zn3+2 0.308800 0.517820 0.488010 1.126967

loop_
_geom_bond_atom_site_label_1
_geom_bond_atom_site_label_2
_ccdc_geom_bond_type
C5    C6    A    
C1    O1    A    
C11   O8    A    
C10   O5    A    
Br6   C8    S    
Br5   C7    S    
C2    H1    S    
O3    Zn2   S    
C15   H4    S    
C6    C14   A    
Br3   N1    S    
C2    C15   A    
C9    O4    A    
O6    Zn2   S    
C7    C8    D    
C3    C5    A    
C4    C6    A    
N2    Zn1   S    
C4    C12   A    
C10   C13   S    
O8    Zn1   S    
Br4   N2    S    
C14   C16   A    
C11   C12   S    
C10   O7    A    
C16   H2    S    
C1    O3    A    
C14   H3    S    
C2    C12   A    
N1    Zn2   S    
C5    C15   A    
C1    C7    S    
C13   C16   A    
O2    Zn2   S    
C9    O2    A    
C11   O6    A    
O1    Zn1   S    
N1    N2    D    
O7    Zn2   S    
O4    Zn1   S    
C8    C9    S    
Br2   C3    S    
C3    C13   A    
O5    Zn1   S    
Br1   C4    S    
