data_mof_unit_34763.cif
_audit_creation_date              2013-03-05T15:44:58-0500
_audit_creation_method            fapswitch 2.2
_symmetry_space_group_name_H-M    P1
_symmetry_Int_Tables_number       1
_space_group_crystal_system       triclinic
_cell_length_a                    9.976014
_cell_length_b                    10.711364
_cell_length_c                    16.527579
_cell_angle_alpha                 89.897019
_cell_angle_beta                  85.418159
_cell_angle_gamma                 90.637715
_cell_volume                      1760.32343368

loop_
_atom_site_label
_atom_site_type_symbol
_atom_site_description
_atom_site_fract_x
_atom_site_fract_y
_atom_site_fract_z
_atom_type_partial_charge
O1    O     O_R   0.386960 0.680940 0.500010 -0.620992
O2    O     O_R   0.613100 0.680900 0.499990 -0.605943
C1    C     C_R   0.500821 0.737561 0.502965 0.911454
O3    O     O_R   0.373570 0.500040 0.615810 -0.613707
O4    O     O_R   0.599710 0.500000 0.615790 -0.570061
C2    C     C_R   0.481710 0.498953 0.654013 0.911571
Zn1   Zn    Zn3+2 0.349000 0.500030 0.500020 0.950548
Zn2   Zn    Zn3+2 0.651000 0.499970 0.499980 0.978378
O5    O     O_R   0.386900 0.319100 0.500010 -0.619680
O6    O     O_R   0.613040 0.319060 0.499990 -0.598442
O7    O     O_R   0.400290 0.500000 0.384210 -0.607510
O8    O     O_R   0.626430 0.499960 0.384190 -0.616493
C3    C     C_R   0.498649 0.262553 0.504240 0.965021
C4    C     C_R   0.518316 0.509796 0.346377 0.882913
C5    C     C_R   0.471573 0.515518 0.741808 -0.160759
C6    C     C_R   0.578083 0.481557 0.788675 0.291550
C7    C     C_R   0.578750 0.526678 0.867722 -0.242100
C8    C     C_R   0.472957 0.600156 0.900990 0.102452
C9    C     C_R   0.362831 0.624423 0.856777 -0.153940
C10   C     C_R   0.362633 0.583504 0.777247 -0.237901
C11   C     C_R   0.467968 0.701492 0.158171 0.284035
C12   C     C_R   0.438551 0.642425 0.233774 -0.164470
C13   C     C_R   0.653098 0.534768 0.216253 -0.247447
C14   C     C_R   0.679907 0.588367 0.139731 0.004168
C15   C     C_R   0.582367 0.665053 0.108423 0.006719
C16   C     C_2   0.469192 0.639112 0.985397 -0.154059
C17   C     C_2   0.580479 0.675546 0.019733 -0.131839
C18   C     C_R   0.531961 0.556991 0.262539 -0.139820
H1    H     H_    0.727979 0.475185 0.240065 0.161101
H2    H     H_    0.674252 0.687557 0.982345 0.153203
H3    H     H_    0.278800 0.677897 0.883148 0.146323
H4    H     H_    0.279939 0.610022 0.742374 0.174020
H5    H     H_    0.374844 0.623427 0.021694 0.168689
H6    H     H_    0.659415 0.500545 0.904339 0.181167
C19   C     C_2   0.605879 0.069514 0.530740 -0.153495
C20   C     C_2   0.493519 0.132304 0.520951 -0.347467
H7    H     H_    0.702791 0.116990 0.530634 0.183150
H8    H     H_    0.394292 0.089330 0.528843 0.151296
C21   C     C_2   0.601629 0.934866 0.540380 0.024708
C22   C     C_2   0.504256 0.870097 0.505964 -0.394449
H9    H     H_    0.427654 0.914634 0.473480 0.134185
C23   C     C_2   0.078282 0.410771 0.468556 -0.108655
N1    N     N_2   0.147950 0.498670 0.499150 -0.180980
H10   H     H_    0.130700 0.330095 0.442900 0.157248
H11   H     H_    0.100522 0.578673 0.519092 0.165386
C24   C     C_2   0.928566 0.414749 0.464138 -0.133632
N2    N     N_2   0.852290 0.498640 0.499130 -0.181674
H12   H     H_    0.882166 0.341468 0.430386 0.154100
H13   H     H_    0.894050 0.564029 0.535053 0.181406
N3    N     N_R   0.683978 0.400324 0.757718 0.214649
O9    O     O_R   0.804187 0.412280 0.782288 -0.405728
O10   O     O_R   0.656686 0.304055 0.713711 -0.382086
C25   C     C_R   0.809461 0.560571 0.093131 0.096448
C26   C     C_R   0.848632 0.436491 0.078502 -0.163773
C27   C     C_R   0.972482 0.410948 0.036402 -0.098123
C28   C     C_R   0.058357 0.508797 0.009045 -0.115560
C29   C     C_R   0.020488 0.632415 0.023676 -0.092421
C30   C     C_R   0.896711 0.658401 0.065695 -0.141818
H14   H     H_    0.783120 0.359740 0.099387 0.144150
H15   H     H_    0.002017 0.315229 0.025104 0.152278
H16   H     H_    0.154287 0.488784 0.976662 0.138085
H17   H     H_    0.087253 0.708128 0.002713 0.162853
H18   H     H_    0.869138 0.754615 0.077334 0.150558
C31   C     C_R   0.709076 0.876036 0.584364 0.189205
C32   C     C_R   0.844479 0.888039 0.554437 -0.156926
C33   C     C_R   0.945323 0.830732 0.594894 -0.179777
C34   C     C_R   0.911893 0.762194 0.665827 -0.110963
C35   C     C_R   0.777586 0.750953 0.696457 -0.090263
C36   C     C_R   0.676286 0.807454 0.655940 -0.110491
H19   H     H_    0.871658 0.940180 0.499236 0.116156
H20   H     H_    0.049341 0.839127 0.571106 0.137503
H21   H     H_    0.990049 0.717808 0.697043 0.140942
H22   H     H_    0.752058 0.698465 0.751610 0.148853
H23   H     H_    0.572512 0.797584 0.680079 0.115586
C37   C     C_R   0.312046 0.673925 0.282080 0.201019
C38   C     C_R   0.304715 0.781668 0.330258 -0.070123
C39   C     C_R   0.183452 0.813389 0.373330 -0.126268
C40   C     C_R   0.068649 0.738928 0.367317 -0.130767
C41   C     C_R   0.074930 0.632542 0.318367 -0.117982
C42   C     C_R   0.196370 0.599557 0.276152 -0.051939
H24   H     H_    0.392655 0.840845 0.334079 0.105669
H25   H     H_    0.178262 0.896049 0.410976 0.115862
H26   H     H_    0.974741 0.763714 0.400366 0.133019
H27   H     H_    0.985735 0.575556 0.313215 0.135523
H28   H     H_    0.200134 0.517199 0.238143 0.118264
N4    N     N_R   0.382189 0.797626 0.130461 0.195778
O11   O     O_R   0.252125 0.782994 0.135425 -0.426743
O12   O     O_R   0.435243 0.895656 0.093277 -0.379924

loop_
_geom_bond_atom_site_label_1
_geom_bond_atom_site_label_2
_geom_bond_distance
_ccdc_geom_bond_type
C27   C28   1.397596 A    
C26   C27   1.398719 A    
C19   C20   1.334279 D    
C8    C16   1.454554 S    
C9    H3    1.083518 S    
C29   H17   1.082344 S    
N2    H13   1.025246 S    
C39   C40   1.398501 A    
Zn1   O7    1.941382 S    
C21   C31   1.487404 S    
C16   C17   1.341154 D    
C13   H1    1.084858 S    
C19   H7    1.087240 S    
C6    N3    1.438943 S    
C8    C9    1.393715 A    
C41   H27   1.082499 S    
O7    C4    1.291403 A    
N4    O12   1.301429 A    
C5    C6    1.414369 A    
C28   C29   1.397207 A    
C34   H21   1.082491 S    
C23   C24   1.502231 S    
O5    C3    1.281357 A    
O1    Zn1   1.970305 S    
C2    C5    1.457766 S    
C24   N2    1.291409 D    
C40   H26   1.082034 S    
C9    C10   1.386469 A    
C6    C7    1.394295 A    
N3    O10   1.301744 A    
C13   C14   1.393061 A    
Zn1   N1    2.006768 S    
C37   C42   1.404893 A    
C33   C34   1.397700 A    
C12   C18   1.421273 A    
C27   H15   1.082364 S    
C17   H2    1.085451 S    
C23   H10   1.084422 S    
C12   C37   1.481013 S    
O3    Zn1   1.948685 S    
N3    O9    1.301525 A    
C26   H14   1.083102 S    
C5    C10   1.404263 A    
C24   H12   1.084580 S    
C34   C35   1.397788 A    
C14   C15   1.409258 A    
C3    C20   1.421306 S    
O3    C2    1.292952 A    
C21   C22   1.350250 D    
C40   C41   1.397783 A    
C35   C36   1.398653 A    
C14   C25   1.484107 S    
C13   C18   1.400576 A    
O1    C1    1.286109 A    
C19   C21   1.450529 S    
C37   C38   1.402542 A    
C42   H28   1.083149 S    
C16   H5    1.086234 S    
C33   H20   1.082619 S    
Zn2   O8    1.948688 S    
C7    C8    1.401052 A    
C36   H23   1.083288 S    
C31   C36   1.405630 A    
C38   C39   1.399322 A    
N1    H11   1.025657 S    
C22   H9    1.082832 S    
O8    C4    1.294182 A    
C1    C22   1.420724 S    
C7    H6    1.083685 S    
C10   H4    1.083530 S    
C30   H18   1.083210 S    
Zn1   O5    1.978667 S    
C11   C15   1.411375 A    
C11   N4    1.443225 S    
N4    O11   1.301254 A    
O2    Zn2   1.978669 S    
O6    C3    1.282657 A    
C38   H24   1.082608 S    
O4    Zn2   1.941382 S    
C25   C30   1.405787 A    
C25   C26   1.405414 A    
C15   C17   1.471572 S    
C31   C32   1.405331 A    
C20   H8    1.085266 S    
O2    C1    1.277427 A    
C35   H22   1.081543 S    
Zn2   N2    2.007208 S    
C29   C30   1.398509 A    
O4    C2    1.290659 A    
C39   H25   1.082395 S    
C41   C42   1.398108 A    
Zn2   O6    1.970305 S    
C32   C33   1.398466 A    
C23   N1    1.291692 D    
C28   H16   1.082310 S    
C4    C18   1.469666 S    
C11   C12   1.407897 A    
C32   H19   1.083088 S    
