data_mof_unit_42980.cif
_audit_creation_date              2012-12-10T17:32:13-0500
_audit_creation_method            fapswitch 2.2
_symmetry_space_group_name_H-M    P1
_symmetry_Int_Tables_number       1
_space_group_crystal_system       triclinic
_cell_length_a                    12.328544
_cell_length_b                    13.185801
_cell_length_c                    15.028126
_cell_angle_alpha                 77.931633
_cell_angle_beta                  101.430979
_cell_angle_gamma                 116.293211
_cell_volume                      2126.25058733

loop_
_atom_site_label
_atom_site_type_symbol
_atom_type_description
_atom_site_fract_x
_atom_site_fract_y
_atom_site_fract_z
_atom_type_partial_charge
C1    C     C_R   0.854542 0.286871 0.505681 0.791198
C2    C     C_R   0.104751 0.559637 0.099560 0.124082
C3    C     C_R   0.776977 0.381143 0.029244 -0.280261
C4    C     C_R   0.775999 0.387796 0.935165 0.468922
C5    C     C_R   0.886334 0.445325 0.896549 0.006797
C6    C     C_R   0.996357 0.501738 0.951770 0.007461
C7    C     C_R   0.107659 0.559356 0.913496 0.143233
C8    C     C_R   0.215761 0.617872 0.968038 -0.212928
C9    C     C_R   0.214064 0.619138 0.060292 -0.207908
C10   C     C_R   0.889029 0.447613 0.803764 -0.213941
C11   C     C_R   0.999635 0.501889 0.766853 -0.074963
C12   C     C_R   0.000313 0.500999 0.670767 0.804283
C13   C     C_R   0.108757 0.557252 0.821268 -0.241930
C14   C     C_R   0.264381 0.029592 0.412245 -0.194056
C15   C     C_R   0.226965 0.834591 0.474806 -0.051797
C16   C     C_R   0.818324 0.083168 0.535189 -0.209478
C17   C     C_R   0.742374 0.966723 0.540800 0.319789
C18   C     C_R   0.616395 0.931436 0.520368 -0.257864
C19   C     C_R   0.564751 0.011340 0.488265 0.045075
C20   C     C_R   0.644250 0.128529 0.470209 0.080301
C21   C     C_R   0.436453 0.978321 0.471261 0.093691
C22   C     C_R   0.390163 0.060303 0.428767 0.171695
C23   C     C_R   0.144887 0.713280 0.488208 0.807741
C24   C     C_R   0.469626 0.171526 0.400982 -0.245005
C25   C     C_R   0.593975 0.204416 0.419474 -0.191020
C26   C     C_R   0.352342 0.866440 0.496281 -0.246292
C27   C     C_R   0.183084 0.917090 0.434902 -0.195484
C28   C     C_R   0.771190 0.165076 0.501885 -0.167144
C29   C     C_R   0.344902 0.324155 0.641986 -0.317284
C30   C     C_R   0.754556 0.641100 0.372713 0.372295
C31   C     C_R   0.649851 0.659713 0.339242 -0.377194
C32   C     C_R   0.543202 0.596131 0.379884 0.456929
C33   C     C_R   0.545170 0.524857 0.464308 -0.127171
C34   C     C_R   0.998135 0.497141 0.329180 0.826607
C35   C     C_R   0.652024 0.503378 0.494049 0.161109
C36   C     C_R   0.443479 0.469301 0.517391 -0.013640
C37   C     C_R   0.444574 0.383503 0.591515 0.160548
C38   C     C_R   0.545667 0.358343 0.615669 -0.273340
C39   C     C_R   0.647825 0.418760 0.569678 -0.134460
C40   C     C_R   0.341816 0.497334 0.502490 0.041490
C41   C     C_R   0.245708 0.352298 0.621037 0.066406
C42   C     C_R   0.103032 0.558825 0.192148 -0.312718
C43   C     C_R   0.995376 0.494554 0.232345 -0.118568
C44   C     C_R   0.886440 0.430492 0.179472 0.219910
C45   C     C_R   0.885654 0.436958 0.084933 0.004599
C46   C     C_R   0.995424 0.499921 0.045389 0.007747
Cu1   Cu    Cu3+1 0.098270 0.475420 0.521130 0.940579
Cu2   Cu    Cu3+1 0.901730 0.524580 0.478870 0.934988
H1    H     H_    0.185604 0.608329 0.233395 0.178647
H2    H     H_    0.435598 0.233644 0.364077 0.138456
H3    H     H_    0.228940 0.092228 0.380143 0.132358
H4    H     H_    0.382017 0.802061 0.532902 0.151593
H5    H     H_    0.914721 0.109532 0.558014 0.166561
H6    H     H_    0.561751 0.840613 0.526652 0.126479
H7    H     H_    0.647836 0.289103 0.388725 0.183145
H8    H     H_    0.168252 0.306115 0.659344 0.131781
H9    H     H_    0.547166 0.292715 0.672428 0.173137
H10   H     H_    0.343905 0.256617 0.697572 0.144146
H11   H     H_    0.337973 0.567816 0.452912 0.191822
H12   H     H_    0.648291 0.718607 0.277386 0.176354
H13   H     H_    0.720761 0.394239 0.595172 0.203005
H14   H     H_    0.691402 0.333044 0.057851 0.199750
H15   H     H_    0.805748 0.404922 0.760265 0.173675
H16   H     H_    0.193750 0.600233 0.791256 0.141077
H17   H     H_    0.301469 0.662969 0.939247 0.142477
H18   H     H_    0.298509 0.665313 0.101250 0.158619
H19   H     H_    0.086452 0.894549 0.419472 0.146096
N1    N     N_R   0.246280 0.438190 0.553160 -0.197356
N2    N     N_R   0.754320 0.561190 0.447410 -0.218309
O1    O     O_R   0.972510 0.318130 0.526570 -0.585034
O2    O     O_R   0.806530 0.359650 0.490890 -0.611445
O3    O     O_R   0.082980 0.479210 0.647590 -0.579943
O4    O     O_R   0.917000 0.520730 0.611900 -0.601708
O5    O     O_R   0.193470 0.640350 0.509110 -0.597130
O6    O     O_R   0.027490 0.681870 0.473430 -0.566303
O7    O     O_R   0.083000 0.479270 0.388100 -0.576800
O8    O     O_R   0.917020 0.520790 0.352410 -0.564503
N3    N     N_2   0.792093 0.884461 0.571692 -0.426440
H20   H     H_    0.729282 0.802887 0.591539 0.247781
C47   C     C_3   0.873049 0.885867 0.513146 -0.699557
H21   H     H_    0.906112 0.818555 0.542520 0.239640
H22   H     H_    0.953558 0.969499 0.507858 0.228842
H23   H     H_    0.823927 0.868790 0.443662 0.217964
N4    N     N_2   0.779700 0.353330 0.220915 -0.458296
H24   H     H_    0.754936 0.384515 0.266925 0.259325
C48   C     C_3   0.773528 0.239534 0.251354 -0.698278
H25   H     H_    0.842895 0.240324 0.311313 0.218413
H26   H     H_    0.789211 0.206213 0.195277 0.243295
H27   H     H_    0.681573 0.181117 0.270948 0.238956
N5    N     N_2   0.860493 0.704014 0.327264 -0.360132
H28   H     H_    0.902892 0.788030 0.338621 0.222167
C49   C     C_3   0.845379 0.694186 0.230824 -0.670821
H29   H     H_    0.936412 0.725316 0.207915 0.230367
H30   H     H_    0.798824 0.746888 0.189160 0.196381
H31   H     H_    0.791857 0.603790 0.218753 0.234954
O9    O     O_3   0.436048 0.595305 0.329989 -0.598479
C50   C     C_3   0.384649 0.501908 0.279729 -0.339614
H32   H     H_    0.362744 0.419129 0.325752 0.162383
H33   H     H_    0.445718 0.511225 0.230120 0.165209
H34   H     H_    0.298120 0.499006 0.239693 0.196715
O10   O     O_3   0.667799 0.331100 0.882421 -0.583399
C51   C     C_3   0.603759 0.400763 0.858995 -0.348380
H35   H     H_    0.515794 0.354644 0.818354 0.194054
H36   H     H_    0.655259 0.481867 0.815796 0.170731
H37   H     H_    0.582400 0.418998 0.920902 0.162545

loop_
_geom_bond_atom_site_label_1
_geom_bond_atom_site_label_2
_ccdc_geom_bond_type
C16   C28   A    
C21   C26   A    
O10   C51   S    
C19   C20   A    
Cu2   N2    S    
C30   N5    S    
C50   H34   S    
C10   H15   S    
C50   H32   S    
C7    C8    A    
Cu1   O1    S    
C45   C46   A    
C2    C46   A    
C1    O2    A    
C36   C37   A    
C19   C21   A    
N4    C48   S    
Cu1   O7    S    
C34   O8    A    
C30   C31   A    
N3    C47   S    
C20   C25   A    
C33   C36   A    
C51   H37   S    
C18   C19   A    
C9    H18   S    
C49   H29   S    
C16   H5    S    
N5    C49   S    
C31   C32   A    
C8    C9    A    
C1    C28   S    
C14   C27   A    
C15   C23   S    
C12   O3    A    
C8    H17   S    
C40   H11   S    
C21   C22   A    
O9    C50   S    
Cu2   O6    S    
C47   H23   S    
C50   H33   S    
C41   N1    A    
C24   H2    S    
C38   C39   A    
C39   H13   S    
C36   C40   A    
C24   C25   A    
C47   H22   S    
N3    H20   S    
C16   C17   A    
C15   C26   A    
C20   C28   A    
C3    C45   A    
C49   H31   S    
C31   H12   S    
C35   C39   A    
C43   C44   A    
C41   H8    S    
C37   C38   A    
C26   H4    S    
C38   H9    S    
C15   C27   A    
Cu1   Cu2   S    
C7    C13   A    
C4    O10   S    
Cu2   O8    S    
C49   H30   S    
C17   C18   A    
N4    H24   S    
C51   H36   S    
C32   O9    S    
C22   C24   A    
C42   C43   A    
Cu2   O2    S    
C3    C4    A    
Cu1   N1    S    
C30   N2    A    
C44   C45   A    
C3    H14   S    
C6    C46   A    
C29   C41   A    
C48   H25   S    
Cu2   O4    S    
C34   C43   S    
C25   H7    S    
Cu1   O5    S    
C23   O6    A    
C47   H21   S    
C44   N4    S    
C48   H27   S    
C11   C12   S    
C6    C7    A    
C1    O1    A    
C32   C33   A    
C14   C22   A    
C5    C10   A    
C11   C13   A    
N5    H28   S    
C5    C6    A    
C13   H16   S    
C2    C42   A    
C17   N3    S    
C33   C35   A    
C48   H26   S    
C51   H35   S    
Cu1   O3    S    
C27   H19   S    
C10   C11   A    
C18   H6    S    
C42   H1    S    
C4    C5    A    
C29   H10   S    
C35   N2    A    
C14   H3    S    
C40   N1    A    
C29   C37   A    
C23   O5    A    
C12   O4    A    
C2    C9    A    
C34   O7    A    
