data_mof_unit_29460.cif
_audit_creation_date              2012-12-11T14:25:59-0500
_audit_creation_method            fapswitch 2.2
_symmetry_space_group_name_H-M    P1
_symmetry_Int_Tables_number       1
_space_group_crystal_system       triclinic
_cell_length_a                    6.962646
_cell_length_b                    14.995482
_cell_length_c                    16.05626
_cell_angle_alpha                 90.314812
_cell_angle_beta                  90.100401
_cell_angle_gamma                 89.9863
_cell_volume                      1676.37780855

loop_
_atom_site_label
_atom_site_type_symbol
_atom_type_description
_atom_site_fract_x
_atom_site_fract_y
_atom_site_fract_z
_atom_type_partial_charge
O1    O     O_R   0.494490 0.416160 0.413410 -0.537792
O2    O     O_R   0.823830 0.407240 0.585990 -0.554354
O3    O     O_R   0.994160 0.583840 0.586590 -0.540361
C1    C     C_R   0.654502 0.380458 0.609000 0.719829
O4    O     O_R   0.824200 0.405280 0.414020 -0.542047
O5    O     O_R   0.994530 0.581860 0.413390 -0.541115
C2    C     C_R   0.654570 0.384201 0.384939 0.758507
O6    O     O_R   0.494110 0.418140 0.586610 -0.542411
O7    O     O_3   0.660810 0.557940 0.500000 -0.374616
V1    V     V_3+5 0.935650 0.489250 0.500000 1.378818
O8    O     O_R   0.324250 0.592760 0.414010 -0.540592
C3    C     C_R   0.155202 0.616355 0.387534 0.647321
O9    O     O_R   0.323880 0.594720 0.585980 -0.553027
C4    C     C_R   0.155124 0.607557 0.622004 0.706254
V2    V     V_3+5 0.435660 0.510750 0.500000 1.381345
O10   O     O_3   0.160630 0.442060 0.500000 -0.370104
C5    C     C_3   0.925377 0.687507 0.728744 0.011538
H1    H     H_    0.838410 0.701337 0.672122 0.154262
C6    C     C_3   0.914101 0.770537 0.787751 0.000909
H2    H     H_    0.860945 0.748722 0.849131 0.110418
H3    H     H_    0.123326 0.784875 0.608846 0.163762
C7    C     C_3   0.212337 0.764991 0.663056 -0.477500
C8    C     C_3   0.271683 0.650905 0.776122 -0.018821
C9    C     C_3   0.139598 0.672556 0.697758 0.003263
H4    H     H_    0.417690 0.656666 0.749301 0.114826
C10   C     C_3   0.118729 0.807824 0.810833 0.029189
C11   C     C_3   0.215776 0.840899 0.730056 0.180735
C12   C     C_3   0.252681 0.729095 0.843371 -0.107446
H5    H     H_    0.399314 0.758112 0.844318 0.074546
H6    H     H_    0.360649 0.757697 0.638192 0.137735
H7    H     H_    0.365077 0.858152 0.745662 0.082774
C13   C     C_2   0.997948 0.699556 0.273477 -0.147466
C14   C     C_2   0.147965 0.691159 0.326630 0.194094
H8    H     H_    0.878769 0.653082 0.277774 0.096019
C15   C     C_2   0.977906 0.771789 0.210385 -0.107513
C16   C     C_2   0.128275 0.808296 0.170437 -0.263934
H9    H     H_    0.833080 0.791768 0.193570 0.134856
H10   H     H_    0.272411 0.784023 0.182210 0.182653
C17   C     C_2   0.764232 0.220449 0.788660 0.313337
C18   C     C_2   0.615637 0.163870 0.803605 0.082745
C19   C     C_2   0.785591 0.262526 0.705669 0.185767
C20   C     C_2   0.643082 0.316955 0.678680 -0.353085
H11   H     H_    0.511788 0.320300 0.714828 0.151135
C21   C     C_2   0.781626 0.228121 0.197611 0.151477
C22   C     C_2   0.622544 0.178702 0.177285 -0.366527
H12   H     H_    0.495598 0.183279 0.216125 0.128826
C23   C     C_2   0.789848 0.282447 0.276780 -0.126108
C24   C     C_2   0.637435 0.321898 0.312898 -0.355967
H13   H     H_    0.929835 0.294176 0.304382 0.152057
H14   H     H_    0.495579 0.313196 0.286109 0.134754
O11   O     O_R   0.770850 0.076180 0.907410 -0.534099
O12   O     O_R   0.440600 0.088970 0.079950 -0.538076
O13   O     O_R   0.270430 0.912340 0.080550 -0.542889
C25   C     C_R   0.610759 0.112599 0.107225 0.734455
O14   O     O_R   0.441120 0.087010 0.907980 -0.533857
O15   O     O_R   0.270950 0.910370 0.907350 -0.556862
C26   C     C_R   0.609543 0.107095 0.878963 0.644896
O16   O     O_R   0.770320 0.078150 0.080620 -0.544778
O17   O     O_3   0.604200 0.936340 0.994000 -0.384004
V3    V     V_3+5 0.329300 0.004970 0.993950 1.417950
O18   O     O_R   0.941240 0.899420 0.907920 -0.555721
C27   C     C_R   0.109180 0.880629 0.877092 0.742196
O19   O     O_R   0.940720 0.901380 0.079890 -0.542077
C28   C     C_R   0.110290 0.879032 0.107190 0.721879
V4    V     V_3+5 0.829310 0.983370 0.993880 1.394527
O20   O     O_3   0.104280 0.052120 0.993920 -0.365458
O21   O     O_3   0.291140 0.755210 0.326793 -0.648942
H15   H     H_    0.380254 0.744004 0.373730 0.290405
O22   O     O_3   0.907674 0.237794 0.846299 -0.648342
H16   H     H_    0.852620 0.234039 0.903027 0.269947
O23   O     O_3   0.476707 0.152788 0.742512 -0.657115
H17   H     H_    0.391102 0.102875 0.758211 0.302846
C29   C     C_3   0.970735 0.244803 0.658124 -0.305336
C30   C     C_3   0.017128 0.145164 0.654144 -0.710339
H18   H     H_    0.042712 0.118058 0.717411 0.254319
H19   H     H_    0.896882 0.108123 0.624349 0.219601
H20   H     H_    0.149075 0.134465 0.616629 0.223911
H21   H     H_    0.962111 0.267006 0.592628 0.185192
H22   H     H_    0.090992 0.280619 0.689244 0.204788
C31   C     C_3   0.821664 0.609836 0.774791 -0.444535
C32   C     C_3   0.739694 0.538664 0.720189 -0.713573
H23   H     H_    0.648231 0.567161 0.670461 0.246043
H24   H     H_    0.859424 0.501432 0.694751 0.249956
H25   H     H_    0.657605 0.491159 0.758763 0.200604
H26   H     H_    0.912155 0.577607 0.820585 0.213697
H27   H     H_    0.698007 0.635675 0.810952 0.165983
C33   C     C_3   0.959067 0.226716 0.141566 -0.271876
C34   C     C_3   0.100029 0.303855 0.154930 -0.806466
H28   H     H_    0.023312 0.368812 0.154095 0.233672
H29   H     H_    0.178868 0.296136 0.214537 0.211393
H30   H     H_    0.207948 0.303574 0.104055 0.225921
H31   H     H_    0.037902 0.163039 0.150536 0.193025
H32   H     H_    0.911786 0.230980 0.075515 0.177237
C35   C     C_3   0.745655 0.833162 0.760305 -0.332273
C36   C     C_3   0.753942 0.882778 0.677144 -0.652509
H33   H     H_    0.804986 0.952070 0.686913 0.256179
H34   H     H_    0.840584 0.847591 0.629848 0.228844
H35   H     H_    0.607262 0.889211 0.650752 0.168271
H36   H     H_    0.624249 0.786606 0.753473 0.128513
H37   H     H_    0.700532 0.880562 0.809583 0.192912
O24   O     O_3   0.134733 0.920068 0.700604 -0.654602
H38   H     H_    0.217698 0.941331 0.654529 0.288747
C37   C     C_3   0.279550 0.556364 0.817693 -0.342824
C38   C     C_3   0.266414 0.474769 0.761609 -0.783760
H39   H     H_    0.117092 0.457932 0.746669 0.224266
H40   H     H_    0.348954 0.484789 0.704502 0.245038
H41   H     H_    0.326114 0.416476 0.795177 0.215721
H42   H     H_    0.420940 0.551629 0.849523 0.169971
H43   H     H_    0.177222 0.547322 0.869113 0.203651
C39   C     C_3   0.241208 0.704659 0.938676 -0.338812
C40   C     C_3   0.044959 0.684312 0.976854 -0.786632
H44   H     H_    0.955944 0.745250 0.981642 0.223798
H45   H     H_    0.966360 0.632052 0.942735 0.213153
H46   H     H_    0.066637 0.659837 0.041338 0.216857
H47   H     H_    0.340524 0.649052 0.953087 0.168387
H48   H     H_    0.301823 0.760655 0.975874 0.184046

loop_
_geom_bond_atom_site_label_1
_geom_bond_atom_site_label_2
_ccdc_geom_bond_type
C33   C34   S    
O19   V4    S    
O24   H38   S    
C18   O23   S    
C19   C20   D    
C36   H33   S    
C1    O6    A    
C38   H40   S    
C32   H23   S    
C36   H35   S    
C17   C19   S    
C22   H12   S    
C10   C11   S    
C30   H19   S    
C12   H5    S    
C15   H9    S    
O5    C3    A    
O13   C28   A    
V2    O10   S    
C29   C30   S    
C4    C9    S    
C6    C10   S    
C39   C40   S    
C31   H27   S    
O12   V3    S    
O8    V2    S    
C8    C37   S    
C15   C16   D    
C30   H20   S    
C8    C9    S    
C37   H42   S    
O11   C26   A    
O9    C4    A    
C21   C33   S    
O7    V1    S    
O18   C27   A    
C21   C23   S    
C24   H14   S    
V3    O20   S    
O17   V3    S    
O14   V3    S    
O22   H16   S    
C38   H39   S    
C32   H24   S    
O13   V3    S    
O12   C25   A    
C17   O22   S    
C5    C9    S    
C30   H18   S    
C11   H7    S    
O21   H15   S    
C13   C15   S    
C23   H13   S    
C17   C18   D    
O4    C2    A    
C12   C39   S    
C11   O24   S    
C5    C31   S    
O15   V3    S    
C13   H8    S    
O2    C1    A    
C31   H26   S    
O16   V4    S    
C23   C24   D    
C34   H30   S    
C35   H37   S    
C29   H21   S    
C5    H1    S    
C29   H22   S    
C40   H45   S    
C8    C12   S    
C6    C35   S    
O3    C4    A    
O1    V2    S    
C34   H29   S    
C22   C25   S    
O6    V2    S    
C7    C11   S    
O9    V2    S    
O15   C27   A    
C20   H11   S    
O2    V1    S    
C39   H48   S    
C32   H25   S    
C33   H31   S    
C21   C22   D    
C14   O21   S    
C25   O16   A    
C18   C26   S    
C7    H6    S    
C40   H44   S    
O1    C2    A    
C31   C32   S    
O5    V1    S    
O8    C3    A    
C36   H34   S    
C10   C12   S    
C37   H43   S    
C13   C14   D    
C6    H2    S    
O14   C26   A    
O7    V2    S    
O23   H17   S    
O3    V1    S    
C16   C28   S    
C2    C24   S    
C1    C20   S    
C35   H36   S    
C33   H32   S    
C16   H10   S    
C5    C6    S    
C40   H46   S    
C7    C9    S    
C8    H4    S    
C10   C27   S    
C35   C36   S    
O11   V4    S    
C19   C29   S    
O19   C28   A    
O18   V4    S    
O4    V1    S    
C34   H28   S    
V4    O20   S    
C37   C38   S    
V1    O10   S    
C3    C14   S    
H3    C7    S    
C39   H47   S    
C38   H41   S    
O17   V4    S    
