data_mof_unit_46875.cif
_audit_creation_date              2012-10-26T19:57:55-0400
_audit_creation_method            fapswitch 2.2
_symmetry_space_group_name_H-M    P1
_symmetry_Int_Tables_number       1
_space_group_crystal_system       triclinic
_cell_length_a                    7.475044
_cell_length_b                    8.680093
_cell_length_c                    13.012471
_cell_angle_alpha                 87.690083
_cell_angle_beta                  79.013824
_cell_angle_gamma                 102.938093
_cell_volume                      804.743506484

loop_
_atom_site_label
_atom_site_type_symbol
_atom_type_description
_atom_site_fract_x
_atom_site_fract_y
_atom_site_fract_z
_atom_type_partial_charge
C1    C     C_R   0.452643 0.199655 0.503255 0.522302
C2    C     C_R   0.728696 0.577619 0.119060 0.387161
C3    C     C_R   0.604212 0.545788 0.858258 0.382995
C4    C     C_R   0.395788 0.454211 0.141742 0.382995
C5    C     C_R   0.588499 0.533925 0.966956 -0.127008
C6    C     C_R   0.411500 0.466075 0.033044 -0.127008
C7    C     C_2   0.426142 0.031643 0.504764 -0.097287
C8    C     C_2   0.573858 0.968357 0.495236 -0.097287
C9    C     C_R   0.547357 0.800345 0.496745 0.522302
C10   C     C_R   0.466191 0.495427 0.701348 0.576341
C11   C     C_R   0.533809 0.504573 0.298652 0.576341
C12   C     C_R   0.553472 0.511438 0.184931 -0.054836
C13   C     C_R   0.446528 0.488562 0.815069 -0.054836
C14   C     C_R   0.253716 0.411626 0.989025 0.511842
C15   C     C_R   0.746284 0.588374 0.010975 0.511842
C16   C     C_R   0.271304 0.422380 0.880940 0.387161
Cu1   Cu    Cu3+1 0.686350 0.517570 0.488220 1.308703
Cu2   Cu    Cu3+1 0.313650 0.482430 0.511780 1.308703
F1    F     F_    0.227896 0.384932 0.205572 -0.494215
F2    F     F_    0.772104 0.615068 0.794428 -0.494215
F3    F     F_    0.883363 0.635393 0.158862 -0.493204
F4    F     F_    0.116637 0.364607 0.841138 -0.493204
F5    F     F_    0.081788 0.346967 0.049815 -0.463649
F6    F     F_    0.918212 0.653033 0.950185 -0.463649
F7    F     F_    0.906737 0.350193 0.599401 -0.490717
F8    F     F_    0.093263 0.649806 0.400599 -0.490717
H1    H     H_    0.283933 0.959709 0.513705 0.180330
H2    H     H_    0.716067 0.040290 0.486295 0.180330
N1    N     N_2   0.033570 0.455950 0.529530 0.200793
N2    N     N_2   0.966430 0.544050 0.470470 0.200793
O1    O     O_R   0.621060 0.286250 0.492350 -0.495100
O2    O     O_R   0.378940 0.713750 0.507650 -0.495100
O3    O     O_R   0.306310 0.256580 0.512240 -0.490143
O4    O     O_R   0.693690 0.743420 0.487760 -0.490143
O5    O     O_R   0.631800 0.512400 0.642670 -0.426581
O6    O     O_R   0.368200 0.487600 0.357330 -0.426580
O7    O     O_R   0.317060 0.482730 0.662570 -0.437727
O8    O     O_R   0.682940 0.517270 0.337430 -0.437727

loop_
_geom_bond_atom_site_label_1
_geom_bond_atom_site_label_2
_ccdc_geom_bond_type
C14   F5    S    
C11   O8    A    
C11   C12   S    
C10   O5    A    
Cu1   N2    S    
C4    C12   A    
C3    C13   A    
C2    C12   A    
C2    F3    S    
Cu1   Cu2   S    
C1    O3    A    
C3    F2    S    
C6    C14   A    
Cu2   N1    S    
C2    C15   A    
N1    N2    D    
C10   O7    A    
Cu1   O1    S    
C5    C6    A    
C15   F6    S    
Cu2   O7    S    
F8    N2    S    
Cu1   O8    S    
F7    N1    S    
C9    O4    A    
C8    H2    S    
Cu2   O3    S    
C14   C16   A    
C5    C15   A    
Cu2   O2    S    
Cu1   O4    S    
C1    O1    A    
C7    H1    S    
C4    C6    A    
C7    C8    D    
C13   C16   A    
C11   O6    A    
C16   F4    S    
Cu1   O5    S    
C9    O2    A    
C1    C7    S    
C4    F1    S    
Cu2   O6    S    
C8    C9    S    
C3    C5    A    
C10   C13   S    
