data_mof_unit_59827.cif
_audit_creation_date              2012-12-10T17:31:56-0500
_audit_creation_method            fapswitch 2.2
_symmetry_space_group_name_H-M    P1
_symmetry_Int_Tables_number       1
_space_group_crystal_system       triclinic
_cell_length_a                    12.130953
_cell_length_b                    11.51594
_cell_length_c                    12.933062
_cell_angle_alpha                 92.221104
_cell_angle_beta                  92.634268
_cell_angle_gamma                 86.213014
_cell_volume                      1799.73318385

loop_
_atom_site_label
_atom_site_type_symbol
_atom_type_description
_atom_site_fract_x
_atom_site_fract_y
_atom_site_fract_z
_atom_type_partial_charge
C1    C     C_R   0.478644 0.503253 0.299439 0.957934
C2    C     C_R   0.521439 0.497234 0.700042 0.910745
C3    C     C_R   0.041820 0.639146 0.561812 0.386839
C4    C     C_R   0.955823 0.377068 0.412756 0.299235
C5    C     C_R   0.158257 0.619075 0.565751 -0.027555
C6    C     C_R   0.840742 0.388302 0.423581 -0.028542
C7    C     C_R   0.143586 0.440601 0.468866 0.034835
C8    C     C_R   0.856482 0.558156 0.531838 0.021457
C9    C     C_R   0.025138 0.454926 0.467535 -0.141701
C10   C     C_R   0.973980 0.551540 0.521342 -0.177433
C11   C     C_R   0.500036 0.282191 0.499782 0.919298
C12   C     C_R   0.499999 0.717813 0.500339 0.854455
C13   C     C_1   0.500274 0.161671 0.500270 -0.181299
C14   C     C_1   0.500014 0.838362 0.500702 -0.126339
C15   C     C_1   0.500361 0.059389 0.500671 -0.001867
C16   C     C_1   0.500205 0.940655 0.500850 0.016503
C17   C     C_R   0.533682 0.482308 0.810353 -0.300273
C18   C     C_R   0.465503 0.501091 0.186974 -0.325303
C19   C     C_R   0.348129 0.505701 0.029901 -0.090289
C20   C     C_R   0.636892 0.410410 0.961911 -0.089604
C21   C     C_R   0.359177 0.515818 0.137652 0.317322
C22   C     C_R   0.627147 0.420212 0.854405 0.285502
C23   C     C_R   0.560017 0.477607 0.128012 0.489200
C24   C     C_R   0.445121 0.520848 0.870993 0.488414
C25   C     C_R   0.547166 0.453818 0.021982 -0.137331
C26   C     C_R   0.444644 0.488094 0.972976 -0.119870
N1    N     N_R   0.792200 0.479100 0.480660 -0.179110
N2    N     N_R   0.207800 0.520900 0.519340 -0.190193
O1    O     O_R   0.578300 0.494420 0.341180 -0.537634
O2    O     O_R   0.421700 0.505580 0.658820 -0.607958
O3    O     O_R   0.390690 0.507830 0.353590 -0.535947
O4    O     O_R   0.609310 0.492170 0.646410 -0.603642
O5    O     O_R   0.593810 0.327740 0.493800 -0.626447
O6    O     O_R   0.406190 0.672260 0.506200 -0.664389
O7    O     O_R   0.406190 0.341150 0.506220 -0.619877
O8    O     O_R   0.593810 0.658850 0.493780 -0.586792
Zn1   Zn    Zn3+2 0.625270 0.491050 0.491710 0.991003
Zn2   Zn    Zn3+2 0.374730 0.508950 0.508290 0.978807
O9    O     O_3   0.366147 0.603923 0.835340 -0.585674
C27   C     C_3   0.403014 0.716496 0.859979 0.029819
H1    H     H_    0.438707 0.750345 0.790374 0.152705
H2    H     H_    0.467191 0.719359 0.924783 0.116234
C28   C     C_3   0.305362 0.797738 0.891627 -0.776844
H3    H     H_    0.272549 0.768463 0.964197 0.220141
H4    H     H_    0.332223 0.887628 0.904906 0.217041
H5    H     H_    0.238401 0.798242 0.830395 0.289066
O10   O     O_3   0.665378 0.488412 0.172021 -0.525086
C29   C     C_3   0.693775 0.604619 0.163110 0.109086
H6    H     H_    0.636230 0.666185 0.206294 0.123513
H7    H     H_    0.692027 0.628849 0.080425 0.114538
C30   C     C_3   0.810320 0.617322 0.208793 -0.819861
H8    H     H_    0.870139 0.559657 0.165090 0.225938
H9    H     H_    0.832657 0.708828 0.203733 0.205634
H10   H     H_    0.815328 0.593874 0.291344 0.263878
O11   O     O_3   0.711806 0.374924 0.793487 -0.609094
C31   C     C_3   0.688650 0.260681 0.759467 0.142510
H11   H     H_    0.607044 0.259405 0.716371 0.129483
H12   H     H_    0.688873 0.202367 0.826202 0.135251
C32   C     C_3   0.777309 0.212947 0.686940 -0.797941
H13   H     H_    0.859286 0.207414 0.729020 0.252344
H14   H     H_    0.757882 0.124671 0.656865 0.204958
H15   H     H_    0.780757 0.270829 0.620650 0.255290
O12   O     O_3   0.265168 0.536101 0.194297 -0.563547
C33   C     C_3   0.242972 0.657683 0.207907 0.129456
H16   H     H_    0.235094 0.701278 0.132366 0.096105
H17   H     H_    0.309568 0.697122 0.256954 0.140257
C34   C     C_3   0.134178 0.680888 0.261291 -0.830208
H18   H     H_    0.140035 0.641995 0.338562 0.257631
H19   H     H_    0.115005 0.776181 0.271193 0.200171
H20   H     H_    0.066223 0.642250 0.213953 0.238550
C35   C     C_2   0.234983 0.504589 0.979658 0.539031
H21   H     H_    0.163847 0.542771 0.019463 0.057288
O13   O     O_2   0.219189 0.455955 0.895179 -0.545752
C36   C     C_2   0.737287 0.346624 0.006861 0.500573
H22   H     H_    0.816085 0.349965 0.970945 0.069719
O14   O     O_2   0.731728 0.284734 0.080731 -0.523636
C37   C     C_2   0.804669 0.634921 0.612196 0.600083
H23   H     H_    0.796799 0.602390 0.688914 0.057103
O15   O     O_2   0.770930 0.734428 0.593889 -0.585858
C38   C     C_2   0.198686 0.335625 0.421207 0.622511
H24   H     H_    0.190900 0.251558 0.454330 0.040158
O16   O     O_2   0.248534 0.341102 0.342009 -0.533812
C39   C     C_2   0.776936 0.292247 0.379425 0.574385
H25   H     H_    0.798824 0.204108 0.403407 0.019881
O17   O     O_2   0.705566 0.308176 0.311321 -0.477667
C40   C     C_2   0.226473 0.704568 0.622267 0.508003
H26   H     H_    0.303174 0.676122 0.660434 0.148759
O18   O     O_2   0.198719 0.808398 0.626705 -0.592002
O19   O     O_3   0.995641 0.746748 0.594401 -0.567408
C41   C     C_3   0.979511 0.817631 0.507124 0.203409
H27   H     H_    0.915540 0.783299 0.451664 0.138210
H28   H     H_    0.057537 0.822735 0.465707 0.137054
C42   C     C_3   0.941004 0.940698 0.542412 -0.733568
H29   H     H_    0.004305 0.977887 0.596503 0.270110
H30   H     H_    0.928012 0.996729 0.474361 0.188720
H31   H     H_    0.861994 0.939939 0.582275 0.269687
O20   O     O_3   0.998730 0.289428 0.346902 -0.650753
C43   C     C_3   0.994310 0.331299 0.245287 0.096178
H32   H     H_    0.044518 0.408515 0.241215 0.180298
H33   H     H_    0.907659 0.355536 0.218417 0.195338
C44   C     C_3   0.040480 0.236198 0.171468 -0.731832
H34   H     H_    0.990338 0.158975 0.172222 0.253281
H35   H     H_    0.037739 0.268683 0.091581 0.205488
H36   H     H_    0.127528 0.210228 0.194971 0.273521

loop_
_geom_bond_atom_site_label_1
_geom_bond_atom_site_label_2
_ccdc_geom_bond_type
O11   C31   S    
C42   H29   S    
C18   C21   A    
C19   C35   S    
O20   C43   S    
C37   H23   S    
C1    C18   S    
C44   H34   S    
C36   O14   D    
O8    Zn1   S    
C19   C21   A    
C24   C26   A    
C40   O18   D    
C20   C25   A    
C15   C16   S    
C1    O3    A    
C24   O9    S    
C31   H11   S    
O2    Zn2   S    
C2    O4    A    
C19   C26   A    
C27   C28   S    
C39   H25   S    
C12   O8    A    
C9    C10   A    
C6    N1    A    
C29   H7    S    
C32   H13   S    
C44   H35   S    
C4    O20   S    
C2    C17   S    
C37   O15   D    
C29   C30   S    
C32   H14   S    
C17   C24   A    
C23   O10   S    
C36   H22   S    
C18   C23   A    
C33   C34   S    
C11   O5    A    
O7    Zn2   S    
C38   O16   D    
O9    C27   S    
C35   O13   D    
C40   H26   S    
C25   C26   A    
O5    Zn1   S    
C7    N2    A    
C34   H18   S    
C34   H19   S    
C33   H17   S    
C28   H3    S    
C5    N2    A    
C41   H28   S    
O10   C29   S    
N2    Zn2   S    
C1    O1    A    
C20   C36   S    
O4    Zn1   S    
C28   H4    S    
C5    C40   S    
C4    C6    A    
C29   H6    S    
C39   O17   D    
C12   C14   S    
C42   H31   S    
C43   H33   S    
C13   C15   T    
C8    C37   S    
C14   C16   T    
C12   O6    A    
C41   C42   S    
C7    C9    A    
C27   H1    S    
C32   H15   S    
C6    C39   S    
O6    Zn2   S    
C8    C10   A    
C20   C22   A    
C38   H24   S    
C3    C5    A    
O3    Zn2   S    
C22   O11   S    
C44   H36   S    
C43   C44   S    
C17   C22   A    
C31   C32   S    
C2    O2    A    
C3    O19   S    
C34   H20   S    
C33   H16   S    
C30   H10   S    
C11   O7    A    
C4    C9    A    
C30   H8    S    
C3    C10   A    
C11   C13   S    
C41   H27   S    
N1    Zn1   S    
C27   H2    S    
C31   H12   S    
C23   C25   A    
C28   H5    S    
C21   O12   S    
O12   C33   S    
C35   H21   S    
C42   H30   S    
C43   H32   S    
O1    Zn1   S    
C8    N1    A    
C30   H9    S    
O19   C41   S    
C7    C38   S    
