data_mof_unit_46413.cif
_audit_creation_date              2012-12-10T21:00:33-0500
_audit_creation_method            fapswitch 2.2
_symmetry_space_group_name_H-M    P1
_symmetry_Int_Tables_number       1
_space_group_crystal_system       triclinic
_cell_length_a                    18.145094
_cell_length_b                    18.174569
_cell_length_c                    18.29093
_cell_angle_alpha                 119.673818
_cell_angle_beta                  90.013731
_cell_angle_gamma                 120.052087
_cell_volume                      4282.30463353

loop_
_atom_site_label
_atom_site_type_symbol
_atom_type_description
_atom_site_fract_x
_atom_site_fract_y
_atom_site_fract_z
_atom_type_partial_charge
C1    C     C_R   0.113727 0.220020 0.609942 0.812847
C2    C     C_3   0.450686 0.897592 0.947557 0.056653
C3    C     C_3   0.445529 0.031907 0.015779 -0.139362
C4    C     C_3   0.554476 0.968095 0.984218 -0.139523
C5    C     C_3   0.413423 0.439065 0.448653 -0.136004
C6    C     C_3   0.586556 0.560662 0.551347 -0.137551
C7    C     C_3   0.475517 0.402599 0.441942 -0.181724
C8    C     C_3   0.524462 0.597127 0.558054 -0.182462
C9    C     C_3   0.550813 0.499869 0.449421 0.069726
C10   C     C_3   0.449166 0.499871 0.550575 0.069065
C11   C     C_3   0.489674 0.536396 0.455356 -0.185918
C12   C     C_R   0.886742 0.780064 0.390105 0.804680
C13   C     C_3   0.510292 0.463326 0.544645 -0.183194
C14   C     C_R   0.109289 0.150274 0.826109 -0.168884
C15   C     C_R   0.899485 0.858938 0.177344 -0.157032
C16   C     C_R   0.392987 0.781210 0.888344 0.754162
C17   C     C_R   0.607014 0.218790 0.111655 0.754325
C18   C     C_R   0.092605 0.108381 0.735283 -0.174247
C19   C     C_R   0.916841 0.900788 0.268180 -0.190774
C20   C     C_R   0.026180 0.101835 0.688005 0.213712
C21   C     C_R   0.977517 0.898442 0.312961 0.168335
C22   C     C_R   0.978384 0.140632 0.733237 -0.170862
C23   C     C_3   0.980509 0.427842 0.414243 -0.137435
C24   C     C_R   0.020252 0.852829 0.265712 -0.158254
C25   C     C_R   0.994828 0.182197 0.824198 -0.180880
C26   C     C_R   0.003760 0.812142 0.174912 -0.180799
C27   C     C_R   0.060191 0.186933 0.871238 0.254779
C28   C     C_R   0.942989 0.814619 0.129999 0.257134
C29   C     C_R   0.941477 0.946226 0.533144 0.092513
C30   C     C_R   0.063967 0.054072 0.468055 0.107679
C31   C     C_R   0.940682 0.892954 0.444542 -0.140227
C32   C     C_R   0.062880 0.107406 0.556069 -0.117368
C33   C     C_R   0.997221 0.947508 0.410426 -0.084673
C34   C     C_3   0.019498 0.572187 0.585767 -0.137523
C35   C     C_R   0.007570 0.052608 0.590554 -0.088000
C36   C     C_R   0.632666 0.538708 0.763470 -0.157128
C37   C     C_R   0.367107 0.460366 0.236026 -0.156748
C38   C     C_R   0.587380 0.503261 0.812926 -0.170012
C39   C     C_R   0.412519 0.496097 0.186779 -0.171370
C40   C     C_R   0.110375 0.500182 0.889217 0.787273
C41   C     C_R   0.889327 0.499496 0.110483 0.786956
C42   C     C_R   0.583799 0.571347 0.893046 0.146684
C43   C     C_R   0.416087 0.428173 0.106547 0.146147
C44   C     C_R   0.626665 0.675374 0.923580 -0.103679
C45   C     C_3   0.449420 0.966446 0.922619 -0.175872
C46   C     C_R   0.373066 0.324021 0.075678 -0.104613
C47   C     C_R   0.671114 0.710236 0.873475 -0.126995
C48   C     C_R   0.328485 0.288872 0.125571 -0.127198
C49   C     C_R   0.674142 0.641960 0.793494 -0.095363
C50   C     C_R   0.325487 0.356992 0.205677 -0.093975
C51   C     C_R   0.588662 0.533672 0.003157 -0.266507
C52   C     C_R   0.411354 0.466209 0.996694 -0.267272
C53   C     C_R   0.550347 0.499375 0.055591 -0.040273
C54   C     C_R   0.449661 0.500505 0.944269 -0.040233
C55   C     C_R   0.460593 0.464622 0.052376 -0.018675
C56   C     C_3   0.550585 0.033557 0.077378 -0.175655
C57   C     C_R   0.539390 0.535174 0.947414 -0.018783
C58   C     C_R   0.119410 0.776074 0.934544 -0.127668
C59   C     C_R   0.878810 0.221932 0.063632 -0.128781
C60   C     C_R   0.105756 0.719144 0.969897 -0.128249
C61   C     C_R   0.892622 0.278838 0.028216 -0.129510
C62   C     C_R   0.027518 0.617851 0.927571 0.145872
C63   C     C_R   0.970785 0.380187 0.070685 0.148480
C64   C     C_R   0.392359 0.500024 0.607750 0.771226
C65   C     C_R   0.607635 0.499870 0.392251 0.766691
C66   C     C_R   0.962555 0.574942 0.850653 -0.144182
C67   C     C_3   0.553884 0.038334 0.959977 -0.176398
C68   C     C_R   0.035524 0.423208 0.147826 -0.142616
C69   C     C_R   0.976238 0.632384 0.815838 -0.137714
C70   C     C_R   0.021681 0.365807 0.182721 -0.137918
C71   C     C_R   0.054681 0.732732 0.857602 -0.115733
C72   C     C_R   0.943302 0.265387 0.140809 -0.115099
C73   C     C_R   0.959893 0.552618 0.016086 -0.282248
C74   C     C_R   0.038053 0.445047 0.981879 -0.280286
C75   C     C_R   0.945059 0.497312 0.053260 -0.050345
C76   C     C_R   0.053677 0.501276 0.945485 -0.050338
C77   C     C_R   0.984030 0.441857 0.035211 -0.007550
C78   C     C_3   0.446123 0.961669 0.040021 -0.176268
C79   C     C_R   0.014300 0.556250 0.963119 -0.006976
C80   C     C_R   0.393895 0.499188 0.887852 0.797575
C81   C     C_R   0.606105 0.500761 0.112090 0.796669
C82   C     C_R   0.109042 0.500297 0.607810 0.768415
C83   C     C_R   0.890961 0.499712 0.392191 0.768764
C84   C     C_3   0.076580 0.522209 0.480413 -0.182496
C85   C     C_3   0.923427 0.477823 0.519598 -0.182627
C86   C     C_3   0.043901 0.593656 0.514202 -0.182812
C87   C     C_3   0.956104 0.406374 0.485808 -0.182319
C88   C     C_3   0.948669 0.499335 0.448879 0.064979
C89   C     C_3   0.549318 0.102410 0.052440 0.056692
C90   C     C_3   0.051339 0.500692 0.551131 0.065349
C91   C     C_3   0.075283 0.227034 0.968170 -0.461165
C92   C     C_3   0.169007 0.327282 0.027312 -0.839937
C93   C     C_3   0.926625 0.773574 0.032844 -0.464086
C94   C     C_3   0.830939 0.676529 0.975517 -0.839416
C95   C     C_3   0.865414 0.893413 0.563950 -0.357273
C96   C     C_3   0.891446 0.863527 0.619426 -0.773025
C97   C     C_3   0.138473 0.108195 0.436125 -0.358013
C98   C     C_3   0.232429 0.155784 0.491866 -0.870967
H1    H     H_    0.079084 0.670533 0.524985 0.124823
H2    H     H_    0.039087 0.779720 0.140047 0.123068
H3    H     H_    0.709113 0.669224 0.755114 0.112452
H4    H     H_    0.290438 0.329520 0.243911 0.112463
H5    H     H_    0.635992 0.486262 0.702082 0.117328
H6    H     H_    0.363793 0.512687 0.297504 0.116648
H7    H     H_    0.555762 0.423237 0.789292 0.119719
H8    H     H_    0.444234 0.576209 0.210654 0.118714
H9    H     H_    0.625505 0.729092 0.985961 0.113793
H10   H     H_    0.374203 0.270429 0.013199 0.113743
H11   H     H_    0.140265 0.540409 0.465091 0.123360
H12   H     H_    0.920910 0.329499 0.475027 0.124670
H13   H     H_    0.859744 0.459631 0.534923 0.123468
H14   H     H_    0.703713 0.790314 0.896942 0.113464
H15   H     H_    0.295769 0.208699 0.101848 0.113308
H16   H     H_    0.657188 0.558473 0.004793 0.171791
H17   H     H_    0.342849 0.441469 0.995080 0.171660
H18   H     H_    0.065252 0.776934 0.830397 0.112323
H19   H     H_    0.932596 0.221222 0.168083 0.112171
H20   H     H_    0.180087 0.853759 0.966815 0.119276
H21   H     H_    0.818174 0.144197 0.031251 0.119286
H22   H     H_    0.156303 0.753206 0.029413 0.108602
H23   H     H_    0.159503 0.152583 0.860943 0.131098
H24   H     H_    0.842220 0.244724 0.968565 0.107975
H25   H     H_    0.901849 0.497067 0.817563 0.115723
H26   H     H_    0.096159 0.501154 0.181048 0.115157
H27   H     H_    0.926158 0.599020 0.756355 0.118855
H28   H     H_    0.071587 0.399261 0.242379 0.118466
H29   H     H_    0.928984 0.593569 0.028246 0.177576
H30   H     H_    0.068195 0.403205 0.969000 0.178578
H31   H     H_    0.963595 0.368283 0.343117 0.139853
H32   H     H_    0.036410 0.631750 0.656887 0.140122
H33   H     H_    0.598742 0.070818 0.927427 0.121409
H34   H     H_    0.853101 0.862459 0.144159 0.128250
H35   H     H_    0.401268 0.929187 0.072574 0.121691
H36   H     H_    0.407413 0.937977 0.858372 0.123603
H37   H     H_    0.592593 0.062026 0.141625 0.123621
H38   H     H_    0.400814 0.058679 0.029071 0.131444
H39   H     H_    0.599194 0.941326 0.970926 0.131294
H40   H     H_    0.456419 0.322851 0.393301 0.127746
H41   H     H_    0.543539 0.676861 0.606716 0.127785
H42   H     H_    0.341465 0.389165 0.407449 0.133767
H43   H     H_    0.658531 0.610574 0.592520 0.130686
H44   H     H_    0.483024 0.567129 0.418257 0.126726
H45   H     H_    0.130289 0.079190 0.701219 0.127890
H46   H     H_    0.516865 0.432532 0.581715 0.128501
H47   H     H_    0.221275 0.312768 0.011563 0.257315
H48   H     H_    0.179953 0.387122 0.017475 0.254818
H49   H     H_    0.176053 0.356992 0.098364 0.257129
H50   H     H_    0.024533 0.241771 0.990364 0.223690
H51   H     H_    0.066798 0.167381 0.977142 0.201674
H52   H     H_    0.817705 0.615334 0.984402 0.254741
H53   H     H_    0.781300 0.695016 0.993920 0.257327
H54   H     H_    0.822184 0.646514 0.904201 0.257906
H55   H     H_    0.938308 0.834315 0.023889 0.201869
H56   H     H_    0.883590 0.935951 0.303998 0.125797
H57   H     H_    0.974585 0.754356 0.009117 0.224202
H58   H     H_    0.935718 0.837816 0.595084 0.269687
H59   H     H_    0.926881 0.929883 0.690502 0.233256
H60   H     H_    0.829519 0.799448 0.615666 0.234216
H61   H     H_    0.843920 0.944436 0.603189 0.174006
H62   H     H_    0.803104 0.824114 0.506483 0.194863
H63   H     H_    0.251777 0.219413 0.561881 0.249762
H64   H     H_    0.234505 0.095307 0.491002 0.246352
H65   H     H_    0.283134 0.188340 0.463182 0.239675
H66   H     H_    0.130950 0.054481 0.366800 0.193765
H67   H     H_    0.927772 0.137323 0.697817 0.109875
H68   H     H_    0.135712 0.166309 0.433466 0.232344
H69   H     H_    0.067498 0.850922 0.299670 0.121716
H70   H     H_    0.955904 0.209655 0.857572 0.122964
O1    O     O_3   0.251620 0.500000 0.748430 -0.478222
O2    O     O_R   0.570330 0.268390 0.136490 -0.645563
O3    O     O_R   0.134680 0.268390 0.572240 -0.647815
O4    O     O_R   0.865320 0.731610 0.427760 -0.636535
O5    O     O_R   0.306670 0.731630 0.863510 -0.638042
O6    O     O_R   0.693330 0.268370 0.136490 -0.637820
O7    O     O_R   0.135450 0.439270 0.865360 -0.644231
O8    O     O_R   0.864550 0.560730 0.134640 -0.644040
O9    O     O_R   0.429670 0.560710 0.692610 -0.633083
O10   O     O_R   0.570330 0.439290 0.307390 -0.632220
O11   O     O_R   0.308540 0.439240 0.865360 -0.648994
O12   O     O_3   0.748380 0.500000 0.251570 -0.478487
O13   O     O_R   0.691460 0.560760 0.134640 -0.649282
O14   O     O_R   0.133580 0.439310 0.571150 -0.646324
O15   O     O_R   0.866420 0.560690 0.428850 -0.645587
O16   O     O_R   0.430770 0.560690 0.864590 -0.639555
O17   O     O_R   0.569230 0.439310 0.135410 -0.639352
O18   O     O_R   0.133580 0.560760 0.692610 -0.638493
O19   O     O_R   0.866420 0.439240 0.307390 -0.638509
O20   O     O_R   0.134680 0.560740 0.864590 -0.632038
O21   O     O_R   0.865320 0.439260 0.135410 -0.631894
O22   O     O_R   0.306670 0.439270 0.571150 -0.651748
O23   O     O_R   0.693330 0.560730 0.428850 -0.655096
O24   O     O_R   0.135450 0.268370 0.694460 -0.635997
O25   O     O_R   0.864550 0.731630 0.305540 -0.631379
O26   O     O_R   0.429670 0.731610 0.863510 -0.645801
Zn1   Zn    Zn3+2 0.207400 0.586780 0.791530 0.968959
Zn2   Zn    Zn3+2 0.792600 0.413220 0.208470 0.969429
Zn3   Zn    Zn3+2 0.208510 0.413230 0.792630 0.963785
Zn4   Zn    Zn3+2 0.791490 0.586770 0.207370 0.964129
Zn5   Zn    Zn3+2 0.383150 0.586740 0.791530 0.963074
Zn6   Zn    Zn3+2 0.616850 0.413260 0.208470 0.962750
Zn7   Zn    Zn3+2 0.207400 0.413250 0.618010 0.942350
Zn8   Zn    Zn3+2 0.792600 0.586750 0.381990 0.940419

loop_
_geom_bond_atom_site_label_1
_geom_bond_atom_site_label_2
_ccdc_geom_bond_type
C16   O5    A    
C39   H8    S    
C96   H60   S    
O6    Zn2   S    
C93   C94   S    
C64   O9    A    
O19   Zn2   S    
O14   Zn7   S    
C12   O25   A    
C14   C18   A    
C95   C96   S    
C84   C90   S    
C76   C79   A    
C81   O13   A    
C68   H26   S    
C6    C9    S    
O2    Zn6   S    
C97   C98   S    
O1    Zn1   S    
C87   H12   S    
C17   O6    A    
C15   C19   A    
C30   C97   S    
C45   H36   S    
C74   C76   A    
C82   O18   A    
C8    H41   S    
C95   H61   S    
C60   C62   A    
C18   H45   S    
C19   C21   A    
C84   C86   S    
C5    C11   S    
O12   Zn8   S    
C49   H3    S    
C86   C88   S    
C58   C71   A    
C85   C88   S    
C66   C69   A    
C21   C33   S    
C65   O10   A    
C58   C60   A    
C97   H68   S    
C37   H6    S    
C67   C89   S    
C56   C78   S    
C23   H31   S    
C53   C81   S    
C3    H38   S    
C34   C86   S    
C13   H46   S    
C61   C63   A    
C58   H20   S    
O7    Zn3   S    
C4    H39   S    
C22   H67   S    
C74   H30   S    
C15   H34   S    
C65   O23   A    
O20   Zn1   S    
C74   C77   A    
C46   H10   S    
C72   H19   S    
C45   C67   S    
C31   C33   A    
C78   H35   S    
C27   C91   S    
C51   C57   A    
O23   Zn8   S    
C14   C27   A    
C2    C16   S    
O12   Zn2   S    
C52   C55   A    
C59   C72   A    
O1    Zn5   S    
C68   C70   A    
C70   H28   S    
C48   C50   A    
C96   H59   S    
C92   H47   S    
C69   H27   S    
C2    C45   S    
C14   H23   S    
C23   C87   S    
C4    C56   S    
C92   H49   S    
C73   C75   A    
C83   O19   A    
C42   C44   A    
O13   Zn4   S    
C42   C57   S    
C81   O17   A    
C91   H50   S    
C98   H64   S    
C52   C54   A    
O25   Zn4   S    
C98   H65   S    
O1    Zn3   S    
C54   C80   S    
C53   C55   A    
C25   H70   S    
C46   C48   A    
C59   C61   A    
C51   H16   S    
C69   C71   A    
C23   C84   S    
C62   C66   A    
C85   C87   S    
C92   H48   S    
C95   H62   S    
C80   O11   A    
O18   Zn1   S    
C93   H57   S    
C24   H69   S    
C17   C89   S    
C12   O4    A    
O8    Zn4   S    
C91   C92   S    
C29   C95   S    
C17   O2    A    
C39   C43   A    
O11   Zn3   S    
C7    H40   S    
C94   H53   S    
C73   H29   S    
O1    Zn7   S    
C3    C45   S    
C1    C32   S    
C40   C76   S    
C61   H24   S    
C51   C53   A    
C34   C85   S    
O3    Zn7   S    
C2    C4    S    
C32   C35   A    
O5    Zn1   S    
O12   Zn6   S    
C4    C67   S    
C9    C11   S    
C62   C79   S    
C64   O22   A    
C34   C90   S    
O16   Zn5   S    
C16   O26   A    
C44   H9    S    
C73   C79   A    
C83   O15   A    
O24   Zn3   S    
C6    H43   S    
O4    Zn8   S    
C86   H1    S    
C75   C77   A    
C41   C75   S    
C43   C55   S    
C56   C89   S    
C22   C25   A    
C20   C22   A    
C50   H4    S    
C23   C88   S    
C36   H5    S    
C12   C31   S    
C21   C24   A    
C94   H52   S    
C98   H63   S    
C2    C78   S    
C5    H42   S    
C5    C7    S    
C63   C77   S    
C52   H17   S    
C7    C9    S    
O10   Zn6   S    
C63   C68   A    
C82   O14   A    
C1    O24   A    
C59   H21   S    
C30   C33   A    
C11   H44   S    
O15   Zn8   S    
C26   C28   A    
C20   C35   S    
C8    C10   S    
C67   H33   S    
C24   C26   A    
C85   H13   S    
C10   C13   S    
C40   O7    A    
C6    C8    S    
C44   C47   A    
O22   Zn7   S    
C38   C42   A    
C40   O20   A    
C25   C27   A    
C29   C35   A    
C10   C64   S    
C84   H11   S    
C82   C90   S    
C41   O21   A    
C3    C89   S    
C97   H66   S    
C38   H7    S    
C93   H55   S    
C5    C10   S    
C29   C31   A    
C47   C49   A    
C6    C13   S    
C30   C32   A    
C37   C50   A    
O21   Zn2   S    
C15   C28   A    
C96   H58   S    
C8    C11   S    
C36   C38   A    
C1    O3    A    
C71   H18   S    
C83   C88   S    
C18   C20   A    
C80   O16   A    
O17   Zn6   S    
C43   C46   A    
C9    C65   S    
C56   H37   S    
O12   Zn4   S    
C60   H22   S    
C41   O8    A    
O26   Zn5   S    
C7    C13   S    
C34   H32   S    
C37   C39   A    
O9    Zn5   S    
C87   C90   S    
C91   H51   S    
C19   H56   S    
C66   H25   S    
C28   C93   S    
C70   C72   A    
C3    C78   S    
C94   H54   S    
C36   C49   A    
C47   H14   S    
C26   H2    S    
C48   H15   S    
C54   C57   A    
