data_mof_unit_10801.cif
_audit_creation_date              2012-12-10T17:35:34-0500
_audit_creation_method            fapswitch 2.2
_symmetry_space_group_name_H-M    P1
_symmetry_Int_Tables_number       1
_space_group_crystal_system       triclinic
_cell_length_a                    10.867524
_cell_length_b                    12.372084
_cell_length_c                    13.222181
_cell_angle_alpha                 117.695093
_cell_angle_beta                  74.891767
_cell_angle_gamma                 101.221003
_cell_volume                      1514.07097814

loop_
_atom_site_label
_atom_site_type_symbol
_atom_type_description
_atom_site_fract_x
_atom_site_fract_y
_atom_site_fract_z
_atom_type_partial_charge
C1    C     C_R   0.507870 0.855289 0.286722 0.876048
C2    C     C_3   0.121542 0.011487 0.510792 -0.145768
C3    C     C_3   0.038279 0.041574 0.640164 -0.170853
C4    C     C_3   0.068822 0.883347 0.421644 -0.188032
C5    C     C_R   0.304574 0.284392 0.026989 -0.161035
C6    C     C_R   0.440838 0.231360 0.836735 -0.030124
C7    C     C_R   0.574626 0.814928 0.079270 -0.196551
C8    C     C_R   0.585781 0.737512 0.960140 0.010987
C9    C     C_R   0.535144 0.615506 0.925184 -0.211776
C10   C     C_R   0.467808 0.571731 0.007868 0.036782
C11   C     C_R   0.437955 0.656528 0.126128 0.061363
C12   C     C_R   0.738708 0.005181 0.505725 0.817336
C13   C     C_R   0.429666 0.445832 0.976713 0.075960
C14   C     C_R   0.342720 0.409157 0.057906 0.146166
C15   C     C_R   0.296343 0.497546 0.169064 -0.157358
C16   C     C_R   0.344532 0.619498 0.203517 -0.128774
C17   C     C_R   0.481495 0.355000 0.868883 -0.231500
C18   C     C_R   0.352678 0.195741 0.916314 -0.126518
C19   C     C_R   0.504189 0.774802 0.162948 -0.062897
C20   C     C_R   0.737246 0.360206 0.362118 -0.227965
C21   C     C_R   0.320666 0.759800 0.644601 0.083691
C22   C     C_R   0.286967 0.670178 0.684809 -0.201119
C23   C     C_R   0.477187 0.145742 0.714107 0.876105
C24   C     C_R   0.361593 0.572350 0.639393 -0.178835
C25   C     C_R   0.471649 0.562349 0.552318 0.011755
C26   C     C_R   0.505915 0.658021 0.514818 0.215209
C27   C     C_R   0.546793 0.458596 0.497813 -0.026306
C28   C     C_R   0.668562 0.465353 0.428747 0.100924
C29   C     C_R   0.716141 0.574188 0.419692 -0.128867
C30   C     C_R   0.626183 0.651309 0.434317 -0.127097
C31   C     C_R   0.506366 0.346604 0.506293 0.096791
C32   C     C_R   0.686682 0.250749 0.366007 0.119012
C33   C     C_R   0.259969 0.003590 0.504293 0.838363
C34   C     C_3   0.963586 0.103166 0.459082 -0.233640
C35   C     C_3   0.104655 0.108330 0.467573 -0.213049
C36   C     C_3   0.894307 0.050902 0.638217 -0.261213
C37   C     C_3   0.924135 0.885916 0.431153 -0.374334
C38   C     C_3   0.877007 0.015640 0.511649 -0.107920
Cu1   Cu    Cu3+1 0.529690 0.098270 0.475420 1.020575
Cu2   Cu    Cu3+1 0.470310 0.901730 0.524580 0.982068
H1    H     H_    0.080610 0.811426 0.444842 0.183891
H2    H     H_    0.832279 0.978685 0.660005 0.186324
H3    H     H_    0.318375 0.100370 0.891929 0.178136
H4    H     H_    0.555842 0.378453 0.808377 0.174244
H5    H     H_    0.421379 0.337181 0.566385 0.142727
H6    H     H_    0.265197 0.837109 0.683288 0.180432
H7    H     H_    0.332799 0.506516 0.675080 0.171329
N1    N     N_R   0.574690 0.246280 0.438200 -0.187640
N2    N     N_R   0.426100 0.754320 0.561190 -0.218392
O1    O     O_R   0.537340 0.972510 0.318130 -0.575936
O2    O     O_R   0.487200 0.806530 0.359650 -0.594613
O3    O     O_R   0.707380 0.082980 0.479220 -0.582101
O4    O     O_R   0.657240 0.917000 0.520740 -0.574439
O5    O     O_R   0.512800 0.193470 0.640350 -0.573303
O6    O     O_R   0.462660 0.027490 0.681870 -0.578344
O7    O     O_R   0.342760 0.083000 0.479260 -0.546131
O8    O     O_R   0.292620 0.917020 0.520780 -0.620100
C39   C     C_2   0.922967 0.228855 0.489855 0.922132
O9    O     O_2   0.841480 0.280597 0.574854 -0.524831
O10   O     O_R   0.983097 0.285743 0.417549 -0.776252
H8    H     H_    0.955841 0.371064 0.448378 0.353587
C40   C     C_2   0.035908 0.938247 0.676189 0.819922
O11   O     O_2   0.088270 0.956468 0.754954 -0.601075
O12   O     O_R   0.966129 0.825254 0.625918 -0.770714
H9    H     H_    0.970637 0.767149 0.659028 0.363286
H10   H     H_    0.226992 0.471643 0.231229 0.153429
H11   H     H_    0.236777 0.255658 0.087981 0.167855
H12   H     H_    0.621803 0.906837 0.106940 0.188961
H13   H     H_    0.545440 0.556866 0.832911 0.179339
C41   C     C_2   0.653255 0.782586 0.871843 0.873377
O13   O     O_2   0.700850 0.888348 0.902494 -0.556643
O14   O     O_R   0.661698 0.704396 0.753050 -0.765087
H14   H     H_    0.707708 0.746241 0.701697 0.355235
H15   H     H_    0.960210 0.054070 0.364356 0.127043
H16   H     H_    0.306916 0.683826 0.291139 0.164493
H17   H     H_    0.740149 0.170660 0.316680 0.129892
C42   C     C_2   0.853558 0.586942 0.365541 0.832154
O15   O     O_2   0.884622 0.585828 0.269414 -0.520522
O16   O     O_R   0.947119 0.588225 0.421342 -0.754530
H18   H     H_    0.036867 0.590393 0.374378 0.327242
H19   H     H_    0.828217 0.360303 0.304094 0.168852
H20   H     H_    0.203250 0.677417 0.752651 0.177719
C43   C     C_2   0.631230 0.646456 0.320523 0.946670
O17   O     O_2   0.705137 0.717866 0.288778 -0.596148
O18   O     O_R   0.567367 0.546210 0.241615 -0.758559
H21   H     H_    0.597239 0.537818 0.159261 0.338584
H22   H     H_    0.156802 0.075765 0.376199 0.200045
C44   C     C_2   0.166262 0.238764 0.519838 0.918399
O19   O     O_2   0.128557 0.311122 0.620475 -0.542619
O20   O     O_R   0.251375 0.280838 0.443657 -0.749040
H23   H     H_    0.264215 0.373245 0.477979 0.329109
C45   C     C_2   0.833268 0.166159 0.732606 0.918567
O21   O     O_2   0.884707 0.267927 0.747236 -0.495048
O22   O     O_R   0.720779 0.154900 0.808964 -0.750693
H24   H     H_    0.692948 0.237177 0.872698 0.340757
C46   C     C_2   0.094505 0.157286 0.735703 0.930775
O23   O     O_2   0.203198 0.202281 0.715836 -0.617907
O24   O     O_R   0.026946 0.201621 0.851156 -0.700675
H25   H     H_    0.075197 0.274127 0.907045 0.349358
H26   H     H_    0.869311 0.821620 0.466583 0.223760
H27   H     H_    0.902020 0.853430 0.343555 0.235006
C47   C     C_2   0.139242 0.836523 0.294450 0.773994
O25   O     O_2   0.240359 0.887829 0.265412 -0.625062
O26   O     O_R   0.090160 0.728809 0.210310 -0.696911
H28   H     H_    0.145311 0.704830 0.129566 0.349085

loop_
_geom_bond_atom_site_label_1
_geom_bond_atom_site_label_2
_ccdc_geom_bond_type
C2    C35   S    
C16   H16   S    
C36   H2    S    
C5    H11   S    
C21   N2    A    
C7    C8    A    
C42   O15   D    
C11   C19   A    
C37   C38   S    
C22   H20   S    
C21   C22   A    
C28   C29   A    
C9    H13   S    
Cu1   O5    S    
C4    H1    S    
C39   O10   S    
C15   C16   A    
C34   C35   S    
C11   C16   A    
C30   C43   S    
C40   O12   S    
C7    H12   S    
C35   H22   S    
Cu1   O7    S    
C8    C9    A    
C46   O24   S    
C41   O13   D    
C9    C10   A    
C12   O4    A    
C36   C45   S    
C33   O7    A    
Cu1   O3    S    
C20   H19   S    
C32   N1    A    
C47   O25   D    
O26   H28   S    
C12   O3    A    
C42   O16   S    
C6    C18   A    
C1    C19   S    
C27   C31   A    
C24   C25   A    
C26   N2    A    
Cu1   Cu2   S    
C5    C18   A    
C20   C28   A    
C39   O9    D    
O18   H21   S    
C15   H10   S    
C4    C47   S    
O10   H8    S    
C2    C4    S    
C29   C30   A    
C1    O1    A    
C35   C44   S    
C43   O17   D    
Cu2   O6    S    
C46   O23   D    
C40   O11   D    
C45   O22   S    
C44   O19   D    
C47   O26   S    
C1    O2    A    
C5    C14   A    
C3    C46   S    
C34   H15   S    
C2    C33   S    
C43   O18   S    
C44   O20   S    
C26   C30   A    
C7    C19   A    
C31   N1    A    
C22   C24   A    
C23   O5    A    
C21   H6    S    
C20   C32   A    
C3    C40   S    
C6    C17   A    
C33   O8    A    
Cu2   O8    S    
C34   C38   S    
C24   H7    S    
O14   H14   S    
C10   C13   A    
C32   H17   S    
Cu2   O4    S    
C23   O6    A    
C25   C27   A    
Cu2   O2    S    
C8    C41   S    
C13   C17   A    
O12   H9    S    
C36   C38   S    
C2    C3    S    
C25   C26   A    
C17   H4    S    
C18   H3    S    
C37   H27   S    
O20   H23   S    
C3    C36   S    
C6    C23   S    
C45   O21   D    
C12   C38   S    
O22   H24   S    
C10   C11   A    
O16   H18   S    
Cu1   O1    S    
C29   C42   S    
C4    C37   S    
O24   H25   S    
C31   H5    S    
C27   C28   A    
C34   C39   S    
C14   C15   A    
C41   O14   S    
C13   C14   A    
C37   H26   S    
Cu2   N2    S    
Cu1   N1    S    
