data_mof_unit_36301.cif
_audit_creation_date              2012-12-10T20:08:47-0500
_audit_creation_method            fapswitch 2.2
_symmetry_space_group_name_H-M    P1
_symmetry_Int_Tables_number       1
_space_group_crystal_system       triclinic
_cell_length_a                    19.258469
_cell_length_b                    18.761842
_cell_length_c                    14.804072
_cell_angle_alpha                 90.000192
_cell_angle_beta                  89.332153
_cell_angle_gamma                 90.000152
_cell_volume                      5348.70835768

loop_
_atom_site_label
_atom_site_type_symbol
_atom_type_description
_atom_site_fract_x
_atom_site_fract_y
_atom_site_fract_z
_atom_type_partial_charge
C1    C     C_R   0.366004 0.500032 0.501821 0.981686
C2    C     C_R   0.187371 0.561723 0.563199 -0.013173
C3    C     C_3   0.613737 0.153105 0.413410 -0.383327
C4    C     C_3   0.666930 0.132620 0.485615 -0.355214
C5    C     C_3   0.731480 0.098611 0.443233 -0.901394
C6    C     C_3   0.371157 0.842897 0.465429 -0.354946
C7    C     C_3   0.324450 0.831042 0.548885 -0.370794
C8    C     C_3   0.253013 0.864591 0.536430 -0.888598
C9    C     C_3   0.386265 0.153105 0.586595 -0.383333
C10   C     C_3   0.333072 0.132613 0.514393 -0.355210
C11   C     C_3   0.268523 0.098605 0.556778 -0.901400
C12   C     C_R   0.178679 0.454395 0.467228 -0.004825
C13   C     C_R   0.812628 0.561723 0.436799 -0.013173
C14   C     C_R   0.853398 0.512068 0.485721 -0.122897
C15   C     C_R   0.146602 0.512068 0.514277 -0.122898
C16   C     C_R   0.709222 0.500989 0.490474 -0.299825
C17   C     C_R   0.290778 0.500989 0.509525 -0.299826
C18   C     C_R   0.958452 0.527062 0.577791 -0.246017
C19   C     C_R   0.041548 0.527063 0.422207 -0.246017
C20   C     C_R   0.029798 0.521731 0.585595 -0.182755
C21   C     C_R   0.633995 0.500032 0.498180 0.981685
C22   C     C_R   0.970202 0.521732 0.414403 -0.182754
C23   C     C_R   0.071635 0.522138 0.507757 0.189920
C24   C     C_R   0.928365 0.522138 0.492241 0.189919
C25   C     C_R   0.554888 0.727986 0.537068 0.155306
C26   C     C_R   0.550555 0.272126 0.451638 0.135534
C27   C     C_R   0.445112 0.727986 0.462932 0.155307
C28   C     C_R   0.449445 0.272127 0.548363 0.135534
C29   C     C_R   0.559784 0.803756 0.524258 0.039043
C30   C     C_R   0.553292 0.195432 0.455350 0.040831
C31   C     C_R   0.440216 0.803756 0.475742 0.039043
C32   C     C_R   0.372386 0.526158 0.051039 0.052921
C33   C     C_R   0.446709 0.195432 0.544653 0.040829
C34   C     C_R   0.500000 0.842592 0.500000 0.187596
C35   C     C_R   0.500000 0.157020 0.500001 0.198869
C36   C     C_R   0.500507 0.499940 0.327040 0.873862
C37   C     C_R   0.499493 0.499941 0.672960 0.873861
C38   C     C_R   0.489805 0.962261 0.419554 0.473720
C39   C     C_R   0.513597 0.037184 0.579518 0.441257
C40   C     C_R   0.510196 0.962261 0.580448 0.473722
C41   C     C_R   0.486405 0.037184 0.420484 0.441255
C42   C     C_R   0.500001 0.075957 0.500001 -0.335036
C43   C     C_R   0.627614 0.526159 0.948961 0.052921
C44   C     C_R   0.500000 0.923517 0.500001 -0.354553
C45   C     C_R   0.559970 0.485218 0.816156 -0.009824
C46   C     C_R   0.440030 0.485218 0.183844 -0.009823
C47   C     C_R   0.499328 0.500632 0.769169 -0.073827
C48   C     C_R   0.500672 0.500631 0.230831 -0.073828
C49   C     C_R   0.438922 0.521822 0.812968 -0.278766
C50   C     C_R   0.561078 0.521822 0.187032 -0.278766
C51   C     C_R   0.436220 0.523638 0.907072 0.068593
C52   C     C_R   0.563780 0.523638 0.092928 0.068593
C53   C     C_R   0.500006 0.517673 0.953380 -0.011853
C54   C     C_R   0.749173 0.453999 0.541147 0.469829
C55   C     C_R   0.499994 0.517673 0.046620 -0.011853
C56   C     C_R   0.563852 0.508695 0.906085 0.043287
C57   C     C_R   0.436148 0.508695 0.093915 0.043287
C58   C     C_R   0.372716 0.534287 0.955427 0.067512
C59   C     C_R   0.627284 0.534287 0.044573 0.067512
C60   C     C_3   0.611498 0.432367 0.775684 -0.393594
C61   C     C_3   0.581627 0.356183 0.778017 -0.331060
C62   C     C_3   0.621905 0.306192 0.715211 -0.749196
C63   C     C_3   0.388502 0.432366 0.224316 -0.393596
C64   C     C_3   0.418373 0.356182 0.221981 -0.331060
C65   C     C_R   0.259009 0.550992 0.566466 0.464537
C66   C     C_3   0.378094 0.306190 0.284786 -0.749193
C67   C     C_3   0.306698 0.553814 0.904823 -0.395671
C68   C     C_3   0.270641 0.487073 0.867477 -0.334942
C69   C     C_3   0.204388 0.506455 0.817640 -0.891880
C70   C     C_3   0.693302 0.553815 0.095178 -0.395672
C71   C     C_3   0.729359 0.487074 0.132522 -0.334941
C72   C     C_3   0.795612 0.506455 0.182360 -0.891880
C73   C     C_3   0.310273 0.551363 0.108696 -0.415483
C74   C     C_3   0.244826 0.503883 0.102677 -0.344974
C75   C     C_3   0.202284 0.505553 0.190538 -0.908382
C76   C     C_R   0.250827 0.453999 0.458852 0.469829
C77   C     C_3   0.689728 0.551364 0.891304 -0.415483
C78   C     C_3   0.755174 0.503885 0.897323 -0.344975
C79   C     C_3   0.797716 0.505555 0.809461 -0.908380
C80   C     C_3   0.861727 0.393897 0.577069 -0.347412
C81   C     C_3   0.845877 0.321349 0.533899 -0.326052
C82   C     C_3   0.887833 0.261822 0.577519 -0.899526
C83   C     C_3   0.157130 0.628448 0.607429 -0.355176
C84   C     C_3   0.135505 0.683859 0.536751 -0.343564
C85   C     C_3   0.095218 0.745096 0.580353 -0.887178
C86   C     C_3   0.138272 0.393897 0.422927 -0.347412
C87   C     C_R   0.740991 0.550992 0.433533 0.464537
C88   C     C_3   0.154119 0.321350 0.466099 -0.326055
C89   C     C_3   0.112165 0.261823 0.422476 -0.899527
C90   C     C_3   0.842870 0.628448 0.392570 -0.355176
C91   C     C_3   0.864496 0.683859 0.463249 -0.343565
C92   C     C_3   0.904781 0.745097 0.419647 -0.887181
C93   C     C_3   0.601469 0.695139 0.608951 -0.352401
C94   C     C_3   0.678055 0.682396 0.582553 -0.356566
C95   C     C_3   0.713050 0.631085 0.648116 -0.917705
C96   C     C_3   0.599179 0.309103 0.384296 -0.372115
C97   C     C_3   0.675944 0.313904 0.411206 -0.373165
C98   C     C_R   0.821321 0.454395 0.532770 -0.004826
C99   C     C_3   0.716414 0.360851 0.344428 -0.904748
C100  C     C_3   0.398531 0.695139 0.391049 -0.352400
C101  C     C_3   0.321945 0.682395 0.417447 -0.356566
C102  C     C_3   0.286950 0.631084 0.351884 -0.917706
C103  C     C_3   0.400820 0.309104 0.615703 -0.372113
C104  C     C_3   0.324056 0.313902 0.588791 -0.373165
C105  C     C_3   0.283583 0.360847 0.655569 -0.904751
C106  C     C_3   0.628843 0.842897 0.534571 -0.354944
C107  C     C_3   0.675550 0.831043 0.451116 -0.370793
C108  C     C_3   0.746987 0.864591 0.463572 -0.888600
F1    F     F_    0.480661 0.927157 0.340391 -0.617248
F2    F     F_    0.528705 0.072273 0.657065 -0.628981
F3    F     F_    0.519340 0.927158 0.659610 -0.617248
F4    F     F_    0.471297 0.072273 0.342936 -0.628978
F5    F     F_    0.718133 0.408802 0.600605 -0.734408
F6    F     F_    0.298724 0.591628 0.621835 -0.708600
F7    F     F_    0.281867 0.408802 0.399394 -0.734407
F8    F     F_    0.701276 0.591628 0.378165 -0.708601
H1    H     H_    0.393929 0.531733 0.771907 0.181207
H2    H     H_    0.584201 0.335402 0.848245 0.210511
H3    H     H_    0.229269 0.367394 0.633193 0.248254
H4    H     H_    0.320722 0.335581 0.519952 0.288175
H5    H     H_    0.297534 0.261998 0.587758 0.224888
H6    H     H_    0.405659 0.283790 0.683182 0.169079
H7    H     H_    0.416927 0.362981 0.627237 0.267886
H8    H     H_    0.741932 0.922623 0.476960 0.267924
H9    H     H_    0.774240 0.838977 0.520744 0.260973
H10   H     H_    0.778569 0.857187 0.401103 0.260258
H11   H     H_    0.681931 0.773483 0.436231 0.240045
H12   H     H_    0.650683 0.855883 0.391437 0.249956
H13   H     H_    0.526203 0.355258 0.758316 0.234446
H14   H     H_    0.622919 0.901171 0.540555 0.219633
H15   H     H_    0.654082 0.828783 0.598774 0.208538
H16   H     H_    0.717067 0.050039 0.404847 0.270098
H17   H     H_    0.757913 0.136882 0.397068 0.262673
H18   H     H_    0.768180 0.083292 0.497175 0.257552
H19   H     H_    0.682563 0.180298 0.524991 0.228460
H20   H     H_    0.643444 0.094016 0.533796 0.254549
H21   H     H_    0.595717 0.104054 0.379950 0.238549
H22   H     H_    0.639031 0.180598 0.356056 0.204289
H23   H     H_    0.258069 0.922623 0.523043 0.267925
H24   H     H_    0.625332 0.448958 0.705875 0.249048
H25   H     H_    0.225761 0.838976 0.479257 0.260972
H26   H     H_    0.221431 0.857185 0.598898 0.260257
H27   H     H_    0.318069 0.773483 0.563770 0.240045
H28   H     H_    0.349318 0.855882 0.608564 0.249956
H29   H     H_    0.377081 0.901170 0.459446 0.219633
H30   H     H_    0.345918 0.828782 0.401227 0.208538
H31   H     H_    0.282937 0.050036 0.595170 0.270101
H32   H     H_    0.242089 0.136879 0.602938 0.262674
H33   H     H_    0.231825 0.083280 0.502838 0.257553
H34   H     H_    0.317439 0.180288 0.475011 0.228462
H35   H     H_    0.659975 0.430094 0.813503 0.224375
H36   H     H_    0.356559 0.094006 0.466216 0.254543
H37   H     H_    0.404287 0.104056 0.620060 0.238554
H38   H     H_    0.360969 0.180600 0.643947 0.204290
H39   H     H_    0.384515 0.322953 0.356147 0.295944
H40   H     H_    0.322070 0.306198 0.267757 0.273815
H41   H     H_    0.398534 0.251121 0.277497 0.244013
H42   H     H_    0.415800 0.335402 0.151753 0.210511
H43   H     H_    0.473797 0.355257 0.241684 0.234446
H44   H     H_    0.374668 0.448957 0.294125 0.249049
H45   H     H_    0.606072 0.531733 0.228093 0.181207
H46   H     H_    0.340025 0.430093 0.186496 0.224376
H47   H     H_    0.166415 0.531759 0.864695 0.251818
H48   H     H_    0.216343 0.543812 0.761561 0.293815
H49   H     H_    0.180712 0.457563 0.789034 0.249791
H50   H     H_    0.305837 0.458128 0.820384 0.224054
H51   H     H_    0.257323 0.449915 0.923311 0.214614
H52   H     H_    0.269898 0.584614 0.947081 0.195787
H53   H     H_    0.318770 0.591927 0.849490 0.218448
H54   H     H_    0.833585 0.531760 0.135305 0.251818
H55   H     H_    0.783657 0.543813 0.238439 0.293815
H56   H     H_    0.926327 0.527641 0.638393 0.144188
H57   H     H_    0.819288 0.457564 0.210964 0.249791
H58   H     H_    0.694163 0.458128 0.179615 0.224054
H59   H     H_    0.742678 0.449916 0.076688 0.214614
H60   H     H_    0.730102 0.584615 0.052920 0.195787
H61   H     H_    0.681230 0.591927 0.150511 0.218448
H62   H     H_    0.233082 0.484409 0.247520 0.289946
H63   H     H_    0.185959 0.560995 0.206340 0.264604
H64   H     H_    0.155125 0.472083 0.183310 0.247143
H65   H     H_    0.210482 0.522976 0.048237 0.225692
H66   H     H_    0.258683 0.447843 0.086599 0.216920
H67   H     H_    0.073673 0.527643 0.361605 0.144187
H68   H     H_    0.325829 0.556602 0.180237 0.214118
H69   H     H_    0.296753 0.606906 0.089861 0.184947
H70   H     H_    0.766918 0.484411 0.752480 0.289947
H71   H     H_    0.814041 0.560998 0.793660 0.264604
H72   H     H_    0.844875 0.472085 0.816689 0.247143
H73   H     H_    0.789518 0.522978 0.951763 0.225692
H74   H     H_    0.741317 0.447845 0.913400 0.216920
H75   H     H_    0.674171 0.556603 0.819763 0.214118
H76   H     H_    0.703248 0.606907 0.910140 0.184947
H77   H     H_    0.944356 0.271663 0.568196 0.260528
H78   H     H_    0.051985 0.515164 0.651930 0.131058
H79   H     H_    0.875366 0.258367 0.650841 0.269009
H80   H     H_    0.874726 0.210121 0.545400 0.255826
H81   H     H_    0.790050 0.308144 0.541777 0.262172
H82   H     H_    0.859242 0.323193 0.460733 0.211775
H83   H     H_    0.918545 0.400935 0.571132 0.203019
H84   H     H_    0.848553 0.392421 0.650369 0.221856
H85   H     H_    0.045575 0.725187 0.609849 0.266512
H86   H     H_    0.126341 0.770310 0.634336 0.262690
H87   H     H_    0.083253 0.785899 0.528474 0.253342
H88   H     H_    0.182685 0.705536 0.502872 0.224385
H89   H     H_    0.948015 0.515165 0.348067 0.131058
H90   H     H_    0.102447 0.659578 0.484202 0.236217
H91   H     H_    0.113141 0.615087 0.652874 0.190155
H92   H     H_    0.195607 0.654277 0.652166 0.242307
H93   H     H_    0.055642 0.271665 0.431790 0.260529
H94   H     H_    0.124638 0.258366 0.349156 0.269010
H95   H     H_    0.125269 0.210122 0.454598 0.255826
H96   H     H_    0.209946 0.308145 0.458226 0.262172
H97   H     H_    0.140750 0.323195 0.539264 0.211774
H98   H     H_    0.081454 0.400937 0.428860 0.203018
H99   H     H_    0.151449 0.392420 0.349627 0.221859
H100  H     H_    0.615483 0.322955 0.643850 0.295945
H101  H     H_    0.954424 0.725190 0.390151 0.266513
H102  H     H_    0.873656 0.770309 0.365663 0.262692
H103  H     H_    0.916744 0.785901 0.471525 0.253343
H104  H     H_    0.817316 0.705535 0.497130 0.224386
H105  H     H_    0.897555 0.659579 0.515795 0.236218
H106  H     H_    0.886859 0.615088 0.347125 0.190154
H107  H     H_    0.804392 0.654277 0.347834 0.242308
H108  H     H_    0.714688 0.655191 0.716571 0.263376
H109  H     H_    0.684585 0.579764 0.652207 0.261039
H110  H     H_    0.767120 0.620260 0.625154 0.250930
H111  H     H_    0.677930 0.306200 0.732239 0.273816
H112  H     H_    0.681722 0.661905 0.513100 0.290335
H113  H     H_    0.708907 0.731799 0.584582 0.214945
H114  H     H_    0.599639 0.729482 0.670138 0.181394
H115  H     H_    0.579779 0.644956 0.632092 0.256022
H116  H     H_    0.717072 0.335828 0.276428 0.260489
H117  H     H_    0.692440 0.414435 0.339250 0.266907
H118  H     H_    0.770728 0.367400 0.366803 0.248254
H119  H     H_    0.679278 0.335582 0.480046 0.288173
H120  H     H_    0.702467 0.262000 0.412237 0.224887
H121  H     H_    0.594340 0.283788 0.316818 0.169080
H122  H     H_    0.601465 0.251122 0.722500 0.244013
H123  H     H_    0.583071 0.362979 0.372761 0.267886
H124  H     H_    0.285312 0.655189 0.283429 0.263376
H125  H     H_    0.315415 0.579763 0.347793 0.261039
H126  H     H_    0.232880 0.620259 0.374846 0.250930
H127  H     H_    0.318278 0.661904 0.486900 0.290335
H128  H     H_    0.291093 0.731798 0.415418 0.214945
H129  H     H_    0.400361 0.729481 0.329863 0.181394
H130  H     H_    0.420221 0.644955 0.367907 0.256022
H131  H     H_    0.282925 0.335825 0.723568 0.260490
H132  H     H_    0.307555 0.414433 0.660748 0.266907
N1    N     N_R   0.500000 0.689440 0.500000 -0.137153
N2    N     N_R   0.500000 0.310560 0.500000 -0.146475
O1    O     O_R   0.398180 0.560840 0.499980 -0.585615
O2    O     O_R   0.601820 0.439160 0.500020 -0.608543
O3    O     O_R   0.601820 0.560840 0.500020 -0.585616
O4    O     O_R   0.398180 0.439160 0.499980 -0.608545
O5    O     O_R   0.499980 0.560820 0.367840 -0.626321
O6    O     O_R   0.500020 0.439180 0.632160 -0.651946
O7    O     O_R   0.500020 0.560820 0.632160 -0.626322
O8    O     O_R   0.499980 0.439180 0.367840 -0.651946
Zn1   Zn    Zn3+2 0.500000 0.581210 0.500000 0.974901
Zn2   Zn    Zn3+2 0.500000 0.418790 0.500000 0.922525

loop_
_geom_bond_atom_site_label_1
_geom_bond_atom_site_label_2
_ccdc_geom_bond_type
C67   H52   S    
C93   H114  S    
C63   H46   S    
C45   C60   S    
C25   C93   S    
C101  C102  S    
C79   H70   S    
C13   C90   S    
C3    C30   S    
C41   C42   A    
C6    C7    S    
C53   C55   A    
C104  C105  S    
C43   C56   A    
C78   H74   S    
C69   H48   S    
C32   C58   A    
C2    C65   A    
C103  H7    S    
C21   O2    A    
C86   H98   S    
C99   H116  S    
C7    C8    S    
C47   C49   A    
C74   H65   S    
C77   C78   S    
C67   H53   S    
C5    H17   S    
C26   C96   S    
C16   C21   S    
C79   H71   S    
C30   C35   A    
C8    H23   S    
C18   C24   A    
C63   H44   S    
N1    Zn1   S    
C107  H12   S    
C90   H106  S    
C81   H81   S    
C66   H39   S    
C6    H30   S    
C86   C88   S    
C11   H32   S    
C106  C107  S    
C62   H111  S    
C97   H119  S    
C54   F5    S    
C69   H49   S    
C76   F7    S    
C96   H121  S    
C14   C24   S    
C91   H104  S    
C75   H62   S    
C101  H128  S    
C86   H99   S    
C105  H131  S    
C82   H77   S    
C83   H91   S    
C100  H129  S    
C26   N2    A    
O1    Zn1   S    
C25   N1    A    
C11   H33   S    
C39   F2    S    
C49   H1    S    
C45   C56   A    
C68   C69   S    
C49   C51   A    
C41   F4    S    
C16   C87   A    
C50   C52   A    
C107  C108  S    
C20   C23   A    
C70   C71   S    
C102  H126  S    
C36   O8    A    
C108  H9    S    
C37   C47   S    
C75   H63   S    
C9    C10   S    
C40   C44   A    
C82   H80   S    
C52   C55   A    
C43   C59   A    
C4    H20   S    
C10   H36   S    
C84   H88   S    
C48   C50   A    
C6    C31   S    
C9    H37   S    
C20   H78   S    
C13   C14   A    
C50   H45   S    
C9    C33   S    
C2    C83   S    
C5    H18   S    
C78   H73   S    
C32   C57   A    
C108  H8    S    
N2    Zn2   S    
C7    H28   S    
C97   C99   S    
C14   C98   A    
C40   F3    S    
O5    Zn1   S    
C45   C47   A    
C73   C74   S    
C25   C29   A    
C106  H15   S    
C46   C48   A    
C27   C100  S    
C36   O5    A    
C79   H72   S    
C27   C31   A    
C67   C68   S    
C77   H75   S    
C72   H55   S    
C102  H124  S    
C19   C22   A    
C34   C44   S    
C84   C85   S    
C38   C41   A    
C89   H95   S    
C35   C42   S    
C88   H97   S    
C19   H67   S    
C91   C92   S    
C102  H125  S    
C73   H68   S    
C78   C79   S    
C4    C5    S    
C89   H93   S    
C104  H5    S    
C5    H16   S    
C80   H83   S    
C29   C34   A    
C11   H31   S    
C81   C82   S    
C22   H89   S    
C60   C61   S    
C51   C53   A    
C60   H35   S    
C72   H54   S    
C92   H103  S    
C19   C23   A    
C95   H109  S    
C105  H132  S    
C38   C44   A    
C83   H92   S    
C2    C15   A    
C52   C59   A    
C61   H13   S    
C17   C76   A    
O3    Zn1   S    
C83   C84   S    
C12   C15   A    
O4    Zn2   S    
C37   O6    A    
C96   C97   S    
C13   C87   A    
C82   H79   S    
C31   C34   A    
C94   C95   S    
C3    H22   S    
C72   H57   S    
C88   C89   S    
C38   F1    S    
C92   H102  S    
C75   H64   S    
C87   F8    S    
C8    H25   S    
C85   H86   S    
C60   H24   S    
C39   C42   A    
C3    H21   S    
C4    H19   S    
C26   C30   A    
C18   H56   S    
C12   C76   A    
C46   C57   A    
C88   H96   S    
C96   H123  S    
C22   C24   A    
C29   C106  S    
C51   C58   A    
C1    C17   S    
C3    C4    S    
O8    Zn2   S    
C81   H82   S    
C1    O4    A    
O2    Zn2   S    
C53   C56   A    
C106  H14   S    
C99   H118  S    
C80   H84   S    
C80   C98   S    
C61   H2    S    
C77   H76   S    
C62   H100  S    
C105  H3    S    
C7    H27   S    
C69   H47   S    
C37   O7    A    
C80   C81   S    
C91   H105  S    
C28   C33   A    
C73   H69   S    
C92   H101  S    
C1    O1    A    
C70   H61   S    
C89   H94   S    
C74   H66   S    
C85   H85   S    
C43   C77   S    
C93   C94   S    
C17   C65   A    
C95   H108  S    
C62   H122  S    
C71   H58   S    
C12   C86   S    
C46   C63   S    
C108  H10   S    
C94   H112  S    
C16   C54   A    
C55   C57   A    
C27   N1    A    
C95   H110  S    
C107  H11   S    
C90   H107  S    
C10   H34   S    
C66   H40   S    
C97   H120  S    
C28   C103  S    
C93   H115  S    
C90   C91   S    
C99   H117  S    
O6    Zn2   S    
C64   H43   S    
C15   C23   S    
C100  C101  S    
C33   C35   A    
C71   H59   S    
C36   C48   S    
C18   C20   A    
C61   C62   S    
C101  H127  S    
C28   N2    A    
C65   F6    S    
C100  H130  S    
C10   C11   S    
C85   H87   S    
C59   C70   S    
C21   O3    A    
C63   C64   S    
C39   C40   A    
C68   H51   S    
C84   H90   S    
C58   C67   S    
C71   C72   S    
C74   C75   S    
C94   H113  S    
C6    H29   S    
C64   H42   S    
C103  C104  S    
C54   C98   A    
C8    H26   S    
O7    Zn1   S    
C103  H6    S    
C70   H60   S    
C32   C73   S    
C66   H41   S    
C9    H38   S    
C64   C66   S    
C104  H4    S    
C68   H50   S    
