data_mof_unit_9255.cif
_audit_creation_date              2012-12-10T18:06:40-0500
_audit_creation_method            fapswitch 2.2
_symmetry_space_group_name_H-M    P1
_symmetry_Int_Tables_number       1
_space_group_crystal_system       triclinic
_cell_length_a                    12.600705
_cell_length_b                    13.143392
_cell_length_c                    15.445251
_cell_angle_alpha                 83.271847
_cell_angle_beta                  98.660472
_cell_angle_gamma                 96.772038
_cell_volume                      2498.26531572

loop_
_atom_site_label
_atom_site_type_symbol
_atom_type_description
_atom_site_fract_x
_atom_site_fract_y
_atom_site_fract_z
_atom_type_partial_charge
C1    C     C_R   0.442154 0.308647 0.507116 0.852104
C2    C     C_R   0.424862 0.444785 0.105780 0.120487
C3    C     C_R   0.314690 0.451502 0.072163 0.163781
C4    C     C_R   0.496803 0.418720 0.051870 0.010489
C5    C     C_R   0.462837 0.420537 0.960618 0.068609
C6    C     C_R   0.351423 0.422279 0.928923 -0.210017
C7    C     C_R   0.278185 0.435413 0.984656 -0.221498
C8    C     C_R   0.601808 0.392653 0.085985 -0.285968
C9    C     C_R   0.676740 0.383062 0.030592 0.359552
C10   C     C_R   0.649444 0.403572 0.939235 0.075079
C11   C     C_R   0.542033 0.423282 0.904222 0.038850
C12   C     C_R   0.434579 0.509709 0.336181 0.863566
C13   C     C_R   0.727271 0.407546 0.882019 -0.136232
C14   C     C_R   0.700737 0.435077 0.792176 -0.215429
C15   C     C_R   0.518603 0.453841 0.814412 -0.232505
C16   C     C_R   0.640813 0.942752 0.366914 -0.187909
C17   C     C_R   0.582374 0.801168 0.468871 -0.055583
C18   C     C_R   0.333059 0.158994 0.571255 -0.177639
C19   C     C_R   0.313289 0.053344 0.590565 -0.137366
C20   C     C_R   0.370892 0.987584 0.555943 -0.182887
C21   C     C_R   0.446056 0.027121 0.497492 0.088606
C22   C     C_R   0.452908 0.132755 0.467744 0.095057
C23   C     C_R   0.556004 0.691626 0.488947 0.862494
C24   C     C_R   0.514730 0.965497 0.467553 0.084648
C25   C     C_R   0.575298 0.005345 0.398389 0.175091
C26   C     C_R   0.567839 0.106241 0.360693 -0.252113
C27   C     C_R   0.507655 0.169536 0.395135 -0.199443
C28   C     C_R   0.525958 0.865475 0.505632 -0.249842
C29   C     C_R   0.642891 0.839962 0.401134 -0.187729
C30   C     C_R   0.405520 0.199171 0.512201 -0.109672
C31   C     C_R   0.138209 0.641332 0.622462 -0.306212
C32   C     C_R   0.757271 0.380674 0.395506 -0.082832
C33   C     C_R   0.852556 0.353724 0.373472 -0.064907
C34   C     C_R   0.563724 0.484523 0.664132 0.858017
C35   C     C_R   0.950618 0.398886 0.414144 -0.178014
C36   C     C_R   0.952734 0.470708 0.476105 -0.029848
C37   C     C_R   0.853380 0.494317 0.496041 0.238898
C38   C     C_R   0.048972 0.520156 0.518666 -0.000978
C39   C     C_R   0.043917 0.591564 0.580152 0.197507
C40   C     C_R   0.944890 0.612872 0.598565 -0.285321
C41   C     C_R   0.850917 0.564906 0.556807 -0.206982
C42   C     C_R   0.150936 0.502176 0.502599 -0.051568
C43   C     C_R   0.236492 0.620044 0.603438 0.009483
C44   C     C_R   0.391555 0.496760 0.244334 -0.071245
C45   C     C_R   0.596446 0.459753 0.758405 -0.054244
C46   C     C_R   0.243336 0.476471 0.126170 -0.173250
C47   C     C_R   0.281469 0.498081 0.212371 -0.173785
C48   C     C_R   0.462000 0.472026 0.190358 -0.269211
H1    H     H_    0.193680 0.437594 0.958205 0.156025
H2    H     H_    0.809317 0.391351 0.906125 0.193488
H3    H     H_    0.686526 0.789881 0.371687 0.165237
H4    H     H_    0.609753 0.136687 0.305462 0.141593
H5    H     H_    0.686628 0.972077 0.313663 0.153311
H6    H     H_    0.487600 0.833719 0.562176 0.140098
H7    H     H_    0.294329 0.209306 0.604670 0.159636
H8    H     H_    0.352968 0.906315 0.574249 0.131290
H9    H     H_    0.256529 0.022432 0.635459 0.144957
H10   H     H_    0.502972 0.247157 0.363604 0.156329
H11   H     H_    0.310864 0.657492 0.635203 0.129249
H12   H     H_    0.440315 0.477333 0.787324 0.158689
H13   H     H_    0.939950 0.667161 0.645189 0.158036
H14   H     H_    0.135829 0.695931 0.669396 0.144895
H15   H     H_    0.163832 0.449893 0.457494 0.129570
H16   H     H_    0.680137 0.347582 0.364779 0.124877
H17   H     H_    0.023189 0.376849 0.395921 0.175830
H18   H     H_    0.777362 0.584986 0.573132 0.213922
H19   H     H_    0.761955 0.437813 0.749435 0.166439
H20   H     H_    0.158493 0.479937 0.101564 0.165828
H21   H     H_    0.225165 0.515439 0.253758 0.168338
H22   H     H_    0.547138 0.477248 0.214417 0.167313
H23   H     H_    0.318586 0.411562 0.861524 0.147622
H24   H     H_    0.626841 0.377225 0.155883 0.162893
N1    N     N_R   0.239390 0.551900 0.544730 -0.102976
N2    N     N_R   0.759950 0.448600 0.455730 -0.122004
O1    O     O_R   0.374950 0.371210 0.521360 -0.614048
O2    O     O_R   0.542050 0.338030 0.492790 -0.606384
O3    O     O_R   0.368720 0.526070 0.390200 -0.610451
O4    O     O_R   0.535820 0.492890 0.361630 -0.624516
O5    O     O_R   0.457950 0.661970 0.507210 -0.606653
O6    O     O_R   0.625050 0.628790 0.478640 -0.633158
O7    O     O_R   0.464180 0.507110 0.638370 -0.621135
O8    O     O_R   0.631280 0.473930 0.609800 -0.630004
Zn1   Zn    Zn3+2 0.388420 0.522150 0.519080 0.942328
Zn2   Zn    Zn3+2 0.611580 0.477850 0.480920 0.932845
C49   C     C_2   0.848192 0.279013 0.308209 0.484391
H25   H     H_    0.770846 0.247912 0.275648 0.052987
O9    O     O_2   0.930547 0.251414 0.289788 -0.529927
Cl1   Cl    Cl    0.806168 0.351838 0.079376 -0.638847

loop_
_geom_bond_atom_site_label_1
_geom_bond_atom_site_label_2
_ccdc_geom_bond_type
C43   N1    A    
C37   N2    A    
C17   C29   A    
C15   H12   S    
C35   C36   A    
O6    Zn2   S    
O2    Zn2   S    
C49   H25   S    
C19   H9    S    
C26   C27   A    
C17   C23   S    
C31   C43   A    
C36   C37   A    
C5    C11   A    
C3    C7    A    
C9    Cl1   S    
C32   N2    A    
C5    C6    A    
C35   H17   S    
C18   C19   A    
C33   C49   S    
C16   H5    S    
C47   H21   S    
C11   C15   A    
C19   C20   A    
C8    C9    A    
C12   O4    A    
C14   H19   S    
C18   C30   A    
C34   O7    A    
C23   O6    A    
C9    C10   A    
C44   C47   A    
C4    C8    A    
C21   C22   A    
C17   C28   A    
C31   H14   S    
O7    Zn1   S    
C14   C45   A    
C49   O9    D    
C6    H23   S    
C8    H24   S    
C1    O1    A    
C24   C25   A    
C7    H1    S    
C48   H22   S    
C39   C40   A    
C28   H6    S    
C2    C48   A    
C25   C26   A    
C27   H10   S    
C40   H13   S    
C2    C4    A    
C46   H20   S    
C26   H4    S    
C12   O3    A    
C34   C45   S    
C32   H16   S    
C6    C7    A    
C18   H7    S    
C40   C41   A    
O8    Zn2   S    
C22   C27   A    
C15   C45   A    
C29   H3    S    
C16   C25   A    
C46   C47   A    
C42   N1    A    
C22   C30   A    
C1    O2    A    
C24   C28   A    
N2    Zn2   S    
C4    C5    A    
C10   C13   A    
C38   C42   A    
C41   H18   S    
C43   H11   S    
C3    C46   A    
C32   C33   A    
C36   C38   A    
C2    C3    A    
C16   C29   A    
C12   C44   S    
O5    Zn1   S    
O1    Zn1   S    
C38   C39   A    
C1    C30   S    
C33   C35   A    
C31   C39   A    
C20   H8    S    
C37   C41   A    
C10   C11   A    
C13   H2    S    
O4    Zn2   S    
C20   C21   A    
C21   C24   A    
O3    Zn1   S    
C34   O8    A    
C23   O5    A    
C13   C14   A    
C42   H15   S    
N1    Zn1   S    
C44   C48   A    
