data_mof_unit_12335.cif
_audit_creation_date              2012-12-11T14:04:06-0500
_audit_creation_method            fapswitch 2.2
_symmetry_space_group_name_H-M    P1
_symmetry_Int_Tables_number       1
_space_group_crystal_system       triclinic
_cell_length_a                    18.899328
_cell_length_b                    11.041702
_cell_length_c                    18.868813
_cell_angle_alpha                 90.265624
_cell_angle_beta                  89.770335
_cell_angle_gamma                 89.872548
_cell_volume                      3937.4741541

loop_
_atom_site_label
_atom_site_type_symbol
_atom_type_description
_atom_site_fract_x
_atom_site_fract_y
_atom_site_fract_z
_atom_type_partial_charge
C1    C     C_R   0.240352 0.466595 0.647055 0.538782
C2    C     C_R   0.760221 0.467583 0.353521 0.553435
C3    C     C_R   0.740351 0.966596 0.647054 0.538378
C4    C     C_R   0.260221 0.967582 0.353521 0.553626
C5    C     C_2   0.283837 0.830046 0.535073 -0.174021
C6    C     C_2   0.723506 0.819989 0.466972 -0.166849
C7    C     C_2   0.783840 0.330052 0.535075 -0.174073
C8    C     C_2   0.223518 0.319974 0.466976 -0.166766
C9    C     C_R   0.007941 0.668412 0.423854 -0.042623
C10   C     C_R   0.996633 0.658063 0.573306 -0.038246
C11   C     C_R   0.507913 0.168407 0.423872 -0.042816
C12   C     C_R   0.496602 0.158064 0.573324 -0.037553
C13   C     C_R   0.000467 0.892060 0.432165 -0.073225
C14   C     C_R   0.969763 0.875380 0.576514 -0.077531
C15   C     C_R   0.500434 0.392059 0.432185 -0.073263
C16   C     C_R   0.469733 0.375375 0.576535 -0.077482
C17   C     C_R   0.984274 0.995771 0.471401 -0.116054
C18   C     C_R   0.966269 0.986783 0.542750 -0.115630
C19   C     C_R   0.484240 0.495768 0.471423 -0.116059
C20   C     C_R   0.466237 0.486778 0.542772 -0.115630
C21   C     C_R   0.989245 0.770113 0.538611 0.007863
C22   C     C_R   0.999006 0.776710 0.464051 0.008928
C23   C     C_R   0.489213 0.270110 0.538629 0.008137
C24   C     C_R   0.498974 0.276707 0.464069 0.008696
C25   C     C_R   0.001182 0.550926 0.531475 0.019693
C26   C     C_R   0.021203 0.559707 0.460019 0.012812
C27   C     C_R   0.501136 0.050926 0.531495 0.020031
C28   C     C_R   0.521162 0.059698 0.460041 0.012513
C29   C     C_R   0.988276 0.434172 0.559034 -0.064211
C30   C     C_R   0.047820 0.455895 0.424788 -0.062245
C31   C     C_R   0.488221 0.934181 0.559061 -0.064235
C32   C     C_R   0.547778 0.955876 0.424819 -0.062201
C33   C     C_R   0.008756 0.331188 0.521289 -0.096391
C34   C     C_R   0.042096 0.342315 0.455818 -0.087826
C35   C     C_R   0.508699 0.831188 0.521324 -0.096465
C36   C     C_R   0.542047 0.842301 0.455856 -0.087809
C37   C     C_2   0.250823 0.933860 0.916194 -0.080677
C38   C     C_2   0.739874 0.940092 0.091217 -0.038282
C39   C     C_2   0.750596 0.433045 0.916481 -0.088255
C40   C     C_2   0.242074 0.438118 0.090035 -0.031813
C41   C     C_2   0.271179 0.985153 0.068253 -0.102454
C42   C     C_2   0.751335 0.915922 0.917324 -0.014326
C43   C     C_2   0.771169 0.485017 0.068296 -0.097657
C44   C     C_2   0.251662 0.413465 0.916164 -0.026421
C45   C     C_R   0.227515 0.873748 0.647490 0.548742
C46   C     C_R   0.772801 0.872985 0.352953 0.547179
C47   C     C_R   0.727514 0.373747 0.647489 0.549504
C48   C     C_R   0.272801 0.372984 0.352953 0.546619
C49   C     C_2   0.226516 0.042202 0.024811 0.213060
C50   C     C_2   0.741580 0.994170 0.970693 0.233816
C51   C     C_2   0.726374 0.541871 0.024901 0.209027
C52   C     C_2   0.247458 0.492060 0.969905 0.225936
C53   C     C_2   0.203237 0.979218 0.962526 0.269411
C54   C     C_2   0.778741 0.972445 0.035624 0.222147
C55   C     C_2   0.703023 0.478826 0.962667 0.266974
C56   C     C_2   0.282716 0.461924 0.034223 0.233602
C57   C     C_2   0.008320 0.656460 0.925500 -0.065482
C58   C     C_2   0.007465 0.661825 0.082260 -0.076679
C59   C     C_2   0.491102 0.164243 0.917153 -0.076857
C60   C     C_2   0.489713 0.155429 0.073810 -0.044348
C61   C     C_2   0.016291 0.561874 0.043257 -0.151117
C62   C     C_2   0.029456 0.565450 0.967763 -0.101685
C63   C     C_2   0.463656 0.069398 0.030433 -0.136315
C64   C     C_2   0.477804 0.064929 0.954871 -0.143761
C65   C     C_R   0.027638 0.654013 0.645770 0.519140
C66   C     C_R   0.973143 0.656113 0.353490 0.525516
C67   C     C_R   0.527631 0.154014 0.645777 0.516013
C68   C     C_R   0.473137 0.156112 0.353495 0.526841
C69   C     C_R   0.240590 0.460920 0.847174 0.568456
C70   C     C_R   0.776085 0.518706 0.141868 0.593843
C71   C     C_R   0.740464 0.961465 0.847646 0.569271
C72   C     C_R   0.276083 0.018722 0.141861 0.590671
C73   C     C_R   0.226784 0.873233 0.853018 0.616898
C74   C     C_R   0.770917 0.877308 0.150039 0.578441
C75   C     C_R   0.726615 0.372759 0.853229 0.615362
C76   C     C_R   0.271070 0.377197 0.150114 0.579807
C77   C     C_R   0.031252 0.651841 0.852150 0.569369
C78   C     C_R   0.971638 0.652297 0.149927 0.541161
C79   C     C_R   0.528179 0.152876 0.850035 0.582110
C80   C     C_R   0.468313 0.151371 0.147611 0.545097
C81   C     C_2   0.249387 0.910602 0.576825 -0.116729
C82   C     C_2   0.752031 0.906073 0.424777 -0.116339
C83   C     C_2   0.749387 0.410603 0.576825 -0.116585
C84   C     C_2   0.252034 0.406065 0.424780 -0.116349
C85   C     C_2   0.245199 0.911747 0.421848 -0.125029
C86   C     C_2   0.757311 0.910933 0.579062 -0.120566
C87   C     C_2   0.745201 0.411745 0.421848 -0.124792
C88   C     C_2   0.257315 0.410933 0.579064 -0.120870
C89   C     C_2   0.293131 0.847713 0.458600 -0.047093
C90   C     C_2   0.714303 0.835974 0.543850 -0.040724
C91   C     C_2   0.793137 0.347721 0.458602 -0.047016
C92   C     C_2   0.214314 0.335960 0.543855 -0.040795
Cr1   Cr    Cr6+3 0.113970 0.508630 0.747920 1.067204
Cr2   Cr    Cr6+3 0.886030 0.508630 0.252080 1.066881
Cr3   Cr    Cr6+3 0.613970 0.008630 0.747920 1.075191
Cr4   Cr    Cr6+3 0.386030 0.008630 0.252080 1.067024
Cr5   Cr    Cr6+3 0.269200 0.666740 0.749850 1.054972
Cr6   Cr    Cr6+3 0.730800 0.666740 0.250150 1.067569
Cr7   Cr    Cr6+3 0.769200 0.166740 0.749850 1.056004
Cr8   Cr    Cr6+3 0.230800 0.166740 0.250150 1.065360
Cr9   Cr    Cr6+3 0.112300 0.820070 0.749800 1.095624
Cr10  Cr    Cr6+3 0.887700 0.820070 0.250200 1.076838
Cr11  Cr    Cr6+3 0.612300 0.320070 0.749800 1.095150
Cr12  Cr    Cr6+3 0.387700 0.320070 0.250200 1.078939
H1    H     H_    0.298313 0.902920 0.051185 0.099812
H2    H     H_    0.783322 0.834738 0.923752 0.086404
H3    H     H_    0.798286 0.402726 0.051293 0.103339
H4    H     H_    0.277047 0.325541 0.921731 0.091403
H5    H     H_    0.307379 0.943474 0.924889 0.040401
H6    H     H_    0.682366 0.940982 0.087710 0.134951
H7    H     H_    0.807150 0.442262 0.925281 0.047068
H8    H     H_    0.184791 0.447259 0.086732 0.118174
H9    H     H_    0.010175 0.472321 0.066106 0.178226
H10   H     H_    0.056327 0.486141 0.946296 0.193549
H11   H     H_    0.433334 0.993957 0.051345 0.155599
H12   H     H_    0.481390 0.975301 0.931083 0.177104
H13   H     H_    0.016669 0.751262 0.060380 0.186087
H14   H     H_    0.981849 0.736797 0.945845 0.150609
H15   H     H_    0.519792 0.232074 0.054310 0.178070
H16   H     H_    0.484059 0.254050 0.939870 0.181963
H17   H     H_    0.304406 0.746195 0.557026 0.151596
H18   H     H_    0.707801 0.733013 0.444872 0.150468
H19   H     H_    0.804412 0.246203 0.557028 0.151550
H20   H     H_    0.207821 0.232992 0.444877 0.150505
H21   H     H_    0.195976 0.939559 0.447148 0.101781
H22   H     H_    0.803782 0.947328 0.552660 0.104946
H23   H     H_    0.695975 0.439548 0.447147 0.101783
H24   H     H_    0.303783 0.447338 0.552660 0.104952
H25   H     H_    0.229073 0.995314 0.556096 0.114024
H26   H     H_    0.768055 0.993853 0.445155 0.105566
H27   H     H_    0.729070 0.495313 0.556095 0.114031
H28   H     H_    0.268050 0.493850 0.445156 0.105548
H29   H     H_    0.985253 0.083024 0.446072 0.139447
H30   H     H_    0.950104 0.065973 0.572555 0.112952
H31   H     H_    0.485219 0.583023 0.446096 0.139505
H32   H     H_    0.450071 0.565965 0.572580 0.112784
H33   H     H_    0.015797 0.903450 0.377321 0.139234
H34   H     H_    0.955046 0.871526 0.631957 0.127646
H35   H     H_    0.515766 0.403455 0.377342 0.139532
H36   H     H_    0.455020 0.371517 0.631980 0.127094
H37   H     H_    0.070709 0.462281 0.372200 0.127655
H38   H     H_    0.962516 0.421900 0.609834 0.135281
H39   H     H_    0.570677 0.962251 0.372235 0.128624
H40   H     H_    0.462463 0.921925 0.609864 0.134436
H41   H     H_    0.000772 0.243076 0.544015 0.121758
H42   H     H_    0.060907 0.262709 0.427824 0.115439
H43   H     H_    0.500712 0.743082 0.544056 0.121653
H44   H     H_    0.560860 0.762690 0.427869 0.115643
O1    O     O_R   0.043230 0.549300 0.667990 -0.519779
O2    O     O_R   0.956770 0.549300 0.332010 -0.502936
O3    O     O_R   0.543230 0.049300 0.667990 -0.522898
O4    O     O_R   0.456770 0.049300 0.332010 -0.501888
O5    O     O_R   0.262920 0.788600 0.824420 -0.474560
O6    O     O_R   0.737080 0.788600 0.175580 -0.482793
O7    O     O_R   0.762920 0.288600 0.824420 -0.477953
O8    O     O_R   0.237080 0.288600 0.175580 -0.482327
O9    O     O_R   0.167530 0.905110 0.830340 -0.452555
O10   O     O_R   0.832470 0.905110 0.169660 -0.446938
O11   O     O_R   0.667530 0.405110 0.830340 -0.450617
O12   O     O_R   0.332470 0.405110 0.169660 -0.448544
O13   O     O_R   0.054010 0.748440 0.822860 -0.455884
O14   O     O_R   0.945990 0.748440 0.177140 -0.470267
O15   O     O_R   0.554010 0.248440 0.822860 -0.460535
O16   O     O_R   0.445990 0.248440 0.177140 -0.464257
O17   O     O_3   0.165160 0.665150 0.749190 -0.256757
O18   O     O_3   0.834840 0.665150 0.250810 -0.293608
O19   O     O_3   0.665160 0.165150 0.749190 -0.256262
O20   O     O_3   0.334840 0.165150 0.250810 -0.295016
O21   O     O_R   0.178620 0.457600 0.674100 -0.476463
O22   O     O_R   0.821380 0.457600 0.325900 -0.467058
O23   O     O_R   0.678620 0.957600 0.674100 -0.477752
O24   O     O_R   0.321380 0.957600 0.325900 -0.466712
O25   O     O_R   0.284680 0.542100 0.669460 -0.540022
O26   O     O_R   0.715320 0.542100 0.330540 -0.528624
O27   O     O_R   0.784680 0.042100 0.669460 -0.539800
O28   O     O_R   0.215320 0.042100 0.330540 -0.528684
O29   O     O_R   0.262860 0.790390 0.676650 -0.516536
O30   O     O_R   0.737140 0.790390 0.323350 -0.513703
O31   O     O_R   0.762860 0.290390 0.676650 -0.515859
O32   O     O_R   0.237140 0.290390 0.323350 -0.514100
O33   O     O_R   0.167460 0.907030 0.670940 -0.492236
O34   O     O_R   0.832540 0.907030 0.329060 -0.497413
O35   O     O_R   0.667460 0.407030 0.670940 -0.492061
O36   O     O_R   0.332540 0.407030 0.329060 -0.497827
O37   O     O_R   0.053950 0.750220 0.675100 -0.505398
O38   O     O_R   0.946050 0.750220 0.324900 -0.508196
O39   O     O_R   0.553950 0.250220 0.675100 -0.507019
O40   O     O_R   0.446050 0.250220 0.324900 -0.507786
O41   O     O_R   0.043300 0.547370 0.827390 -0.518722
O42   O     O_R   0.956700 0.547370 0.172610 -0.524006
O43   O     O_R   0.543300 0.047370 0.827390 -0.503797
O44   O     O_R   0.456700 0.047370 0.172610 -0.521338
O45   O     O_R   0.178690 0.455820 0.821860 -0.481490
O46   O     O_R   0.821310 0.455820 0.178140 -0.497827
O47   O     O_R   0.678690 0.955820 0.821860 -0.467082
O48   O     O_R   0.321310 0.955820 0.178140 -0.503170
O49   O     O_R   0.284750 0.540170 0.828860 -0.469225
O50   O     O_R   0.715250 0.540170 0.171140 -0.433691
O51   O     O_R   0.784750 0.040170 0.828860 -0.477104
O52   O     O_R   0.215250 0.040170 0.171140 -0.431460
C93   C     C_1   0.351464 0.786490 0.423848 0.238970
N1    N     N_1   0.397466 0.737492 0.394971 -0.314167
C94   C     C_1   0.664780 0.758965 0.580943 0.218128
N2    N     N_1   0.625899 0.696551 0.611017 -0.309228
C95   C     C_1   0.851478 0.286515 0.423855 0.239149
N3    N     N_1   0.897488 0.237529 0.394982 -0.314338
C96   C     C_1   0.164800 0.258939 0.580950 0.218078
N4    N     N_1   0.125925 0.196518 0.611027 -0.309039
Cl1   Cl    Cl    0.110576 0.951254 0.959772 -0.448555
Cl2   Cl    Cl    0.872318 0.960472 0.030641 -0.543298
Cl3   Cl    Cl    0.610270 0.451881 0.959597 -0.446072
Cl4   Cl    Cl    0.375030 0.432404 0.028807 -0.551422
Cl5   Cl    Cl    0.179303 0.175278 0.046660 -0.559398
Cl6   Cl    Cl    0.688558 0.125987 0.964181 -0.576082
Cl7   Cl    Cl    0.679400 0.675231 0.046619 -0.547533
Cl8   Cl    Cl    0.204640 0.634337 0.964789 -0.590290

loop_
_geom_bond_atom_site_label_1
_geom_bond_atom_site_label_2
_ccdc_geom_bond_type
C82   H26   S    
C47   C83   S    
C7    C83   D    
C94   N2    T    
Cr6   O6    S    
Cr11  O19   S    
C59   H16   S    
C6    C82   D    
C87   C91   D    
C86   H22   S    
C93   N1    T    
C14   C18   A    
Cr1   O1    S    
C35   C36   A    
C78   O42   A    
C75   O11   A    
C30   C34   A    
Cr11  O11   S    
Cr2   O18   S    
C87   H23   S    
C45   O33   A    
C57   C62   D    
C40   H8    S    
C95   N3    T    
C15   C19   A    
C12   C23   A    
Cr1   O21   S    
C59   C64   D    
C50   C54   S    
C30   H37   S    
C41   H1    S    
C60   C63   D    
Cr11  O35   S    
C32   C36   A    
C14   C21   A    
C66   O2    A    
Cr6   O26   S    
C49   C53   S    
C9    C22   A    
Cr12  O20   S    
C50   Cl6   S    
C19   H31   S    
Cr4   O4    S    
C53   Cl1   S    
C49   Cl5   S    
C11   C24   A    
C52   Cl8   S    
C57   C77   S    
C74   O6    A    
C60   H15   S    
C31   H40   S    
C46   O30   A    
C9    C66   S    
C80   O16   A    
C32   H39   S    
C47   O31   A    
C43   C51   D    
C46   C82   S    
C85   H21   S    
C36   H44   S    
C39   C55   D    
C14   H34   S    
C29   C33   A    
C40   C76   S    
C40   C56   D    
Cr7   O7    S    
Cr8   O28   S    
C23   C24   A    
Cr4   O20   S    
C8    C92   S    
C39   C75   S    
C38   H6    S    
C4    O24   A    
C15   H35   S    
C61   C62   S    
C16   C20   A    
C63   H11   S    
C70   O46   A    
C44   C52   D    
C58   C61   D    
C39   H7    S    
Cr1   O17   S    
Cr10  O18   S    
C79   O43   A    
C21   C22   A    
C3    C86   S    
C69   O49   A    
C80   O44   A    
Cr10  O10   S    
C16   H36   S    
Cr12  O12   S    
Cr9   O37   S    
C41   C49   D    
C91   C95   S    
C67   O39   A    
C9    C26   A    
C17   C18   A    
Cr7   O19   S    
C71   O51   A    
C44   H4    S    
C10   C21   A    
C25   C29   A    
Cr12  O40   S    
C12   C67   S    
C65   O37   A    
Cr5   O25   S    
Cr6   O50   S    
C12   C27   A    
C27   C31   A    
C96   N4    T    
Cr10  O34   S    
C88   C92   D    
C28   C32   A    
Cr11  O39   S    
C47   O35   A    
C86   C90   D    
C59   C79   S    
C48   O36   A    
C62   H10   S    
C85   C89   D    
C8    H20   S    
C43   H3    S    
C4    C85   S    
C8    C84   D    
C25   C26   A    
C6    C90   S    
C67   O3    A    
C64   H12   S    
C84   H28   S    
C58   H13   S    
C48   C84   S    
Cr5   O29   S    
C13   H33   S    
Cr2   O42   S    
Cr7   O31   S    
C68   O4    A    
Cr5   O49   S    
C72   O52   A    
C5    C81   D    
C71   O47   A    
C38   C54   D    
Cr4   O48   S    
Cr10  O14   S    
C1    O25   A    
C69   O45   A    
C33   C34   A    
C2    C87   S    
C35   H43   S    
C20   H32   S    
C74   O10   A    
Cr9   O17   S    
C42   H2    S    
Cr1   O45   S    
Cr6   O18   S    
C33   H41   S    
C42   C50   D    
C41   C72   S    
Cr8   O52   S    
C10   C25   A    
C3    O27   A    
C15   C24   A    
Cr12  O36   S    
C2    O22   A    
C78   O14   A    
C16   C23   A    
Cr5   O5    S    
C66   O38   A    
C61   H9    S    
C81   H25   S    
C31   C35   A    
Cr3   O3    S    
Cr8   O8    S    
C6    H18   S    
C73   O5    A    
Cr8   O32   S    
C7    C91   S    
C48   O32   A    
Cr9   O33   S    
C11   C68   S    
C90   C94   S    
C38   C74   S    
C10   C65   S    
C51   Cl7   S    
C37   C73   S    
C76   O12   A    
C5    H17   S    
Cr3   O47   S    
Cr3   O43   S    
Cr10  O38   S    
C60   C80   S    
Cr2   O46   S    
C37   H5    S    
C45   C81   S    
C79   O15   A    
Cr3   O19   S    
Cr4   O24   S    
C72   O48   A    
C56   Cl4   S    
C73   O9    A    
Cr1   O41   S    
C43   C70   S    
C89   C93   S    
Cr11  O15   S    
C13   C17   A    
Cr8   O20   S    
C77   O41   A    
C46   O34   A    
C19   C20   A    
Cr9   O13   S    
C83   H27   S    
C37   C53   D    
Cr9   O9    S    
C88   H24   S    
C92   C96   S    
C2    O26   A    
C17   H29   S    
C45   O29   A    
C34   H42   S    
C3    O23   A    
Cr12  O16   S    
C11   C28   A    
C1    C88   S    
Cr5   O17   S    
C29   H38   S    
C1    O21   A    
C42   C71   S    
C77   O13   A    
C76   O8    A    
C13   C22   A    
C18   H30   S    
C51   C55   S    
C65   O1    A    
Cr4   O44   S    
C5    C89   S    
C58   C78   S    
C55   Cl3   S    
C63   C64   S    
C75   O7    A    
Cr2   O2    S    
C54   Cl2   S    
Cr7   O27   S    
C68   O40   A    
C70   O50   A    
Cr6   O30   S    
C4    O28   A    
Cr7   O51   S    
C27   C28   A    
C44   C69   S    
Cr3   O23   S    
Cr2   O22   S    
C52   C56   S    
C7    H19   S    
C57   H14   S    
C26   C30   A    
