data_mof_unit_49359.cif
_audit_creation_date              2012-12-10T17:11:48-0500
_audit_creation_method            fapswitch 2.2
_symmetry_space_group_name_H-M    P1
_symmetry_Int_Tables_number       1
_space_group_crystal_system       triclinic
_cell_length_a                    19.078967
_cell_length_b                    10.735214
_cell_length_c                    9.964842
_cell_angle_alpha                 86.977244
_cell_angle_beta                  87.784659
_cell_angle_gamma                 90.284872
_cell_volume                      2036.55377746

loop_
_atom_site_label
_atom_site_type_symbol
_atom_type_description
_atom_site_fract_x
_atom_site_fract_y
_atom_site_fract_z
_atom_type_partial_charge
C1    C     C_R   0.496256 0.261718 0.504304 0.878462
C2    C     C_R   0.288688 0.478061 0.509595 -0.124573
C3    C     C_R   0.929571 0.407569 0.499770 0.336641
C4    C     C_R   0.070161 0.405970 0.508665 0.369139
C5    C     C_R   0.817467 0.449253 0.613419 -0.172168
C6    C     C_R   0.746981 0.477620 0.610316 -0.199015
C7    C     C_R   0.710952 0.471620 0.490870 -0.103453
C8    C     C_R   0.747073 0.433656 0.371808 -0.100278
C9    C     C_R   0.819027 0.404613 0.375696 -0.041219
C10   C     C_R   0.853752 0.415270 0.497012 -0.003103
C11   C     C_2   0.451104 0.929297 0.435873 -0.222478
C12   C     C_R   0.364891 0.498508 0.502825 0.871569
C13   C     C_2   0.505891 0.867447 0.482568 -0.304799
C14   C     C_2   0.454239 0.064288 0.423493 -0.037569
C15   C     C_2   0.483549 0.128892 0.521155 -0.220191
C16   C     C_2   0.505834 0.600519 0.919215 -0.129309
C17   C     C_2   0.498456 0.600859 0.069608 -0.162046
C18   C     C_R   0.502395 0.736843 0.495894 0.938038
C19   C     C_R   0.635007 0.494782 0.497111 0.856614
C20   C     C_R   0.246682 0.497357 0.626928 -0.049943
C21   C     C_R   0.175025 0.465007 0.630258 -0.048140
C22   C     C_R   0.146036 0.414311 0.516526 -0.056957
C23   C     C_R   0.188393 0.393404 0.401005 -0.001471
C24   C     C_R   0.258833 0.426957 0.398561 -0.273716
H1    H     H_    0.554693 0.912197 0.505940 0.140903
H2    H     H_    0.514135 0.689455 0.864593 0.183882
H3    H     H_    0.486688 0.419295 0.903747 0.157802
H4    H     H_    0.492803 0.690297 0.114429 0.158914
H5    H     H_    0.512273 0.418507 0.105616 0.188678
H6    H     H_    0.291191 0.409129 0.309978 0.187705
H7    H     H_    0.844485 0.458534 0.706138 0.159442
H8    H     H_    0.720680 0.505013 0.702348 0.164559
H9    H     H_    0.405339 0.880660 0.402118 0.151333
N1    N     N_R   0.038521 0.472179 0.409116 -0.162923
N2    N     N_R   0.969257 0.472853 0.404667 -0.162829
N3    N     N_R   0.961054 0.341539 0.599955 -0.161611
N4    N     N_R   0.030570 0.340369 0.603983 -0.158383
N5    N     N_2   0.500750 0.501330 0.852150 -0.196525
N6    N     N_2   0.500770 0.501360 0.147810 -0.180965
O1    O     O_R   0.499990 0.319060 0.613040 -0.618326
O2    O     O_R   0.500010 0.319100 0.386900 -0.603452
O3    O     O_R   0.398130 0.499970 0.613110 -0.600522
O4    O     O_R   0.398150 0.500010 0.386970 -0.610882
O5    O     O_R   0.499990 0.680900 0.613100 -0.604130
O6    O     O_R   0.500010 0.680940 0.386960 -0.618648
O7    O     O_R   0.601850 0.499990 0.613030 -0.618855
O8    O     O_R   0.601870 0.500030 0.386890 -0.605839
Zn1   Zn    Zn3+2 0.499990 0.499970 0.650990 0.938547
Zn2   Zn    Zn3+2 0.500010 0.500030 0.349010 0.948578
C25   C     C_R   0.275383 0.557363 0.743801 0.150357
C26   C     C_R   0.289134 0.485872 0.861789 -0.095133
C27   C     C_R   0.313541 0.543563 0.973741 -0.077966
C28   C     C_R   0.323010 0.672953 0.969174 -0.112182
C29   C     C_R   0.308537 0.744596 0.852333 -0.138528
C30   C     C_R   0.285480 0.687013 0.739383 -0.140472
H10   H     H_    0.280450 0.385989 0.866906 0.114514
H11   H     H_    0.324548 0.488217 0.064314 0.149845
H12   H     H_    0.341226 0.717722 0.056325 0.125673
H13   H     H_    0.314440 0.844921 0.849483 0.120838
H14   H     H_    0.274147 0.743404 0.649575 0.113542
C31   C     C_R   0.432018 0.120745 0.293545 0.183602
C32   C     C_R   0.481074 0.136482 0.185288 -0.099023
C33   C     C_R   0.460148 0.185108 0.060552 -0.172687
C34   C     C_R   0.389890 0.214284 0.041783 -0.133576
C35   C     C_R   0.340541 0.196370 0.148483 -0.153842
C36   C     C_R   0.361483 0.150485 0.274626 -0.174128
H15   H     H_    0.535412 0.111642 0.198181 0.114921
H16   H     H_    0.498361 0.199403 0.978097 0.145840
H17   H     H_    0.373781 0.249828 0.944281 0.129139
H18   H     H_    0.286048 0.217119 0.132996 0.175581
H19   H     H_    0.322835 0.136631 0.356637 0.128025
C37   C     C_R   0.499987 0.070714 0.656794 0.152863
C38   C     C_R   0.568537 0.079765 0.703132 -0.152768
C39   C     C_R   0.585819 0.021258 0.825894 -0.166590
C40   C     C_R   0.534816 0.954381 0.904297 -0.147863
C41   C     C_R   0.466176 0.947592 0.861070 -0.130721
C42   C     C_R   0.448525 0.005708 0.737996 -0.111482
H20   H     H_    0.608910 0.129936 0.642541 0.120792
H21   H     H_    0.638807 0.027583 0.860099 0.137122
H22   H     H_    0.548191 0.909331 0.999556 0.124443
H23   H     H_    0.426819 0.897656 0.923833 0.127216
H24   H     H_    0.395221 0.999267 0.705341 0.118758
C43   C     C_R   0.129253 0.494852 0.748070 0.106454
C44   C     C_R   0.102315 0.615553 0.758165 -0.138289
C45   C     C_R   0.057938 0.643102 0.867455 -0.134947
C46   C     C_R   0.039933 0.550247 0.966611 -0.098059
C47   C     C_R   0.066625 0.429927 0.956993 -0.054840
C48   C     C_R   0.111747 0.402347 0.848769 -0.102848
H25   H     H_    0.115496 0.687791 0.681211 0.134603
H26   H     H_    0.037203 0.736241 0.874903 0.144037
H27   H     H_    0.005203 0.571396 0.050732 0.159245
H28   H     H_    0.052185 0.358055 0.033319 0.154853
H29   H     H_    0.132231 0.308862 0.842248 0.130037
C49   C     C_2   0.160473 0.335430 0.281655 0.874317
O9    O     O_2   0.183650 0.367351 0.168876 -0.676962
O10   O     O_R   0.108455 0.243041 0.298214 -0.785533
H30   H     H_    0.094813 0.209135 0.209791 0.341996
C50   C     C_R   0.710627 0.416232 0.245039 0.172971
C51   C     C_R   0.687726 0.296941 0.214145 -0.123960
C52   C     C_R   0.658665 0.278578 0.089915 -0.152113
C53   C     C_R   0.652202 0.378942 0.996158 -0.141259
C54   C     C_R   0.674116 0.498220 0.026985 -0.127697
C55   C     C_R   0.703212 0.517087 0.151086 -0.023724
H31   H     H_    0.693489 0.218197 0.285291 0.114920
H32   H     H_    0.641855 0.186313 0.065651 0.122219
H33   H     H_    0.630106 0.364273 0.899767 0.145761
H34   H     H_    0.668931 0.575899 0.954373 0.127580
H35   H     H_    0.721068 0.609423 0.173223 0.115370
C56   C     C_2   0.857668 0.359536 0.254690 0.900401
O11   O     O_2   0.894780 0.267231 0.265348 -0.613290
O12   O     O_R   0.852341 0.423336 0.129556 -0.814585
H36   H     H_    0.881335 0.383904 0.055872 0.340744

loop_
_geom_bond_atom_site_label_1
_geom_bond_atom_site_label_2
_ccdc_geom_bond_type
C6    H8    S    
C47   C48   A    
C53   C54   A    
C38   C39   A    
O12   H36   S    
C2    C12   S    
C19   O7    A    
C7    C8    A    
O8    Zn2   S    
C28   C29   A    
C15   C37   S    
C52   H32   S    
C37   C42   A    
C13   C18   S    
C43   C44   A    
C3    N3    A    
N3    N4    A    
N1    N2    A    
C12   O4    A    
C46   H27   S    
C56   O12   S    
C5    C6    A    
C11   C14   S    
C19   O8    A    
H3    N5    S    
C35   H18   S    
C26   H10   S    
C17   N6    D    
C8    C50   S    
C12   O3    A    
C1    O1    A    
C29   C30   A    
C31   C36   A    
C21   C43   S    
C8    C9    A    
C50   C55   A    
C20   C25   S    
C38   H20   S    
C55   H35   S    
C1    C15   S    
O6    Zn2   S    
C40   H22   S    
N5    Zn1   S    
C30   H14   S    
C43   C48   A    
C21   C22   A    
C16   H2    S    
C13   H1    S    
C54   C55   A    
O2    Zn2   S    
C4    N1    A    
C29   H13   S    
C9    C56   S    
O7    Zn1   S    
C39   C40   A    
C2    C20   A    
C26   C27   A    
C11   H9    S    
C41   C42   A    
C46   C47   A    
C16   C17   S    
C45   C46   A    
C14   C31   S    
C40   C41   A    
C36   H19   S    
C32   C33   A    
C18   O5    A    
C4    C22   S    
C51   C52   A    
C3    N2    A    
C28   H12   S    
O10   H30   S    
H5    N6    S    
C25   C26   A    
C54   H34   S    
O3    Zn1   S    
C34   H17   S    
C44   C45   A    
C49   O10   S    
C32   H15   S    
C1    O2    A    
N6    Zn2   S    
C35   C36   A    
C49   O9    D    
C7    C19   S    
C39   H21   S    
C2    C24   A    
C44   H25   S    
C18   O6    A    
C27   C28   A    
C9    C10   A    
C53   H33   S    
O1    Zn1   S    
C48   H29   S    
C20   C21   A    
C22   C23   A    
C17   H4    S    
O4    Zn2   S    
C37   C38   A    
C41   H23   S    
C45   H26   S    
C6    C7    A    
C33   H16   S    
C25   C30   A    
C23   C49   S    
C34   C35   A    
C5    C10   A    
C3    C10   S    
C56   O11   D    
C11   C13   D    
C42   H24   S    
C52   C53   A    
C51   H31   S    
C31   C32   A    
C24   H6    S    
C27   H11   S    
C23   C24   A    
C33   C34   A    
C4    N4    A    
C50   C51   A    
C14   C15   D    
C47   H28   S    
O5    Zn1   S    
C16   N5    D    
C5    H7    S    
