data_mof_unit_47620.cif
_audit_creation_date              2013-03-05T16:11:25-0500
_audit_creation_method            fapswitch 2.2
_symmetry_space_group_name_H-M    P1
_symmetry_Int_Tables_number       1
_space_group_crystal_system       triclinic
_cell_length_a                    18.184307
_cell_length_b                    18.04492
_cell_length_c                    22.068494
_cell_angle_alpha                 114.014047
_cell_angle_beta                  114.365084
_cell_angle_gamma                 89.832304
_cell_volume                      5905.92014524

loop_
_atom_site_label
_atom_site_type_symbol
_atom_site_description
_atom_site_fract_x
_atom_site_fract_y
_atom_site_fract_z
_atom_type_partial_charge
Zn1   Zn    Zn3+2 0.307090 0.219220 0.438420 0.982981
Zn2   Zn    Zn3+2 0.692910 0.780780 0.561580 0.982968
Zn3   Zn    Zn3+2 0.280820 0.192930 0.561610 0.948103
Zn4   Zn    Zn3+2 0.719180 0.807070 0.438390 0.948102
Zn5   Zn    Zn3+2 0.131340 0.219220 0.438450 0.943727
Zn6   Zn    Zn3+2 0.868660 0.780780 0.561550 0.943729
Zn7   Zn    Zn3+2 0.280790 0.368660 0.561580 0.956376
Zn8   Zn    Zn3+2 0.719210 0.631340 0.438420 0.956367
O1    O     O_3   0.250010 0.250010 0.500010 -0.472304
O2    O     O_3   0.749990 0.749990 0.499990 -0.472301
O3    O     O_R   0.332200 0.393690 0.664400 -0.640299
O4    O     O_R   0.667800 0.606310 0.335600 -0.640304
O5    O     O_R   0.229300 0.167820 0.335610 -0.648640
O6    O     O_R   0.770700 0.832180 0.664390 -0.648629
O7    O     O_R   0.358130 0.123520 0.543120 -0.659316
O8    O     O_R   0.641870 0.876480 0.456880 -0.659325
O9    O     O_R   0.080390 0.314990 0.456920 -0.647058
O10   O     O_R   0.919610 0.685010 0.543080 -0.647059
O11   O     O_R   0.185040 0.123520 0.543150 -0.658145
O12   O     O_R   0.814960 0.876480 0.456850 -0.658139
O13   O     O_R   0.358080 0.419590 0.543080 -0.662513
O14   O     O_R   0.641920 0.580410 0.456920 -0.662505
O15   O     O_R   0.080420 0.141920 0.456950 -0.655619
O16   O     O_R   0.919580 0.858080 0.543050 -0.655616
O17   O     O_R   0.376490 0.315000 0.456880 -0.627578
O18   O     O_R   0.623510 0.685000 0.543120 -0.627576
O19   O     O_R   0.376520 0.141930 0.456900 -0.630498
O20   O     O_R   0.623480 0.858070 0.543100 -0.630506
O21   O     O_R   0.184990 0.419580 0.543110 -0.660375
O22   O     O_R   0.815010 0.580420 0.456890 -0.660375
O23   O     O_R   0.332220 0.270690 0.664420 -0.642111
O24   O     O_R   0.667780 0.729310 0.335580 -0.642106
O25   O     O_R   0.106290 0.167820 0.335630 -0.638697
O26   O     O_R   0.893710 0.832180 0.664370 -0.638705
C1    C     C_R   0.349835 0.349524 0.699533 0.830924
C2    C     C_R   0.650159 0.650476 0.300466 0.830910
C3    C     C_R   0.150370 0.150429 0.300755 0.811918
C4    C     C_R   0.849630 0.849570 0.699245 0.811929
C5    C     C_R   0.391278 0.107995 0.499870 0.810676
C6    C     C_R   0.608718 0.891999 0.500126 0.810679
C7    C     C_R   0.108580 0.391858 0.500572 0.782932
C8    C     C_R   0.891420 0.608141 0.499427 0.782934
C9    C     C_R   0.108922 0.106200 0.498469 0.791266
C10   C     C_R   0.891078 0.893802 0.501534 0.791270
C11   C     C_R   0.391159 0.391837 0.499948 0.897078
C12   C     C_R   0.608842 0.608164 0.500053 0.897031
C13   C     C_3   0.465042 0.545420 0.542794 -0.013169
C14   C     C_3   0.534967 0.454585 0.457216 -0.013012
C15   C     C_3   0.459372 0.548790 0.472478 0.315016
C16   C     C_3   0.540641 0.451213 0.527533 0.315268
C17   C     C_3   0.552283 0.550410 0.499574 -0.217324
C18   C     C_3   0.447725 0.449593 0.500433 -0.217245
C19   C     C_3   0.558755 0.546290 0.570234 -0.026743
C20   C     C_3   0.441258 0.453714 0.429778 -0.026849
C21   C     C_3   0.008300 0.053750 0.975770 0.368747
C22   C     C_3   0.991692 0.946223 0.024231 0.368760
C23   C     C_3   0.964593 0.063511 0.024351 0.011256
C24   C     C_3   0.035399 0.936461 0.975649 0.011259
H1    H     H_    0.852456 0.947530 0.953666 0.170902
H2    H     H_    0.147537 0.052441 0.046334 0.170909
C25   C     C_1   0.110722 0.110926 0.221542 -0.121899
C26   C     C_1   0.889276 0.889063 0.778458 -0.121868
C27   C     C_3   0.081365 0.028345 0.025522 -0.320225
C28   C     C_3   0.918627 0.971627 0.974478 -0.320193
C29   C     C_3   0.036587 0.036919 0.073883 -0.007206
C30   C     C_3   0.963405 0.963054 0.926117 -0.007208
C31   C     C_1   0.077237 0.077579 0.154877 0.027014
C32   C     C_1   0.922759 0.922400 0.845124 0.027026
C33   C     C_3   0.072700 0.541240 0.557634 0.167123
C34   C     C_3   0.927298 0.458759 0.442364 0.167127
C35   C     C_3   0.992531 0.528423 0.563513 -0.226362
C36   C     C_3   0.007467 0.471575 0.436485 -0.226371
H3    H     H_    0.985563 0.552634 0.615448 0.135153
H4    H     H_    0.014433 0.447364 0.384549 0.135152
C37   C     C_3   0.947754 0.550162 0.498569 -0.004204
C38   C     C_3   0.052245 0.449837 0.501429 -0.004205
C39   C     C_3   0.027800 0.564067 0.493178 -0.212233
C40   C     C_3   0.972198 0.435931 0.506820 -0.212217
H5    H     H_    0.049775 0.617395 0.487834 0.135893
H6    H     H_    0.950223 0.382604 0.512164 0.135898
C41   C     C_3   0.563960 0.559058 0.023171 0.077646
C42   C     C_3   0.435936 0.440971 0.976825 0.077576
C43   C     C_3   0.554925 0.465139 0.976416 0.077697
C44   C     C_3   0.444975 0.534889 0.023584 0.077691
C45   C     C_1   0.389682 0.388311 0.778877 -0.157900
C46   C     C_1   0.610273 0.611695 0.221122 -0.157897
C47   C     C_3   0.472646 0.555408 0.973533 0.074739
C48   C     C_3   0.527249 0.444619 0.026464 0.074667
C49   C     C_3   0.463691 0.461562 0.926933 -0.005508
C50   C     C_3   0.536207 0.538465 0.073065 -0.005530
C51   C     C_1   0.423134 0.420695 0.845608 -0.089092
C52   C     C_1   0.576788 0.579324 0.154391 -0.089102
C53   C     C_3   0.074631 0.978950 0.522783 0.075909
C54   C     C_3   0.925374 0.021055 0.477226 0.075896
C55   C     C_3   0.994950 0.920943 0.454128 0.069605
C56   C     C_3   0.005055 0.079062 0.545880 0.069597
C57   C     C_3   0.948064 0.951445 0.501519 -0.152675
C58   C     C_3   0.051940 0.048560 0.498488 -0.152681
C59   C     C_3   0.027731 0.009528 0.570266 0.069298
C60   C     C_3   0.972273 0.990477 0.429742 0.069284
C61   C     C_3   0.523586 0.057916 0.569754 0.099269
C62   C     C_3   0.476401 0.942069 0.430231 0.099281
C63   C     C_3   0.575545 0.042873 0.527033 0.112266
C64   C     C_3   0.424440 0.957112 0.472952 0.112268
C65   C     C_3   0.551847 0.949373 0.499924 -0.075728
C66   C     C_3   0.448140 0.050613 0.500063 -0.075727
C67   C     C_3   0.500115 0.963864 0.542994 -0.232211
C68   C     C_3   0.499871 0.036121 0.456991 -0.232203
H7    H     H_    0.501289 0.933497 0.578107 0.156445
H8    H     H_    0.498696 0.066488 0.421878 0.156439
N1    N     N_R   0.413583 0.601714 0.441419 0.183752
O27   O     O_R   0.334882 0.594200 0.421195 -0.446919
O28   O     O_R   0.450230 0.655297 0.432347 -0.452722
N2    N     N_R   0.586432 0.398286 0.558585 0.183533
O29   O     O_R   0.665133 0.405806 0.578806 -0.447044
O30   O     O_R   0.549788 0.344697 0.567652 -0.452745
C69   C     C_3   0.610142 0.422504 0.941072 -0.400803
C70   C     C_3   0.696771 0.428088 0.998826 -0.367631
C71   C     C_3   0.754689 0.400931 0.963388 -0.864409
H9    H     H_    0.731671 0.335533 0.920547 0.264787
H10   H     H_    0.760042 0.440874 0.937571 0.264987
H11   H     H_    0.816800 0.406127 0.006605 0.256666
H12   H     H_    0.723168 0.492315 0.043438 0.226618
H13   H     H_    0.693933 0.387262 0.024428 0.231683
H14   H     H_    0.580479 0.356447 0.903005 0.193829
H15   H     H_    0.613889 0.451285 0.906282 0.201111
C72   C     C_3   0.389744 0.577498 0.058921 -0.400777
C73   C     C_3   0.303146 0.571989 0.001163 -0.367683
C74   C     C_3   0.245129 0.598869 0.036529 -0.864396
H16   H     H_    0.239693 0.558682 0.062109 0.264916
H17   H     H_    0.268116 0.664188 0.079550 0.264841
H18   H     H_    0.183060 0.593789 0.993317 0.256663
H19   H     H_    0.306023 0.613018 0.975753 0.231705
H20   H     H_    0.276809 0.507825 0.956409 0.226583
H21   H     H_    0.385947 0.548650 0.093651 0.201176
H22   H     H_    0.419425 0.643541 0.097044 0.193778
C75   C     C_3   0.637332 0.629478 0.057763 -0.401964
C76   C     C_3   0.659677 0.635803 0.999914 -0.371273
C77   C     C_3   0.719497 0.716505 0.033118 -0.844925
H23   H     H_    0.689984 0.770069 0.050379 0.248523
H24   H     H_    0.776203 0.721578 0.081879 0.271769
H25   H     H_    0.736874 0.717971 0.990865 0.268522
H26   H     H_    0.689437 0.583843 0.979616 0.233924
H27   H     H_    0.603808 0.632833 0.951751 0.224882
H28   H     H_    0.621960 0.688338 0.088327 0.199989
H29   H     H_    0.691579 0.619748 0.099468 0.191140
C78   C     C_3   0.362559 0.370560 0.942235 -0.401878
C79   C     C_3   0.340151 0.364311 0.000081 -0.371157
C80   C     C_3   0.280573 0.283484 0.966986 -0.844955
H30   H     H_    0.223852 0.278160 0.918127 0.271781
H31   H     H_    0.310288 0.230037 0.949906 0.248521
H32   H     H_    0.263179 0.282055 0.009247 0.268484
H33   H     H_    0.396022 0.367568 0.048383 0.224846
H34   H     H_    0.310159 0.416153 0.020151 0.233938
H35   H     H_    0.308329 0.380251 0.900487 0.191078
H36   H     H_    0.377953 0.311689 0.911721 0.200007
C81   C     C_3   0.563459 0.390821 0.066318 -0.396555
C82   C     C_3   0.545717 0.298656 0.013081 -0.353789
C83   C     C_3   0.597577 0.251320 0.053326 -0.895331
H37   H     H_    0.664182 0.274914 0.075244 0.257366
H38   H     H_    0.584524 0.258044 0.100056 0.266875
H39   H     H_    0.582567 0.184610 0.014006 0.254389
H40   H     H_    0.479832 0.271697 0.989911 0.228561
H41   H     H_    0.559380 0.289917 0.966382 0.224907
H42   H     H_    0.630904 0.414678 0.099886 0.199237
H43   H     H_    0.538253 0.398588 0.106103 0.194404
C84   C     C_3   0.436413 0.609213 0.933696 -0.396645
C85   C     C_3   0.454198 0.701378 0.986950 -0.353836
C86   C     C_3   0.402305 0.748733 0.946746 -0.895380
H44   H     H_    0.415293 0.742008 0.899983 0.266889
H45   H     H_    0.335708 0.725153 0.924880 0.257353
H46   H     H_    0.417346 0.815442 0.986078 0.254411
H47   H     H_    0.440605 0.710119 0.033687 0.224899
H48   H     H_    0.520076 0.728324 0.010072 0.228557
H49   H     H_    0.461571 0.601434 0.893875 0.194398
H50   H     H_    0.368961 0.585374 0.900168 0.199271
C87   C     C_3   0.982093 0.827720 0.405434 -0.406873
C88   C     C_3   0.026963 0.807735 0.356905 -0.359410
C89   C     C_3   0.027665 0.715422 0.322838 -0.879156
H51   H     H_    0.062887 0.696608 0.367165 0.260095
H52   H     H_    0.963726 0.678703 0.289774 0.261057
H53   H     H_    0.057374 0.701861 0.285519 0.261238
H54   H     H_    0.995329 0.824950 0.311005 0.235960
H55   H     H_    0.091247 0.842966 0.390033 0.222844
H56   H     H_    0.003180 0.796845 0.442360 0.198674
H57   H     H_    0.915194 0.802164 0.369201 0.184357
C90   C     C_3   0.017911 0.172284 0.594574 -0.406860
C91   C     C_3   0.973051 0.192268 0.643111 -0.359406
C92   C     C_3   0.972306 0.284573 0.677146 -0.879138
H58   H     H_    0.036233 0.321318 0.710199 0.261065
H59   H     H_    0.937057 0.303355 0.632803 0.260095
H60   H     H_    0.942602 0.298133 0.714470 0.261245
H61   H     H_    0.908776 0.157009 0.609997 0.222837
H62   H     H_    0.004715 0.175086 0.689029 0.235963
H63   H     H_    0.084811 0.197843 0.630803 0.184345
H64   H     H_    0.996817 0.203158 0.557647 0.198679
C93   C     C_3   0.162447 0.961513 0.547655 -0.376642
C94   C     C_3   0.170470 0.886576 0.564562 -0.371899
C95   C     C_3   0.260535 0.885396 0.608396 -0.894521
H65   H     H_    0.295738 0.883907 0.577197 0.269207
H66   H     H_    0.288840 0.940980 0.663125 0.258771
H67   H     H_    0.264147 0.829506 0.618074 0.258786
H68   H     H_    0.137477 0.887504 0.597220 0.231563
H69   H     H_    0.143347 0.828583 0.511946 0.226677
H70   H     H_    0.181668 0.951130 0.503649 0.182717
H71   H     H_    0.204814 0.017630 0.597628 0.220846
C96   C     C_3   0.837559 0.038495 0.452356 -0.376634
C97   C     C_3   0.829541 0.113447 0.435470 -0.371892
C98   C     C_3   0.739479 0.114611 0.391606 -0.894467
H72   H     H_    0.711227 0.059069 0.336846 0.258768
H73   H     H_    0.704231 0.115996 0.422745 0.269193
H74   H     H_    0.735863 0.170547 0.381997 0.258784
H75   H     H_    0.856635 0.171429 0.488097 0.226667
H76   H     H_    0.862566 0.112555 0.402847 0.231558
H77   H     H_    0.795192 0.982383 0.402376 0.220847
H78   H     H_    0.818335 0.048862 0.496358 0.182698
C99   C     C_3   0.050576 0.015484 0.647664 -0.376614
C100  C     C_3   0.133996 0.072118 0.707594 -0.395541
C101  C     C_3   0.146607 0.087055 0.784707 -0.825078
H79   H     H_    0.100435 0.121342 0.798465 0.284239
H80   H     H_    0.140959 0.027285 0.787368 0.269156
H81   H     H_    0.209139 0.124271 0.826470 0.242847
H82   H     H_    0.184326 0.042719 0.698144 0.231427
H83   H     H_    0.138668 0.132592 0.706292 0.229564
H84   H     H_    0.000875 0.037534 0.663082 0.197352
H85   H     H_    0.052564 0.952965 0.645178 0.219346
C102  C     C_3   0.949435 0.984530 0.352349 -0.376580
C103  C     C_3   0.866033 0.927872 0.292407 -0.395570
C104  C     C_3   0.853417 0.912995 0.215307 -0.825016
H86   H     H_    0.859016 0.972784 0.212668 0.269103
H87   H     H_    0.899614 0.878762 0.201544 0.284309
H88   H     H_    0.790902 0.875749 0.173536 0.242833
H89   H     H_    0.861397 0.867381 0.293682 0.229569
H90   H     H_    0.815686 0.957226 0.301864 0.231422
H91   H     H_    0.947423 0.047049 0.354837 0.219361
H92   H     H_    0.999150 0.962508 0.336942 0.197338
C105  C     C_3   0.662254 0.087439 0.553392 -0.481845
C106  C     C_3   0.665527 0.179513 0.572575 -0.275059
C107  C     C_3   0.752891 0.224205 0.602342 -0.849295
H93   H     H_    0.794770 0.218473 0.653047 0.253917
H94   H     H_    0.775276 0.197779 0.559704 0.258587
H95   H     H_    0.753777 0.290849 0.616838 0.298914
H96   H     H_    0.624622 0.186500 0.522211 0.243923
H97   H     H_    0.644181 0.209545 0.615548 0.241518
H98   H     H_    0.706011 0.079652 0.602284 0.190973
H99   H     H_    0.680735 0.057676 0.508220 0.209332
C108  C     C_3   0.337731 0.912543 0.446590 -0.481858
C109  C     C_3   0.334453 0.820464 0.427387 -0.275053
C110  C     C_3   0.247090 0.775770 0.397621 -0.849279
H100  H     H_    0.224713 0.802178 0.440267 0.258571
H101  H     H_    0.205206 0.781519 0.346927 0.253911
H102  H     H_    0.246203 0.709122 0.383107 0.298896
H103  H     H_    0.355790 0.790443 0.384406 0.241512
H104  H     H_    0.375364 0.813461 0.477741 0.243952
H105  H     H_    0.319254 0.942295 0.491767 0.209336
H106  H     H_    0.293973 0.920344 0.397707 0.190972
C111  C     C_3   0.542389 0.122486 0.648257 -0.405595
C112  C     C_3   0.620840 0.116192 0.707712 -0.337694
C113  C     C_3   0.632792 0.174744 0.785497 -0.892510
H107  H     H_    0.635619 0.239443 0.792686 0.265293
H108  H     H_    0.581181 0.157362 0.794790 0.259222
H109  H     H_    0.691296 0.171053 0.827568 0.254491
H110  H     H_    0.617268 0.051823 0.701493 0.226760
H111  H     H_    0.675178 0.132919 0.701642 0.229628
H112  H     H_    0.547945 0.185417 0.651583 0.197696
H113  H     H_    0.489319 0.112136 0.658592 0.220716
C114  C     C_3   0.457607 0.877494 0.351731 -0.405610
C115  C     C_3   0.379161 0.883782 0.292266 -0.337722
C116  C     C_3   0.367193 0.825185 0.214486 -0.892417
H114  H     H_    0.418812 0.842521 0.205180 0.259214
H115  H     H_    0.364339 0.760495 0.207319 0.265253
H116  H     H_    0.308699 0.828881 0.172408 0.254493
H117  H     H_    0.324821 0.867094 0.298352 0.229629
H118  H     H_    0.382752 0.948141 0.298461 0.226751
H119  H     H_    0.510681 0.887843 0.341400 0.220705
H120  H     H_    0.452051 0.814566 0.348409 0.197712
C117  C     C_3   0.419966 0.594271 0.586921 -0.338770
C118  C     C_3   0.448044 0.688136 0.620449 -0.317022
C119  C     C_3   0.402155 0.734239 0.664100 -0.924983
H121  H     H_    0.334659 0.715727 0.627740 0.267521
H122  H     H_    0.416954 0.720240 0.711958 0.259841
H123  H     H_    0.421052 0.801956 0.685508 0.259906
H124  H     H_    0.514918 0.706742 0.658557 0.221365
H125  H     H_    0.436247 0.707086 0.575835 0.264475
H126  H     H_    0.352844 0.576837 0.548893 0.226697
H127  H     H_    0.430216 0.576189 0.631764 0.204941
C120  C     C_3   0.579998 0.405718 0.413053 -0.338800
C121  C     C_3   0.551945 0.311855 0.379584 -0.317061
C122  C     C_3   0.597702 0.265725 0.335804 -0.925091
H128  H     H_    0.582802 0.279731 0.287936 0.259826
H129  H     H_    0.665217 0.284211 0.372078 0.267503
H130  H     H_    0.578797 0.198012 0.314404 0.259942
H131  H     H_    0.563895 0.292938 0.424239 0.264546
H132  H     H_    0.485038 0.293235 0.341587 0.221336
H133  H     H_    0.569666 0.423768 0.368176 0.204944
H134  H     H_    0.647133 0.423169 0.451037 0.226683
C123  C     C_3   0.630790 0.596954 0.647539 -0.371806
C124  C     C_3   0.621686 0.582359 0.708086 -0.335127
C125  C     C_3   0.697335 0.628389 0.783019 -0.841754
H135  H     H_    0.753224 0.606037 0.779827 0.273931
H136  H     H_    0.706152 0.696000 0.799961 0.261544
H137  H     H_    0.688869 0.617278 0.825888 0.248444
H138  H     H_    0.567065 0.604774 0.713933 0.215019
H139  H     H_    0.613468 0.515297 0.693271 0.263909
H140  H     H_    0.688595 0.579361 0.645389 0.218296
H141  H     H_    0.635482 0.663705 0.661412 0.201154
C126  C     C_3   0.369227 0.403134 0.352454 -0.371897
C127  C     C_3   0.378594 0.417532 0.291921 -0.335238
C128  C     C_3   0.302505 0.372516 0.217160 -0.841095
H142  H     H_    0.292456 0.304886 0.200022 0.261741
H143  H     H_    0.247198 0.396076 0.220729 0.273946
H144  H     H_    0.311295 0.383209 0.174240 0.248222
H145  H     H_    0.387868 0.484648 0.307040 0.263585
H146  H     H_    0.432701 0.394134 0.285648 0.214817
H147  H     H_    0.364306 0.336378 0.338593 0.200874
H148  H     H_    0.311472 0.420956 0.354568 0.218793
C129  C     C_3   0.925584 0.136534 0.053836 -0.378455
C130  C     C_3   0.851501 0.142919 0.990673 -0.312427
C131  C     C_3   0.812837 0.215710 0.020790 -0.894210
H149  H     H_    0.791670 0.208318 0.058947 0.259858
H150  H     H_    0.858141 0.274828 0.051073 0.270725
H151  H     H_    0.758910 0.218351 0.974045 0.254151
H152  H     H_    0.871177 0.151408 0.952092 0.258104
H153  H     H_    0.804187 0.084994 0.958877 0.216636
H154  H     H_    0.905384 0.127935 0.092103 0.201571
H155  H     H_    0.972923 0.194440 0.085841 0.224951
C132  C     C_3   0.074404 0.863436 0.946165 -0.378469
C133  C     C_3   0.148474 0.857035 0.009328 -0.312373
C134  C     C_3   0.187119 0.784227 0.979211 -0.894282
H156  H     H_    0.141798 0.725120 0.948923 0.270727
H157  H     H_    0.208298 0.791609 0.941058 0.259848
H158  H     H_    0.241033 0.781570 0.025955 0.254187
H159  H     H_    0.195801 0.914950 0.041125 0.216636
H160  H     H_    0.128788 0.848558 0.047908 0.258115
H161  H     H_    0.027059 0.805534 0.914150 0.224945
H162  H     H_    0.094617 0.872037 0.907906 0.201568
N3    N     N_R   0.018716 0.114231 0.950426 0.198606
O31   O     O_R   0.059818 0.188918 0.998751 -0.412634
O32   O     O_R   0.988383 0.093901 0.879875 -0.423926
N4    N     N_R   0.981276 0.885744 0.049576 0.198598
O33   O     O_R   0.940175 0.811057 0.001253 -0.412605
O34   O     O_R   0.011610 0.906075 0.120128 -0.423949
C135  C     C_3   0.155990 0.588687 0.624506 -0.399185
C136  C     C_3   0.152141 0.678390 0.668992 -0.343025
C137  C     C_3   0.233216 0.723719 0.738955 -0.893930
H163  H     H_    0.246739 0.692908 0.775833 0.261930
H164  H     H_    0.284436 0.724600 0.724149 0.266286
H165  H     H_    0.228816 0.788552 0.769635 0.255091
H166  H     H_    0.138816 0.711635 0.634008 0.226685
H167  H     H_    0.102074 0.679505 0.685679 0.228843
H168  H     H_    0.173575 0.556606 0.660583 0.207350
H169  H     H_    0.203075 0.588175 0.604535 0.213595
C138  C     C_3   0.844004 0.411318 0.375494 -0.399179
C139  C     C_3   0.847838 0.321609 0.331011 -0.343061
C140  C     C_3   0.766759 0.276289 0.261049 -0.893895
H170  H     H_    0.715534 0.275438 0.275855 0.266293
H171  H     H_    0.753254 0.307088 0.224163 0.261916
H172  H     H_    0.771142 0.211447 0.230377 0.255086
H173  H     H_    0.897906 0.320479 0.314322 0.228850
H174  H     H_    0.861154 0.288368 0.365997 0.226681
H175  H     H_    0.796920 0.411844 0.395467 0.213601
H176  H     H_    0.826426 0.443396 0.339415 0.207349

loop_
_geom_bond_atom_site_label_1
_geom_bond_atom_site_label_2
_geom_bond_distance
_ccdc_geom_bond_type
C129  H155  1.111139 S    
C61   C67   1.546527 S    
C27   C29   1.551737 S    
C81   C82   1.533085 S    
Zn7   O21   1.937723 S    
C134  H157  1.110912 S    
N3    O31   1.300261 A    
C114  H119  1.111557 S    
C8    C37   1.462178 S    
C130  H152  1.110950 S    
C76   H26   1.108070 S    
C77   H25   1.110534 S    
O20   C6    1.268034 A    
C56   C59   1.548382 S    
O15   C9    1.269064 A    
O12   C10   1.269429 A    
C55   C87   1.537173 S    
C47   C84   1.537132 S    
C15   C17   1.537975 S    
C61   C111  1.531826 S    
C16   C18   1.538063 S    
C83   H38   1.111089 S    
Zn3   O11   1.944280 S    
C121  H132  1.107973 S    
C78   H35   1.110123 S    
C69   H15   1.109857 S    
C99   H85   1.108185 S    
C15   N1    1.460268 S    
C14   C16   1.538536 S    
C43   C48   1.550109 S    
C95   H65   1.110447 S    
C61   C63   1.542890 S    
C15   C20   1.539881 S    
C93   H71   1.108949 S    
C64   C66   1.536320 S    
C132  H162  1.111350 S    
N2    O29   1.300222 A    
C39   H5    1.110449 S    
C16   C19   1.539891 S    
C111  H113  1.111554 S    
C75   H29   1.110128 S    
C111  H112  1.109882 S    
C72   H22   1.110143 S    
C35   H3    1.110186 S    
C54   C57   1.548549 S    
C2    C46   1.428130 S    
C87   H57   1.110183 S    
C16   N2    1.460236 S    
C28   C30   1.551737 S    
C60   C102  1.538489 S    
C104  H86   1.111053 S    
O6    C4    1.282744 A    
C50   C52   1.463773 S    
C102  C103  1.532395 S    
C64   C108  1.530080 S    
C135  H169  1.111475 S    
C105  H98   1.109698 S    
N1    O28   1.300185 A    
C70   H13   1.107998 S    
C137  H165  1.110382 S    
C54   C56   1.548338 S    
O7    C5    1.268426 A    
Zn4   O24   1.912321 S    
O8    C6    1.268417 A    
C41   C50   1.548490 S    
C85   C86   1.526243 S    
C42   C44   1.549930 S    
C116  H115  1.110710 S    
C94   H69   1.108218 S    
C82   C83   1.526243 S    
C79   H33   1.108015 S    
C136  H166  1.111936 S    
C112  H111  1.108716 S    
N4    O34   1.300251 A    
C113  H108  1.110923 S    
C77   H23   1.110563 S    
C55   C57   1.545362 S    
C13   C18   1.551708 S    
C26   C32   1.199908 T    
C43   C69   1.536792 S    
O3    C1    1.278834 A    
C7    C38   1.462182 S    
C139  H174  1.111937 S    
C13   C19   1.553030 S    
C106  H96   1.111700 S    
C96   H78   1.109961 S    
C120  H133  1.109461 S    
C22   N4    1.457824 S    
C119  H122  1.110824 S    
Zn2   O6    1.912004 S    
C127  H145  1.110129 S    
Zn4   O12   1.944282 S    
C123  C124  1.533411 S    
C90   C91   1.532219 S    
Zn8   O2    1.937838 S    
C115  H118  1.111553 S    
C64   C67   1.546076 S    
C13   C117  1.533926 S    
C4    C26   1.425714 S    
C131  H150  1.110825 S    
C97   H75   1.108223 S    
C33   C39   1.541545 S    
C78   C79   1.534599 S    
C73   C74   1.525031 S    
C98   H74   1.109239 S    
C88   C89   1.525997 S    
C100  H82   1.107762 S    
C85   H48   1.108588 S    
C65   C67   1.546210 S    
C110  H100  1.108228 S    
C130  C131  1.526753 S    
C42   C49   1.548463 S    
O24   C2    1.275683 A    
C38   C40   1.537913 S    
C104  H88   1.108756 S    
O10   C8    1.274335 A    
C14   C120  1.533870 S    
C40   H6    1.110447 S    
C33   C38   1.534607 S    
C111  C112  1.531526 S    
C92   H59   1.111072 S    
C21   C27   1.543827 S    
C95   H67   1.109225 S    
Zn8   O14   1.942430 S    
C22   C28   1.543825 S    
C49   C51   1.463762 S    
C138  H175  1.111473 S    
C108  H106  1.109698 S    
C53   C55   1.548340 S    
C117  C118  1.533097 S    
C86   H45   1.110935 S    
C56   C90   1.537173 S    
C44   C50   1.548352 S    
C123  H140  1.111237 S    
C41   C43   1.549945 S    
C122  H128  1.110847 S    
O13   C11   1.265430 A    
C128  H143  1.110869 S    
C43   C49   1.548377 S    
C62   C68   1.546528 S    
C34   C36   1.542073 S    
C20   C126  1.534836 S    
C63   C65   1.536302 S    
C81   H42   1.110032 S    
C109  H103  1.108110 S    
C11   C18   1.460296 S    
C99   C100  1.532418 S    
C117  H126  1.111412 S    
C12   C17   1.460270 S    
C89   H51   1.111076 S    
C17   C19   1.547202 S    
Zn4   O8    1.938722 S    
C53   C93   1.537769 S    
Zn5   O1    1.945448 S    
Zn3   O1    1.931499 S    
C73   H20   1.107970 S    
C25   C31   1.199905 T    
Zn5   O15   1.937192 S    
C54   C60   1.547190 S    
Zn8   O4    1.909121 S    
Zn6   O16   1.937190 S    
C98   H72   1.110759 S    
C107  H94   1.108225 S    
C37   C39   1.537907 S    
C103  H89   1.107655 S    
C82   H40   1.108589 S    
C140  H171  1.110987 S    
C91   H61   1.107290 S    
C62   C114  1.531837 S    
C126  H147  1.109414 S    
O17   C11   1.271738 A    
C84   H49   1.110028 S    
C74   H16   1.110847 S    
C129  H154  1.111355 S    
C61   C66   1.536246 S    
C140  H170  1.109036 S    
C110  H102  1.109753 S    
O21   C7    1.267958 A    
C133  C134  1.526752 S    
N2    O30   1.300182 A    
C114  C115  1.531524 S    
C130  H153  1.111451 S    
C118  H124  1.107941 S    
C74   H18   1.110439 S    
C112  C113  1.525634 S    
C76   H27   1.108041 S    
C69   C70   1.534899 S    
C101  H81   1.108792 S    
C1    C45   1.428118 S    
C66   C68   1.546223 S    
C42   C48   1.550035 S    
C134  H158  1.110467 S    
C68   H8    1.110443 S    
C124  H138  1.108023 S    
C93   C94   1.534141 S    
C125  H137  1.110711 S    
C136  C137  1.525608 S    
C139  C140  1.525615 S    
C34   C37   1.534607 S    
C118  C119  1.524236 S    
C69   H14   1.110136 S    
C99   H84   1.110097 S    
C5    C66   1.461184 S    
C90   H64   1.109944 S    
C93   H70   1.109960 S    
C107  H93   1.110586 S    
C132  H161  1.111141 S    
C138  C139  1.533443 S    
C41   C75   1.535443 S    
C102  H92   1.110097 S    
C75   H28   1.109931 S    
C72   H21   1.109862 S    
C128  H144  1.110759 S    
Zn5   O9    1.933899 S    
C122  H130  1.110425 S    
C87   H56   1.109944 S    
C62   C65   1.536256 S    
C86   H44   1.111078 S    
C103  C104  1.525206 S    
C133  H160  1.110949 S    
N1    O27   1.300219 A    
C97   C98   1.525747 S    
C29   C31   1.457796 S    
C135  H168  1.111405 S    
C119  H121  1.110645 S    
C9    C58   1.470567 S    
C137  H164  1.109029 S    
C53   C59   1.547201 S    
C88   H54   1.108047 S    
C89   H53   1.110102 S    
C116  H114  1.110939 S    
C67   H7    1.110447 S    
C79   H34   1.108087 S    
N3    O32   1.300251 A    
O11   C9    1.269413 A    
C42   C78   1.535420 S    
C136  H167  1.111477 S    
C114  H120  1.109880 S    
C126  C127  1.533497 S    
Zn1   O1    1.944094 S    
C36   H4    1.110186 S    
C101  H79   1.110990 S    
C55   C60   1.548375 S    
Zn7   O13   1.942423 S    
O25   C3    1.282301 A    
C96   C97   1.534149 S    
Zn7   O3    1.909126 S    
C125  H135  1.110869 S    
C83   H37   1.110937 S    
C96   H77   1.108946 S    
C83   H39   1.110344 S    
C121  H131  1.109776 S    
N4    O33   1.300263 A    
C78   H36   1.109906 S    
C41   C47   1.550033 S    
C127  H146  1.108080 S    
O14   C12   1.265427 A    
C48   C50   1.548492 S    
C58   C60   1.549236 S    
O16   C10   1.269049 A    
O23   C1    1.275693 A    
C72   C73   1.534918 S    
C84   C85   1.533102 S    
C21   C30   1.534831 S    
C109  C110  1.523474 S    
C117  H127  1.109430 S    
C106  C107  1.523469 S    
C97   H76   1.107469 S    
C54   C96   1.537765 S    
C23   C29   1.543213 S    
Zn6   O2    1.945447 S    
C71   H9    1.109034 S    
C100  H83   1.107665 S    
Zn8   O22   1.937723 S    
C80   H31   1.110557 S    
C132  C133  1.533478 S    
C104  H87   1.111001 S    
C80   H30   1.110993 S    
C105  H99   1.111186 S    
C70   H12   1.107945 S    
C92   H58   1.110983 S    
C76   C77   1.524453 S    
O18   C12   1.271727 A    
C131  H149  1.110921 S    
Zn6   O26   1.911330 S    
C115  C116  1.525648 S    
C87   C88   1.532215 S    
C116  H116  1.110479 S    
C94   H68   1.107471 S    
C95   H66   1.110758 S    
O22   C8    1.267955 A    
C22   C29   1.534831 S    
C108  H105  1.111186 S    
C30   C32   1.457799 S    
C135  C136  1.533450 S    
C34   C40   1.541545 S    
C77   H24   1.111046 S    
C134  H156  1.110826 S    
C112  H110  1.111555 S    
C44   C47   1.550105 S    
C19   C123  1.534864 S    
C36   C38   1.537477 S    
C113  H109  1.110473 S    
C45   C51   1.201135 T    
C13   C15   1.538522 S    
C128  H142  1.111017 S    
C14   C20   1.552962 S    
H1    C28   1.110140 S    
C133  H159  1.111451 S    
H2    C27   1.110141 S    
C109  H104  1.111699 S    
C139  H173  1.111476 S    
C106  H97   1.108118 S    
C120  H134  1.111408 S    
C119  H123  1.110432 S    
C33   C35   1.542074 S    
C70   C71   1.525016 S    
C122  H129  1.110642 S    
C24   C30   1.543218 S    
C14   C17   1.551663 S    
C59   C99   1.538491 S    
C22   C24   1.536445 S    
C115  H117  1.108719 S    
C23   C129  1.529822 S    
C94   C95   1.525738 S    
O4    C2    1.278855 A    
C103  H90   1.107755 S    
C82   H41   1.107913 S    
C44   C72   1.536777 S    
C131  H151  1.110463 S    
C91   H62   1.108052 S    
C118  H125  1.109787 S    
Zn1   O17   1.939391 S    
C57   C59   1.549245 S    
C18   C20   1.547157 S    
C85   H47   1.107926 S    
Zn6   O10   1.933895 S    
C110  H101  1.110584 S    
C79   C80   1.524393 S    
Zn2   O18   1.939392 S    
C80   H32   1.110657 S    
O19   C5    1.268030 A    
C48   C81   1.537166 S    
C56   C58   1.545359 S    
C91   C92   1.525999 S    
C92   H60   1.110107 S    
Zn3   O23   1.912322 S    
C36   C39   1.552406 S    
C101  H80   1.111050 S    
C10   C57   1.470583 S    
C63   C105  1.530071 S    
C21   C23   1.536443 S    
C124  H139  1.110117 S    
C62   C64   1.542906 S    
C125  H136  1.111037 S    
C63   C68   1.546074 S    
C71   H10   1.110860 S    
C138  H176  1.111406 S    
C120  C121  1.533126 S    
C86   H46   1.110346 S    
C24   C132  1.529822 S    
Zn1   O5    1.912002 S    
Zn4   O2    1.931498 S    
C113  H107  1.110717 S    
Zn2   O2    1.944091 S    
C123  H141  1.109400 S    
Zn3   O7    1.938721 S    
C127  C128  1.525956 S    
C23   C28   1.556559 S    
C71   H11   1.110435 S    
C24   C27   1.556559 S    
Zn7   O1    1.937837 S    
C90   H63   1.110183 S    
O26   C4    1.282304 A    
O5    C3    1.282749 A    
C81   H43   1.110021 S    
C3    C25   1.425713 S    
C108  C109  1.533162 S    
C21   N3    1.457824 S    
C102  H91   1.108181 S    
C75   C76   1.534541 S    
C33   C135  1.529648 S    
C34   C138  1.529651 S    
C121  C122  1.524234 S    
C47   C49   1.548491 S    
C46   C52   1.201146 T    
C73   H19   1.108011 S    
C35   C37   1.537471 S    
C100  C101  1.525220 S    
C98   H73   1.110428 S    
C107  H95   1.109748 S    
C129  C130  1.533475 S    
O9    C7    1.274330 A    
Zn5   O25   1.911327 S    
C140  H172  1.110383 S    
C124  C125  1.525986 S    
Zn1   O19   1.932171 S    
C6    C65   1.461179 S    
Zn2   O20   1.932172 S    
C126  H148  1.111231 S    
C89   H52   1.110985 S    
C137  H163  1.110987 S    
C105  C106  1.533153 S    
C53   C58   1.548561 S    
C35   C40   1.552402 S    
C88   H55   1.107280 S    
C84   H50   1.110038 S    
C74   H17   1.109048 S    
