data_mof_unit_60057.cif
_audit_creation_date              2012-12-10T18:40:59-0500
_audit_creation_method            fapswitch 2.2
_symmetry_space_group_name_H-M    P1
_symmetry_Int_Tables_number       1
_space_group_crystal_system       triclinic
_cell_length_a                    19.270707
_cell_length_b                    11.574877
_cell_length_c                    10.770131
_cell_angle_alpha                 89.999801
_cell_angle_beta                  90.0
_cell_angle_gamma                 90.000098
_cell_volume                      2402.34302129

loop_
_atom_site_label
_atom_site_type_symbol
_atom_type_description
_atom_site_fract_x
_atom_site_fract_y
_atom_site_fract_z
_atom_type_partial_charge
C1    C     C_R   0.500000 0.281146 0.500000 0.915821
C2    C     C_1   0.500000 0.940848 0.500000 0.012370
C3    C     C_1   0.500000 0.500000 0.069738 0.040347
C4    C     C_1   0.500000 0.500000 0.930262 0.040347
C5    C     C_R   0.253508 0.500135 0.612721 -0.222968
C6    C     C_R   0.746491 0.499883 0.387277 -0.222967
C7    C     C_R   0.746492 0.500130 0.612722 -0.222967
C8    C     C_R   0.253509 0.499880 0.387277 -0.222967
C9    C     C_R   0.181462 0.500132 0.613579 0.003462
C10   C     C_R   0.818537 0.499899 0.386418 0.003463
C11   C     C_R   0.818538 0.500125 0.613579 0.003461
C12   C     C_R   0.500000 0.718854 0.500000 0.915820
C13   C     C_R   0.181463 0.499897 0.386418 0.003463
C14   C     C_R   0.145043 0.500017 0.499998 -0.004315
C15   C     C_R   0.854957 0.500015 0.499998 -0.004314
C16   C     C_R   0.289642 0.500004 0.499999 -0.070467
C17   C     C_R   0.710358 0.500004 0.500000 -0.070467
C18   C     C_1   0.146246 0.496625 0.732096 0.187405
C19   C     C_1   0.853752 0.503417 0.267900 0.187403
C20   C     C_1   0.853754 0.496615 0.732096 0.187405
C21   C     C_1   0.146248 0.503411 0.267900 0.187404
C22   C     C_R   0.930325 0.500017 0.499997 0.283656
C23   C     C_R   0.069674 0.500019 0.499996 0.283657
C24   C     C_R   0.365101 0.500000 0.500000 0.883557
C25   C     C_R   0.634899 0.500000 0.500000 0.883556
C26   C     C_1   0.500000 0.161033 0.500000 -0.181585
C27   C     C_1   0.500000 0.838967 0.499999 -0.181585
C28   C     C_1   0.500000 0.059152 0.500000 0.012370
H1    H     H_    0.281337 0.499691 0.700253 0.167407
H2    H     H_    0.718661 0.500327 0.299746 0.167407
H3    H     H_    0.718663 0.499683 0.700254 0.167406
H4    H     H_    0.281339 0.500320 0.299746 0.167407
N1    N     N_1   0.500000 0.500000 0.180630 -0.080790
N2    N     N_1   0.118090 0.506256 0.173032 -0.154142
N3    N     N_1   0.500000 0.500000 0.819370 -0.080790
N4    N     N_R   0.034408 0.419168 0.434639 -0.149280
N5    N     N_R   0.965592 0.580868 0.565355 -0.149280
N6    N     N_R   0.965592 0.419167 0.434639 -0.149280
N7    N     N_R   0.034407 0.580869 0.565355 -0.149280
N8    N     N_1   0.118087 0.493787 0.826964 -0.154141
N9    N     N_1   0.881910 0.506266 0.173032 -0.154142
N10   N     N_1   0.881913 0.493774 0.826964 -0.154141
O1    O     O_R   0.500000 0.334450 0.602530 -0.606557
O2    O     O_R   0.500000 0.665550 0.397470 -0.606557
O3    O     O_R   0.500000 0.665550 0.602530 -0.606436
O4    O     O_R   0.500000 0.334450 0.397470 -0.606435
O5    O     O_R   0.398140 0.500000 0.602560 -0.618105
O6    O     O_R   0.601860 0.500000 0.397440 -0.618105
O7    O     O_R   0.601860 0.500000 0.602560 -0.618104
O8    O     O_R   0.398140 0.500000 0.397440 -0.618105
Zn1   Zn    Zn3+2 0.500000 0.500000 0.636920 0.986840
Zn2   Zn    Zn3+2 0.500000 0.500000 0.363080 0.986839

loop_
_geom_bond_atom_site_label_1
_geom_bond_atom_site_label_2
_ccdc_geom_bond_type
C14   C23   S    
C6    C10   A    
C20   N10   T    
C9    C14   A    
C5    C9    A    
C8    C13   A    
C2    C28   S    
N3    Zn1   S    
C26   C28   T    
C10   C19   S    
C17   C25   S    
O2    Zn2   S    
N4    N6    A    
C4    N3    T    
C13   C21   S    
C16   C24   S    
C13   C14   A    
N1    Zn2   S    
C7    C11   A    
C24   O5    A    
C25   O6    A    
O1    Zn1   S    
C2    C27   T    
C23   N7    A    
C6    H2    S    
C5    H1    S    
C10   C15   A    
C24   O8    A    
C1    C26   S    
C1    O4    A    
C25   O7    A    
C11   C20   S    
C7    H3    S    
C3    N1    T    
C12   C27   S    
C3    C4    S    
C8    H4    S    
O4    Zn2   S    
C9    C18   S    
O6    Zn2   S    
N5    N7    A    
C23   N4    A    
C8    C16   A    
O8    Zn2   S    
C6    C17   A    
O3    Zn1   S    
C12   O2    A    
C5    C16   A    
C18   N8    T    
C21   N2    T    
C7    C17   A    
C22   N5    A    
C11   C15   A    
C1    O1    A    
C15   C22   S    
O5    Zn1   S    
C19   N9    T    
C12   O3    A    
O7    Zn1   S    
C22   N6    A    
