data_mof_unit_51264.cif
_audit_creation_date              2012-12-10T19:25:54-0500
_audit_creation_method            fapswitch 2.2
_symmetry_space_group_name_H-M    P1
_symmetry_Int_Tables_number       1
_space_group_crystal_system       triclinic
_cell_length_a                    9.882249
_cell_length_b                    10.653673
_cell_length_c                    16.330163
_cell_angle_alpha                 90.40984
_cell_angle_beta                  86.378611
_cell_angle_gamma                 90.33011
_cell_volume                      1715.77509294

loop_
_atom_site_label
_atom_site_type_symbol
_atom_type_description
_atom_site_fract_x
_atom_site_fract_y
_atom_site_fract_z
_atom_type_partial_charge
C1    C     C_R   0.499801 0.741984 0.501982 0.863447
C2    C     C_3   0.578405 0.955773 0.438795 0.177374
C3    C     C_3   0.950546 0.605127 0.526433 0.208999
C4    C     C_3   0.049171 0.394539 0.473706 0.214096
C5    C     C_3   0.053400 0.587123 0.453693 0.212122
C6    C     C_3   0.946425 0.412855 0.546404 0.213299
C7    C     C_3   0.041308 0.517994 0.573296 -0.170283
C8    C     C_3   0.958657 0.481723 0.426678 -0.179537
C9    C     C_R   0.482427 0.500617 0.653690 0.829034
C10   C     C_R   0.517609 0.498342 0.345927 0.834941
C11   C     C_R   0.474330 0.460650 0.738448 -0.044552
C12   C     C_R   0.500084 0.257609 0.499421 0.869294
C13   C     C_R   0.523497 0.457395 0.260070 -0.064582
C14   C     C_R   0.509288 0.335672 0.750946 -0.243930
C15   C     C_R   0.441582 0.353974 0.243013 -0.244603
C16   C     C_R   0.487115 0.281241 0.827438 -0.219199
C17   C     C_R   0.454677 0.292674 0.168130 -0.216044
C18   C     C_R   0.441845 0.355281 0.894185 0.165072
C19   C     C_R   0.537768 0.343228 0.104584 0.152494
C20   C     C_R   0.411405 0.482292 0.882868 -0.182117
C21   C     C_R   0.617248 0.449904 0.119558 -0.184551
C22   C     C_R   0.424008 0.536063 0.804700 0.150577
C23   C     C_3   0.371088 0.957563 0.497027 -0.211603
C24   C     C_R   0.613961 0.506497 0.197627 0.161608
C25   C     C_2   0.425079 0.303242 0.977537 0.061884
C26   C     C_2   0.538499 0.290243 0.020533 0.066339
C27   C     C_3   0.889749 0.722737 0.565930 -0.354375
C28   C     C_3   0.997790 0.806035 0.599871 -0.959324
C29   C     C_3   0.109683 0.274990 0.436311 -0.373522
C30   C     C_3   0.003284 0.188830 0.402103 -0.949363
C31   C     C_3   0.704474 0.619080 0.210310 -0.441988
C32   C     C_3   0.658343 0.732576 0.162928 -0.892891
C33   C     C_3   0.382165 0.671183 0.794682 -0.447419
C34   C     C_3   0.629004 0.041090 0.507415 -0.226058
C35   C     C_3   0.472496 0.760838 0.840702 -0.888272
C36   C     C_3   0.676760 0.261849 0.977613 -0.405711
C37   C     C_3   0.769630 0.191934 0.033165 -0.877907
C38   C     C_3   0.282820 0.306762 0.020151 -0.413985
C39   C     C_3   0.167563 0.302667 0.961611 -0.870210
C40   C     C_3   0.398098 0.079394 0.351456 -0.413901
C41   C     C_3   0.344530 0.971521 0.300749 -0.893781
C42   C     C_3   0.597420 0.910485 0.652549 -0.413236
C43   C     C_3   0.692002 0.001235 0.693662 -0.904606
C44   C     C_3   0.338803 0.096759 0.640175 -0.416566
C45   C     C_3   0.451990 0.036626 0.431790 0.179921
C46   C     C_3   0.230892 0.005557 0.673534 -0.912813
C47   C     C_3   0.670801 0.898933 0.369823 -0.382024
C48   C     C_3   0.734890 0.997747 0.312044 -0.889800
C49   C     C_3   0.120141 0.680953 0.393118 -0.365554
C50   C     C_3   0.016767 0.763180 0.354076 -0.981130
C51   C     C_3   0.879841 0.319214 0.607221 -0.370937
C52   C     C_3   0.984500 0.245521 0.651339 -0.957440
C53   C     C_3   0.548425 0.961032 0.572298 0.168759
C54   C     C_3   0.500927 0.121934 0.500378 -0.168282
C55   C     C_3   0.499064 0.877066 0.503635 -0.162942
C56   C     C_3   0.421991 0.043049 0.565703 0.167318
H1    H     H_    0.549532 0.279555 0.699721 0.138024
H2    H     H_    0.950418 0.236762 0.353235 0.264321
H3    H     H_    0.928752 0.159885 0.451834 0.266236
H4    H     H_    0.052871 0.103272 0.375414 0.267045
H5    H     H_    0.182166 0.304199 0.385527 0.205868
H6    H     H_    0.162562 0.222902 0.483102 0.231421
H7    H     H_    0.663938 0.713006 0.095945 0.258974
H8    H     H_    0.552524 0.757317 0.183426 0.256698
H9    H     H_    0.725312 0.813996 0.174211 0.262722
H10   H     H_    0.705973 0.645993 0.275720 0.212605
H11   H     H_    0.810455 0.595398 0.189230 0.210120
H12   H     H_    0.370307 0.317047 0.289475 0.149951
H13   H     H_    0.467243 0.739929 0.907295 0.258425
H14   H     H_    0.579373 0.753209 0.815813 0.265136
H15   H     H_    0.437740 0.858830 0.833521 0.254223
H16   H     H_    0.386456 0.698649 0.729187 0.189056
H17   H     H_    0.275271 0.682267 0.818945 0.211465
H18   H     H_    0.802755 0.254231 0.082965 0.260705
H19   H     H_    0.716497 0.108564 0.060534 0.264591
H20   H     H_    0.861328 0.159405 0.996456 0.246383
H21   H     H_    0.665498 0.199353 0.924117 0.213840
H22   H     H_    0.726665 0.350083 0.955522 0.204550
H23   H     H_    0.079778 0.532573 0.635092 0.145067
H24   H     H_    0.162536 0.391289 0.926734 0.259906
H25   H     H_    0.180951 0.222210 0.918229 0.264756
H26   H     H_    0.069377 0.291074 0.997724 0.248041
H27   H     H_    0.268207 0.221919 0.058569 0.207579
H28   H     H_    0.271261 0.391823 0.059719 0.214280
H29   H     H_    0.374305 0.538361 0.935115 0.143255
H30   H     H_    0.682395 0.489035 0.070244 0.139728
H31   H     H_    0.398560 0.206642 0.160061 0.140844
H32   H     H_    0.505445 0.181972 0.834487 0.135145
H33   H     H_    0.427384 0.908041 0.278708 0.261859
H34   H     H_    0.920277 0.467094 0.364848 0.145410
H35   H     H_    0.266820 0.917623 0.337723 0.266736
H36   H     H_    0.297040 0.009825 0.246450 0.246097
H37   H     H_    0.313998 0.143734 0.366211 0.206989
H38   H     H_    0.479538 0.129841 0.315503 0.218084
H39   H     H_    0.776643 0.030314 0.650200 0.264978
H40   H     H_    0.636452 0.085557 0.715935 0.252032
H41   H     H_    0.734428 0.954969 0.747016 0.255639
H42   H     H_    0.508447 0.890936 0.694809 0.220692
H43   H     H_    0.649838 0.820814 0.640523 0.211134
H44   H     H_    0.265939 0.923675 0.492314 0.150442
H45   H     H_    0.052126 0.756843 0.647592 0.267241
H46   H     H_    0.734426 0.074774 0.510636 0.147629
H47   H     H_    0.152207 0.998548 0.628932 0.268893
H48   H     H_    0.273840 0.911310 0.683530 0.265195
H49   H     H_    0.183690 0.041725 0.732490 0.264188
H50   H     H_    0.406896 0.117082 0.689569 0.218263
H51   H     H_    0.289472 0.185430 0.623589 0.229311
H52   H     H_    0.664956 0.021845 0.264136 0.262459
H53   H     H_    0.760547 0.084090 0.346145 0.271498
H54   H     H_    0.829146 0.959948 0.280739 0.256716
H55   H     H_    0.751724 0.847258 0.398368 0.211775
H56   H     H_    0.070862 0.835208 0.549367 0.266831
H57   H     H_    0.612909 0.829982 0.334828 0.203494
H58   H     H_    0.064944 0.810512 0.299287 0.261822
H59   H     H_    0.929994 0.706437 0.334273 0.270519
H60   H     H_    0.980659 0.836665 0.398512 0.270087
H61   H     H_    0.190396 0.742240 0.425001 0.227452
H62   H     H_    0.178940 0.628185 0.344114 0.220407
H63   H     H_    0.040478 0.182996 0.606959 0.271373
H64   H     H_    0.056772 0.309403 0.680485 0.273373
H65   H     H_    0.932909 0.187061 0.699984 0.263961
H66   H     H_    0.814579 0.371225 0.653526 0.226546
H67   H     H_    0.949357 0.890491 0.628137 0.265518
H68   H     H_    0.815822 0.252657 0.574653 0.224110
H69   H     H_    0.836531 0.776830 0.520399 0.229518
H70   H     H_    0.818252 0.692673 0.617099 0.214660
N1    N     N_3   0.136700 0.499970 0.500060 -0.140509
N2    N     N_3   0.863300 0.500030 0.499940 -0.140913
O1    O     O_R   0.383390 0.686040 0.500000 -0.620765
O2    O     O_R   0.616610 0.313960 0.500000 -0.617149
O3    O     O_R   0.616650 0.686050 0.499970 -0.643675
O4    O     O_R   0.383350 0.313950 0.500030 -0.640982
O5    O     O_R   0.369590 0.500020 0.615820 -0.605522
O6    O     O_R   0.630410 0.499980 0.384180 -0.610512
O7    O     O_R   0.602840 0.500020 0.615790 -0.624791
O8    O     O_R   0.397160 0.499980 0.384210 -0.623292
Zn1   Zn    Zn3+2 0.344250 0.499990 0.500020 0.912169
Zn2   Zn    Zn3+2 0.655750 0.500010 0.499980 0.910507

loop_
_geom_bond_atom_site_label_1
_geom_bond_atom_site_label_2
_ccdc_geom_bond_type
O7    Zn2   S    
C41   H33   S    
C37   H18   S    
O5    Zn1   S    
C23   C45   S    
C38   H27   S    
C31   H10   S    
C48   H54   S    
C40   H37   S    
C4    C8    S    
C28   H67   S    
C23   C56   S    
C28   H56   S    
C31   H11   S    
C34   H46   S    
C12   O2    A    
C36   C37   S    
C19   C21   A    
C10   O8    A    
C1    O1    A    
C36   H21   S    
C42   H42   S    
C42   C53   S    
C38   C39   S    
C33   C35   S    
C27   H70   S    
C53   C56   S    
C46   H49   S    
C47   H57   S    
C50   H59   S    
C14   H1    S    
C19   C26   S    
N2    Zn2   S    
C33   H16   S    
C17   C19   A    
C29   H6    S    
C28   H45   S    
C8    N2    S    
C49   H61   S    
C47   C48   S    
C35   H14   S    
C30   H4    S    
C43   H39   S    
C6    C51   S    
C50   H60   S    
C4    C29   S    
C2    C34   S    
C23   H44   S    
C37   H19   S    
C35   H15   S    
C30   H3    S    
C51   H68   S    
C5    C49   S    
C18   C25   S    
C44   C46   S    
C29   H5    S    
C53   C55   S    
C2    C45   S    
C40   C45   S    
C54   C56   S    
C51   C52   S    
C43   H41   S    
C32   H8    S    
C4    C6    S    
C3    N2    S    
C3    C5    S    
C25   C26   D    
C46   H48   S    
C13   C24   A    
C50   H58   S    
C29   C30   S    
C25   C38   S    
C52   H65   S    
C44   C56   S    
C49   H62   S    
C20   H29   S    
C5    N1    S    
C43   H40   S    
C9    C11   S    
C39   H25   S    
C52   H64   S    
C26   C36   S    
C40   C41   S    
C41   H35   S    
C37   H20   S    
C20   C22   A    
C45   C54   S    
C34   C54   S    
C13   C15   A    
C14   C16   A    
C8    H34   S    
C42   C43   S    
O2    Zn2   S    
C9    O7    A    
C7    H23   S    
C44   H51   S    
C33   H17   S    
C15   C17   A    
C22   C33   S    
C21   H30   S    
C12   O4    A    
C4    N1    S    
C38   H28   S    
C17   H31   S    
C31   C32   S    
C10   O6    A    
C39   H26   S    
C40   H38   S    
O8    Zn1   S    
C1    O3    A    
C10   C13   S    
O6    Zn2   S    
C5    C8    S    
C23   C55   S    
C6    C7    S    
C44   H50   S    
C2    C47   S    
C32   H7    S    
C46   H47   S    
C11   C22   A    
C3    C7    S    
C2    C55   S    
C39   H24   S    
C3    C27   S    
O4    Zn1   S    
C24   C31   S    
C6    N2    S    
O3    Zn2   S    
C36   H22   S    
C42   H43   S    
C27   H69   S    
C48   H52   S    
C47   H55   S    
C15   H12   S    
C30   H2    S    
C11   C14   A    
C48   H53   S    
C18   C20   A    
C1    C55   S    
C52   H63   S    
C41   H36   S    
O1    Zn1   S    
C35   H13   S    
C34   C53   S    
C16   C18   A    
C49   C50   S    
C21   C24   A    
C27   C28   S    
C16   H32   S    
C51   H66   S    
N1    Zn1   S    
C7    N1    S    
C12   C54   S    
C32   H9    S    
C9    O5    A    
