data_mof_unit_38662.cif
_audit_creation_date              2012-10-26T18:29:01-0400
_audit_creation_method            fapswitch 2.2
_symmetry_space_group_name_H-M    P1
_symmetry_Int_Tables_number       1
_space_group_crystal_system       triclinic
_cell_length_a                    11.653569
_cell_length_b                    13.004009
_cell_length_c                    15.838535
_cell_angle_alpha                 92.246925
_cell_angle_beta                  73.691872
_cell_angle_gamma                 99.883963
_cell_volume                      2269.35437192

loop_
_atom_site_label
_atom_site_type_symbol
_atom_type_description
_atom_site_fract_x
_atom_site_fract_y
_atom_site_fract_z
_atom_type_partial_charge
C1    C     C_R   0.520839 0.700887 0.501246 0.552794
C2    C     C_R   0.348235 0.015238 0.490968 -0.133316
C3    C     C_R   0.641115 0.876676 0.508194 -0.127757
C4    C     C_R   0.359032 0.123335 0.491521 -0.128783
C5    C     C_R   0.435386 0.860740 0.496255 -0.123899
C6    C     C_R   0.564810 0.139277 0.503358 -0.127476
C7    C     C_R   0.445533 0.968762 0.496675 0.048012
C8    C     C_R   0.554683 0.031255 0.502900 0.048344
C9    C     C_R   0.941028 0.598619 0.580321 -0.171540
C10   C     C_R   0.059050 0.401508 0.419581 -0.165726
C11   C     C_R   0.822515 0.589006 0.572668 0.063353
C12   C     C_R   0.479203 0.299118 0.498672 0.537891
C13   C     C_R   0.177677 0.411325 0.427036 0.064971
C14   C     C_R   0.859186 0.456839 0.465769 0.061989
C15   C     C_R   0.140726 0.542940 0.534452 0.059928
C16   C     C_R   0.426461 0.498683 0.668699 0.585097
C17   C     C_R   0.573459 0.502693 0.331480 0.575734
C18   C     C_R   0.979366 0.464035 0.470955 0.012272
C19   C     C_R   0.020605 0.535868 0.529160 0.010374
C20   C     C_R   0.381571 0.499066 0.766213 0.034430
C21   C     C_R   0.617077 0.498191 0.234414 0.032177
C22   C     C_R   0.221997 0.461334 0.903401 -0.087545
C23   C     C_R   0.356053 0.476761 0.089430 -0.131625
C24   C     C_R   0.766057 0.466448 0.098153 -0.080254
C25   C     C_R   0.256924 0.471202 0.812030 0.182139
C26   C     C_R   0.728706 0.465670 0.189935 0.187845
C27   C     C_R   0.466941 0.524847 0.814869 0.183140
C28   C     C_R   0.543457 0.525865 0.184880 0.180322
C29   C     C_R   0.433351 0.499851 0.905775 0.013803
C30   C     C_R   0.569388 0.502639 0.094095 0.007426
C31   C     C_R   0.308486 0.475225 0.950465 -0.026099
C32   C     C_R   0.686618 0.482392 0.049981 -0.027197
C33   C     C_R   0.519828 0.496766 0.953277 0.031914
C34   C     C_R   0.640047 0.482885 0.910676 -0.130608
C35   C     C_R   0.481591 0.496117 0.046541 0.028879
C36   C     C_R   0.271113 0.463878 0.041822 -0.132950
C37   C     C_R   0.721145 0.473500 0.958579 -0.135676
C38   C     C_R   0.467256 0.185708 0.497797 0.004340
C39   C     C_R   0.532874 0.814303 0.501948 0.006539
C40   C     C_R   0.651966 0.984777 0.508638 -0.133374
Cu1   Cu    Cu3+1 0.386820 0.492450 0.493500 0.979073
Cu2   Cu    Cu3+1 0.613180 0.507550 0.506500 0.974566
H1    H     H_    0.175633 0.445116 0.076766 0.128920
H2    H     H_    0.670194 0.470888 0.840539 0.171631
H3    H     H_    0.648744 0.186948 0.508125 0.122035
H4    H     H_    0.351458 0.813070 0.491475 0.125162
H5    H     H_    0.282735 0.157956 0.487084 0.133046
H6    H     H_    0.717371 0.842051 0.512711 0.132746
H7    H     H_    0.736106 0.031886 0.513466 0.107577
H8    H     H_    0.264096 0.968129 0.486138 0.107873
H9    H     H_    0.173665 0.597659 0.579063 0.102548
H10   H     H_    0.826174 0.401859 0.421399 0.120306
H11   H     H_    0.441473 0.627784 0.180492 0.326562
H12   H     H_    0.810784 0.457890 0.923978 0.128555
H13   H     H_    0.605728 0.629849 0.817751 0.320536
H14   H     H_    0.751126 0.388926 0.283964 0.324409
H15   H     H_    0.177825 0.516946 0.733150 0.329107
H16   H     H_    0.238696 0.362826 0.387366 0.125472
H17   H     H_    0.761776 0.637976 0.611915 0.162360
H18   H     H_    0.970133 0.654736 0.625642 0.091045
H19   H     H_    0.030009 0.345555 0.374123 0.096409
H20   H     H_    0.126313 0.441586 0.937651 0.141212
H21   H     H_    0.854072 0.446436 0.064676 0.141600
H22   H     H_    0.321995 0.463741 0.159702 0.164822
N1    N     N_R   0.216750 0.481110 0.483710 -0.222847
N2    N     N_R   0.783250 0.518890 0.516290 -0.233095
O1    O     O_R   0.419950 0.645670 0.495380 -0.509812
O2    O     O_3   0.578331 0.583152 0.773684 -0.720192
O3    O     O_3   0.803293 0.432189 0.233016 -0.699836
O4    O     O_3   0.166628 0.454504 0.770337 -0.687829
O5    O     O_R   0.580050 0.354330 0.504620 -0.524242
O6    O     O_R   0.611110 0.658410 0.506370 -0.510143
O7    O     O_R   0.388890 0.341590 0.493630 -0.513508
O8    O     O_R   0.350820 0.490050 0.621260 -0.504966
O9    O     O_R   0.649180 0.509950 0.378740 -0.501451
O10   O     O_R   0.541970 0.502800 0.632250 -0.441117
O11   O     O_R   0.458030 0.497200 0.367750 -0.445470
O12   O     O_3   0.453173 0.582612 0.225355 -0.692952

loop_
_geom_bond_atom_site_label_1
_geom_bond_atom_site_label_2
_ccdc_geom_bond_type
C21   C26   A    
C6    H3    S    
C27   C29   A    
C34   C37   A    
Cu1   Cu2   S    
C14   C18   A    
C2    C7    A    
H13   O2    S    
C7    C8    A    
Cu1   O1    S    
C13   N1    A    
C15   C19   A    
Cu2   O9    S    
C30   C35   A    
C16   O8    A    
C24   C26   A    
Cu1   O11   S    
C20   C25   A    
C40   H7    S    
C15   N1    A    
C29   C33   A    
C3    H6    S    
C18   C19   A    
C27   O2    S    
C2    H8    S    
C1    O1    A    
Cu1   O8    S    
C9    C19   A    
C14   H10   S    
C22   C25   A    
C6    C38   A    
C15   H9    S    
H15   O4    S    
C28   O12   S    
C11   N2    A    
C3    C39   A    
C12   O7    A    
C11   H17   S    
C17   O11   A    
C1    O6    A    
C22   C31   A    
C34   H2    S    
C5    C7    A    
C6    C8    A    
C13   H16   S    
C17   C21   S    
C2    C4    A    
C24   C32   A    
C22   H20   S    
C16   C20   S    
Cu2   O6    S    
C33   C34   A    
C14   N2    A    
C32   C37   A    
C9    C11   A    
C37   H12   S    
C23   H22   S    
C21   C28   A    
C4    C38   A    
C3    C40   A    
C23   C36   A    
C24   H21   S    
C23   C35   A    
C5    C39   A    
C10   H19   S    
Cu2   N2    S    
C16   O10   A    
C12   O5    A    
C10   C13   A    
Cu1   N1    S    
C20   C27   A    
C5    H4    S    
Cu2   O10   S    
C9    H18   S    
C28   C30   A    
H11   O12   S    
C29   C31   A    
C30   C32   A    
C10   C18   A    
Cu2   O5    S    
C33   C35   A    
C12   C38   S    
C1    C39   S    
Cu1   O7    S    
H14   O3    S    
C17   O9    A    
C26   O3    S    
C31   C36   A    
C36   H1    S    
C25   O4    S    
C8    C40   A    
C4    H5    S    
