data_mof_unit_32196.cif
_audit_creation_date              2012-12-10T17:42:36-0500
_audit_creation_method            fapswitch 2.2
_symmetry_space_group_name_H-M    P1
_symmetry_Int_Tables_number       1
_space_group_crystal_system       triclinic
_cell_length_a                    9.887315
_cell_length_b                    10.722892
_cell_length_c                    13.222402
_cell_angle_alpha                 91.510113
_cell_angle_beta                  69.892725
_cell_angle_gamma                 89.499269
_cell_volume                      1315.71163402

loop_
_atom_site_label
_atom_site_type_symbol
_atom_type_description
_atom_site_fract_x
_atom_site_fract_y
_atom_site_fract_z
_atom_type_partial_charge
C1    C     C_R   0.501557 0.740008 0.492874 0.869524
C2    C     C_R   0.370461 0.504159 0.821195 -0.115131
C3    C     C_R   0.250858 0.890448 0.474359 -0.165293
C4    C     C_R   0.420175 0.495996 0.703846 0.853348
C5    C     C_R   0.117481 0.952463 0.508306 -0.139345
C6    C     C_R   0.100072 0.065587 0.565317 -0.162010
C7    C     C_R   0.219389 0.122203 0.578628 -0.160655
C8    C     C_R   0.358174 0.065148 0.535073 0.103875
C9    C     C_R   0.369353 0.940985 0.498099 0.096492
C10   C     C_R   0.498562 0.873849 0.487674 -0.127981
C11   C     C_R   0.620968 0.935979 0.490397 -0.221538
C12   C     C_R   0.449737 0.531130 0.975620 -0.058084
C13   C     C_R   0.616844 0.062906 0.504334 -0.224410
C14   C     C_R   0.487459 0.128390 0.523555 -0.134823
C15   C     C_R   0.794986 0.665376 0.641546 -0.148112
C16   C     C_R   0.495103 0.260993 0.510598 0.875696
C17   C     C_R   0.832970 0.743233 0.712916 -0.206473
C18   C     C_R   0.972222 0.739948 0.714375 -0.185056
C19   C     C_R   0.074561 0.659518 0.643821 -0.170007
C20   C     C_R   0.039799 0.579439 0.570617 0.147381
C21   C     C_R   0.895344 0.580750 0.569978 0.174476
C22   C     C_R   0.959900 0.422916 0.433123 -0.131427
C23   C     C_R   0.466803 0.472946 0.874709 0.040366
C24   C     C_R   0.103248 0.423179 0.432954 -0.101093
C25   C     C_R   0.580020 0.500845 0.296221 0.881792
C26   C     C_R   0.790367 0.414206 0.009406 -0.204998
C27   C     C_R   0.629612 0.497137 0.179464 -0.090747
C28   C     C_R   0.243491 0.571672 0.875510 -0.300658
C29   C     C_R   0.223484 0.626720 0.975602 -0.217647
C30   C     C_R   0.330281 0.616532 0.021946 0.464276
C31   C     C_3   0.401162 0.801181 0.073789 0.078356
C32   C     C_3   0.399547 0.880741 0.171224 -0.814557
C33   C     C_R   0.554862 0.503273 0.023347 0.075962
C34   C     C_R   0.682881 0.434990 0.964359 0.179616
C35   C     C_R   0.695577 0.378007 0.866010 -0.242736
C36   C     C_R   0.583970 0.389077 0.826081 -0.165193
C37   C     C_R   0.529411 0.529104 0.131720 -0.232806
C38   C     C_R   0.764183 0.446535 0.117205 -0.190814
H1    H     H_    0.843156 0.422016 0.153671 0.158016
H2    H     H_    0.001640 0.800825 0.769793 0.148407
H3    H     H_    0.179869 0.662862 0.648399 0.207146
H4    H     H_    0.787928 0.318672 0.823029 0.137915
H5    H     H_    0.182920 0.360369 0.378285 0.155411
H6    H     H_    0.890027 0.365454 0.963614 0.139537
H7    H     H_    0.424691 0.560795 0.183644 0.227065
H8    H     H_    0.166911 0.593258 0.836121 0.177809
H9    H     H_    0.130448 0.687325 0.013075 0.167418
H10   H     H_    0.592060 0.333158 0.754797 0.158192
H11   H     H_    0.721110 0.886806 0.480713 0.171458
H12   H     H_    0.259591 0.805471 0.426763 0.179151
H13   H     H_    0.356089 0.857932 0.023087 0.143878
H14   H     H_    0.515407 0.775103 0.026755 0.141982
H15   H     H_    0.446205 0.826717 0.222301 0.247853
H16   H     H_    0.464416 0.965428 0.144289 0.209178
H17   H     H_    0.287283 0.909719 0.219710 0.258291
H18   H     H_    0.026984 0.911335 0.492261 0.143558
H19   H     H_    0.995236 0.111418 0.596189 0.133159
H20   H     H_    0.201643 0.210055 0.623780 0.155898
H21   H     H_    0.715940 0.109653 0.498319 0.168186
H22   H     H_    0.931535 0.360002 0.378595 0.142202
H23   H     H_    0.686311 0.675251 0.645246 0.206234
H24   H     H_    0.753685 0.806754 0.767286 0.141799
N1    N     N_R   0.856860 0.501200 0.500990 -0.119631
N2    N     N_R   0.142450 0.501280 0.501020 -0.125029
O1    O     O_R   0.385310 0.683220 0.500000 -0.647100
O2    O     O_R   0.614640 0.683250 0.500010 -0.635545
O3    O     O_R   0.328400 0.499950 0.653610 -0.638432
O4    O     O_R   0.557730 0.499970 0.653620 -0.630696
O5    O     O_R   0.385360 0.316750 0.499990 -0.619366
O6    O     O_R   0.614690 0.316780 0.500000 -0.623269
O7    O     O_R   0.442270 0.500030 0.346380 -0.616582
O8    O     O_R   0.671600 0.500050 0.346390 -0.607516
O9    O     O_3   0.316713 0.694905 0.109634 -0.637536
Zn1   Zn    Zn3+2 0.346880 0.499980 0.499990 0.922653
Zn2   Zn    Zn3+2 0.653120 0.500020 0.500010 0.928741

loop_
_geom_bond_atom_site_label_1
_geom_bond_atom_site_label_2
_ccdc_geom_bond_type
C5    H18   S    
C35   C36   A    
C31   H14   S    
C26   H6    S    
C7    C8    A    
O4    Zn2   S    
C12   C23   A    
C28   H8    S    
C29   H9    S    
C3    C9    A    
C28   C29   A    
C34   C35   A    
C22   H22   S    
C5    C6    A    
C31   O9    S    
C27   C38   A    
C17   C18   A    
C18   C19   A    
C35   H4    S    
C18   H2    S    
C22   N1    A    
C26   C34   A    
C19   C20   A    
C8    C9    A    
C1    O1    A    
C25   O7    A    
C9    C10   A    
C32   H17   S    
C24   N2    A    
C13   C14   A    
C6    H19   S    
O8    Zn2   S    
C32   H16   S    
C3    H12   S    
C33   C34   A    
C1    C10   S    
C16   O6    A    
C25   O8    A    
C30   O9    S    
C26   C38   A    
C33   C37   A    
O1    Zn1   S    
C20   N2    A    
C2    C4    S    
C29   C30   A    
C11   H11   S    
C17   H24   S    
C4    O3    A    
C31   C32   S    
C1    O2    A    
C15   H23   S    
O5    Zn1   S    
O3    Zn1   S    
C14   C16   S    
C37   H7    S    
C32   H15   S    
O6    Zn2   S    
C4    O4    A    
C15   C17   A    
C8    C14   A    
C7    H20   S    
C12   C30   A    
C16   O5    A    
C31   H13   S    
C3    C5    A    
O7    Zn1   S    
C6    C7    A    
C13   H21   S    
C25   C27   S    
C11   C13   A    
C38   H1    S    
N1    Zn2   S    
C27   C37   A    
O2    Zn2   S    
C36   H10   S    
C22   C24   A    
C21   N1    A    
C10   C11   A    
C15   C21   A    
C20   C21   A    
C23   C36   A    
C2    C23   A    
C24   H5    S    
N2    Zn1   S    
C2    C28   A    
C12   C33   A    
C19   H3    S    
