data_mof_unit_26185.cif
_audit_creation_date              2012-12-11T14:33:47-0500
_audit_creation_method            fapswitch 2.2
_symmetry_space_group_name_H-M    P1
_symmetry_Int_Tables_number       1
_space_group_crystal_system       triclinic
_cell_length_a                    13.845916
_cell_length_b                    13.983299
_cell_length_c                    27.405546
_cell_angle_alpha                 90.026977
_cell_angle_beta                  90.283321
_cell_angle_gamma                 119.639287
_cell_volume                      4611.68665827

loop_
_atom_site_label
_atom_site_type_symbol
_atom_type_description
_atom_site_fract_x
_atom_site_fract_y
_atom_site_fract_z
_atom_type_partial_charge
C1    C     C_R   0.235079 0.786704 0.569137 0.531987
C2    C     C_1   0.694717 0.857759 0.862625 0.024737
C3    C     C_2   0.744403 0.741689 0.404929 0.253436
C4    C     C_2   0.278000 0.009306 0.405272 0.268216
C5    C     C_2   0.985547 0.266736 0.409143 0.255225
C6    C     C_2   0.769140 0.750750 0.704634 0.171563
C7    C     C_2   0.051245 0.924886 0.684513 0.177685
C8    C     C_2   0.005965 0.147592 0.682711 0.189080
C9    C     C_1   0.116894 0.878271 0.853512 0.022280
C10   C     C_1   0.118105 0.234750 0.852952 0.025283
C11   C     C_1   0.608818 0.804302 0.662029 -0.012899
C12   C     C_1   0.185210 0.816517 0.658007 0.004149
C13   C     C_1   0.184792 0.367458 0.657821 -0.008621
C14   C     C_1   0.588230 0.789361 0.619093 0.013488
C15   C     C_1   0.204323 0.804322 0.616456 0.027764
C16   C     C_1   0.196609 0.399263 0.616370 0.016210
C17   C     C_R   0.066144 0.152083 0.096132 0.563043
C18   C     C_R   0.213406 0.447994 0.569178 0.531817
C19   C     C_R   0.778683 0.885048 0.088687 0.544173
C20   C     C_R   0.115936 0.895026 0.089131 0.558431
C21   C     C_R   0.069733 0.161173 0.943145 0.528408
C22   C     C_R   0.778796 0.886699 0.951164 0.542637
C23   C     C_R   0.090962 0.928850 0.943284 0.524394
C24   C     C_R   0.565170 0.853944 0.353946 -0.103061
C25   C     C_R   0.114762 0.715733 0.359102 -0.104525
C26   C     C_R   0.276459 0.398785 0.357011 -0.108659
C27   C     C_R   0.599094 0.878908 0.305823 0.011219
C28   C     C_R   0.089960 0.726966 0.310923 0.010287
C29   C     C_R   0.549806 0.763663 0.569809 0.530451
C30   C     C_R   0.260086 0.352446 0.310524 0.012682
C31   C     C_R   0.649839 0.899806 0.206177 -0.001850
C32   C     C_R   0.075952 0.753701 0.210079 -0.005246
C33   C     C_R   0.219533 0.280398 0.213083 -0.009718
C34   C     C_R   0.231517 0.787632 0.432041 0.520197
C35   C     C_R   0.211481 0.443903 0.431792 0.519835
C36   C     C_R   0.553980 0.766532 0.431601 0.515793
C37   C     C_R   0.573231 0.928490 0.223653 -0.151577
C38   C     C_R   0.020571 0.648668 0.230373 -0.156864
C39   C     C_R   0.328376 0.347287 0.229519 -0.166776
C40   C     C_3   0.566051 0.729964 0.798921 -0.244064
C41   C     C_R   0.549183 0.921582 0.273360 0.008802
C42   C     C_R   0.024789 0.633829 0.280644 0.003165
C43   C     C_R   0.350440 0.381309 0.278195 0.003851
C44   C     C_R   0.672960 0.906701 0.156332 -0.147408
C45   C     C_R   0.071287 0.767806 0.159703 -0.144784
C46   C     C_R   0.199093 0.247611 0.164295 -0.130101
C47   C     C_R   0.749501 0.877387 0.139565 -0.001285
C48   C     C_R   0.127850 0.873511 0.140059 -0.005212
C49   C     C_R   0.089809 0.182017 0.147512 -0.007417
C50   C     C_R   0.696760 0.788654 0.369810 -0.004321
C51   C     C_3   0.245008 0.955668 0.784045 -0.245015
C52   C     C_R   0.219870 0.914984 0.370873 0.008499
C53   C     C_R   0.077525 0.296545 0.373974 -0.005811
C54   C     C_R   0.732997 0.813484 0.321010 0.022104
C55   C     C_R   0.200895 0.928687 0.321385 0.018837
C56   C     C_R   0.058335 0.250068 0.326556 0.015342
C57   C     C_R   0.679734 0.853291 0.288759 0.011982
C58   C     C_R   0.140690 0.834052 0.291151 0.004746
C59   C     C_R   0.149629 0.281764 0.294491 0.016488
C60   C     C_R   0.820060 0.798883 0.303137 -0.091664
C61   C     C_R   0.244079 0.033862 0.300526 -0.086622
C62   C     C_3   0.078011 0.336618 0.789446 -0.226651
C63   C     C_R   0.950449 0.174384 0.309727 -0.102596
C64   C     C_R   0.845372 0.811309 0.253891 -0.135927
C65   C     C_R   0.240703 0.045369 0.250503 -0.144103
C66   C     C_R   0.931808 0.139885 0.261336 -0.135305
C67   C     C_R   0.786402 0.840827 0.221687 0.003929
C68   C     C_R   0.187992 0.952720 0.220580 -0.002206
C69   C     C_R   0.020394 0.176072 0.228985 0.019827
C70   C     C_3   0.619058 0.918445 0.733753 0.141910
C71   C     C_3   0.154854 0.731831 0.740375 0.129652
C72   C     C_3   0.283765 0.383878 0.736283 0.133065
C73   C     C_3   0.542400 0.715437 0.743119 -0.267244
C74   C     C_R   0.705422 0.864906 0.238949 0.042911
C75   C     C_R   0.134284 0.846701 0.240682 0.040070
C76   C     C_R   0.129997 0.245122 0.245709 0.056966
C77   C     C_R   0.807654 0.846919 0.172260 -0.127997
C78   C     C_R   0.186822 0.965198 0.170669 -0.130550
C79   C     C_R   0.000966 0.145658 0.179896 -0.139359
C80   C     C_R   0.610453 0.806831 0.385196 -0.037664
C81   C     C_R   0.184378 0.807754 0.387851 -0.044070
C82   C     C_R   0.187169 0.374749 0.387934 -0.044368
C83   C     C_3   0.748449 0.838249 0.727039 -0.078184
C84   C     C_3   0.266142 0.937049 0.730416 -0.251557
C85   C     C_3   0.056888 0.837714 0.715434 -0.058680
C86   C     C_3   0.111027 0.204893 0.713235 -0.071870
C87   C     C_3   0.768832 0.848835 0.783064 -0.248390
C88   C     C_3   0.039439 0.854294 0.770165 -0.287811
C89   C     C_3   0.089555 0.169348 0.767654 -0.260428
C90   C     C_1   0.727479 0.870295 0.904162 0.008594
C91   C     C_1   0.104254 0.899447 0.894760 0.014018
C92   C     C_1   0.097687 0.202162 0.894356 0.012655
C93   C     C_3   0.629881 0.818748 0.715052 0.059273
C94   C     C_3   0.165586 0.830852 0.709532 0.052619
C95   C     C_3   0.099022 0.375755 0.735699 -0.249628
C96   C     C_3   0.169438 0.332812 0.709273 0.046689
C97   C     C_3   0.644545 0.936199 0.790362 0.477747
C98   C     C_3   0.138734 0.748882 0.796164 0.514354
C99   C     C_3   0.266526 0.347048 0.791630 0.483452
C100  C     C_3   0.668415 0.844472 0.810094 0.084973
C101  C     C_3   0.133906 0.858118 0.802370 0.076901
C102  C     C_3   0.138956 0.271499 0.801768 0.077424
C103  C     C_2   0.472510 0.961244 0.288918 0.220209
C104  C     C_2   0.958789 0.519548 0.299147 0.242703
C105  C     C_2   0.469288 0.446137 0.292800 0.233203
Cr1   Cr    Cr6+3 0.164410 0.584450 0.499910 1.076924
Cr2   Cr    Cr6+3 0.415550 0.579960 0.499910 1.083217
Cr3   Cr    Cr6+3 0.420040 0.835590 0.499910 1.084398
Cr4   Cr    Cr6+3 0.155170 0.075460 0.019960 1.043375
Cr5   Cr    Cr6+3 0.924540 0.079710 0.019960 1.037548
Cr6   Cr    Cr6+3 0.920290 0.844830 0.019960 1.033554
H1    H     H_    0.531203 0.898070 0.726995 0.104764
H2    H     H_    0.495461 0.861630 0.366507 0.193924
H3    H     H_    0.089746 0.634567 0.372989 0.200367
H4    H     H_    0.358444 0.461961 0.368120 0.195817
H5    H     H_    0.533369 0.958324 0.198504 0.105892
H6    H     H_    0.972816 0.577865 0.206944 0.107025
H7    H     H_    0.396881 0.371393 0.204398 0.103321
H8    H     H_    0.870922 0.829040 0.159125 0.135084
H9    H     H_    0.228244 0.047874 0.155864 0.131436
H10   H     H_    0.916706 0.094914 0.166613 0.118334
H11   H     H_    0.909938 0.795950 0.240812 0.131300
H12   H     H_    0.233962 0.729307 0.736530 0.097206
H13   H     H_    0.280916 0.127068 0.235096 0.130187
H14   H     H_    0.847491 0.086486 0.248992 0.133053
H15   H     H_    0.868997 0.776865 0.326501 0.177956
H16   H     H_    0.284269 0.108558 0.321853 0.191324
H17   H     H_    0.878725 0.142249 0.333143 0.181616
H18   H     H_    0.809565 0.917842 0.710416 0.149677
H19   H     H_    0.985647 0.757771 0.703393 0.170856
H20   H     H_    0.168467 0.178003 0.698382 0.176772
H21   H     H_    0.846996 0.926152 0.791570 0.072072
H22   H     H_    0.957074 0.787697 0.782199 0.127896
H23   H     H_    0.321492 0.475304 0.734435 0.103441
H24   H     H_    0.126451 0.116844 0.776214 0.083589
H25   H     H_    0.782516 0.782014 0.797375 0.167614
H26   H     H_    0.036062 0.931225 0.775681 0.093845
H27   H     H_    0.999209 0.117432 0.774980 0.139518
H28   H     H_    0.457415 0.702053 0.735816 0.098076
H29   H     H_    0.342613 0.929830 0.728606 0.108456
H30   H     H_    0.143518 0.467318 0.734963 0.121663
H31   H     H_    0.542602 0.640198 0.730171 0.177805
H32   H     H_    0.282898 0.010371 0.708460 0.198048
H33   H     H_    0.018522 0.348152 0.716595 0.206440
H34   H     H_    0.581593 0.663624 0.812337 0.140006
H35   H     H_    0.491456 0.720352 0.818384 0.181851
H36   H     H_    0.315730 0.966070 0.807279 0.185908
H37   H     H_    0.106502 0.408938 0.814134 0.187588
H38   H     H_    0.799192 0.054601 0.781050 0.348102
H39   H     H_    0.977146 0.644514 0.795589 0.355677
H40   H     H_    0.306932 0.231759 0.780727 0.331989
H41   H     H_    0.540708 0.988878 0.804029 0.341844
H42   H     H_    0.227976 0.687146 0.821658 0.351777
H43   H     H_    0.388311 0.483772 0.817472 0.336307
H44   H     H_    0.408422 0.954853 0.263967 0.110447
H45   H     H_    0.242462 0.033676 0.786838 0.115883
H46   H     H_    0.942539 0.450820 0.275476 0.114539
H47   H     H_    0.530715 0.497814 0.266115 0.114072
H48   H     H_    0.662364 0.066954 0.713046 0.351276
H49   H     H_    0.095151 0.607991 0.694865 0.319300
H50   H     H_    0.431780 0.407010 0.723963 0.350916
H51   H     H_    0.758858 0.769865 0.442555 0.109693
H52   H     H_    0.245704 0.002717 0.441869 0.107636
H53   H     H_    0.996336 0.250423 0.446912 0.114346
H54   H     H_    0.805784 0.764108 0.668634 0.115931
H55   H     H_    0.980320 0.936838 0.688161 0.080710
H56   H     H_    0.987043 0.283679 0.795286 0.164043
H57   H     H_    0.006894 0.109495 0.648352 0.141318
H58   H     H_    0.631348 0.933556 0.130713 0.114526
H59   H     H_    0.023636 0.697619 0.135984 0.120619
H60   H     H_    0.268084 0.275198 0.139225 0.133938
O1    O     O_R   0.137150 0.468200 0.553200 -0.504169
O2    O     O_R   0.140110 0.470540 0.446010 -0.490477
O3    O     O_R   0.529460 0.669570 0.446010 -0.487386
O4    O     O_R   0.330430 0.859890 0.446010 -0.480802
O5    O     O_R   0.176710 0.690910 0.450560 -0.498075
O6    O     O_R   0.309090 0.485800 0.450560 -0.493584
O7    O     O_R   0.514200 0.823290 0.450560 -0.493578
O8    O     O_3   0.333333 0.666667 0.499990 -0.295820
O9    O     O_R   0.176750 0.985260 0.074180 -0.523010
O10   O     O_R   0.014740 0.191490 0.074180 -0.478628
O11   O     O_R   0.808510 0.823250 0.074180 -0.507467
O12   O     O_R   0.531800 0.668950 0.553200 -0.500190
O13   O     O_R   0.146100 0.172630 0.068980 -0.484766
O14   O     O_R   0.827370 0.973470 0.068980 -0.517489
O15   O     O_R   0.026530 0.853900 0.068980 -0.490099
O16   O     O_3   0.000000 0.000000 0.020040 -0.299507
O17   O     O_R   0.148270 0.170520 0.969620 -0.477478
O18   O     O_R   0.829480 0.977750 0.969620 -0.512518
O19   O     O_R   0.022250 0.851730 0.969620 -0.469317
O20   O     O_3   0.734689 0.041895 0.801112 -0.661842
O21   O     O_3   0.042489 0.658437 0.815664 -0.631554
O22   O     O_3   0.325539 0.292034 0.804378 -0.658732
O23   O     O_R   0.331050 0.862850 0.553200 -0.496039
O24   O     O_3   0.550206 0.925942 0.814395 -0.672334
O25   O     O_3   0.230985 0.759594 0.822731 -0.669249
O26   O     O_3   0.306359 0.441392 0.821361 -0.688710
O27   O     O_2   0.484320 0.007687 0.328016 -0.439552
O28   O     O_2   0.916367 0.500340 0.339490 -0.424115
O29   O     O_2   0.500999 0.437560 0.333360 -0.437672
O30   O     O_3   0.688514 0.013516 0.706902 -0.660838
O31   O     O_3   0.066665 0.631587 0.722889 -0.711163
O32   O     O_3   0.355385 0.355076 0.712241 -0.707824
O33   O     O_2   0.761158 0.666950 0.393148 -0.440760
O34   O     O_R   0.179100 0.982980 0.967000 -0.484342
O35   O     O_2   0.365432 0.090823 0.394575 -0.424513
O36   O     O_2   0.900761 0.267271 0.397186 -0.444777
O37   O     O_2   0.740914 0.663364 0.725136 -0.505118
O38   O     O_2   0.123409 0.981524 0.655347 -0.522854
O39   O     O_2   0.921101 0.146910 0.695061 -0.483004
O40   O     O_R   0.017020 0.196120 0.967000 -0.467829
O41   O     O_R   0.803880 0.820900 0.967000 -0.509643
O42   O     O_R   0.173970 0.688730 0.549930 -0.499704
O43   O     O_R   0.311270 0.485240 0.549930 -0.489367
O44   O     O_R   0.514760 0.826030 0.549930 -0.491078

loop_
_geom_bond_atom_site_label_1
_geom_bond_atom_site_label_2
_ccdc_geom_bond_type
C35   O6    A    
C71   O31   S    
C83   C87   S    
Cr5   O14   S    
C36   O3    A    
C89   H24   S    
C89   C102  S    
C32   C45   A    
C97   O20   S    
C95   C96   S    
C67   C77   A    
C24   C27   A    
C73   C93   S    
C104  H46   S    
H42   O25   S    
C45   H59   S    
C9    C91   T    
C32   C75   A    
C88   C101  S    
C20   O9    A    
C71   C94   S    
C54   C60   A    
C40   C73   S    
C25   C28   A    
C79   H10   S    
C46   C49   A    
C33   C39   A    
C40   H34   S    
C4    C52   S    
C71   H12   S    
C88   H22   S    
C83   H18   S    
C50   C80   A    
H49   O31   S    
C11   C14   T    
C19   C47   S    
C86   H20   S    
H48   O30   S    
C66   C69   A    
C72   C99   S    
C83   C93   S    
Cr3   O4    S    
C46   H60   S    
C69   C76   A    
C43   C105  S    
C65   H13   S    
C48   C78   A    
C2    C90   T    
C56   C59   A    
C26   H4    S    
C34   O4    A    
C8    H57   S    
C3    H51   S    
C44   H58   S    
C38   H6    S    
C3    O33   D    
C35   C82   S    
C105  O29   D    
Cr5   O40   S    
Cr5   O10   S    
C22   O41   A    
C1    C15   S    
C34   C81   S    
C32   C38   A    
C6    O37   D    
C63   H17   S    
C52   C55   A    
C11   C93   S    
C70   O30   S    
C62   H56   S    
C6    H54   S    
C10   C92   T    
C24   H2    S    
C26   C82   A    
C9    C101  S    
C62   H37   S    
C62   C95   S    
Cr2   O6    S    
C25   C81   A    
C33   C46   A    
C12   C94   S    
C18   O43   A    
C8    O39   D    
C19   O11   A    
C7    O38   D    
C3    C50   S    
C24   C80   A    
C58   C75   A    
C73   H31   S    
Cr4   O17   S    
C68   C78   A    
Cr5   O16   S    
C71   C98   S    
C51   H45   S    
H38   O20   S    
C31   C44   A    
C13   C96   S    
C98   O25   S    
C35   O2    A    
C5    H53   S    
C10   C102  S    
C70   C93   S    
C36   O7    A    
C98   O21   S    
C36   C80   S    
C17   C49   S    
C37   H5    S    
H43   O26   S    
C31   C74   A    
C39   C43   A    
C73   H28   S    
C84   H32   S    
C20   O15   A    
Cr6   O11   S    
Cr4   O16   S    
C41   C103  S    
Cr3   O8    S    
C31   C37   A    
C53   C82   A    
C68   C75   A    
C103  O27   D    
C57   C74   A    
C78   H9    S    
C64   C67   A    
C34   O5    A    
C17   O10   A    
C85   H19   S    
C5    O36   D    
C85   C94   S    
C27   C41   A    
C33   C76   A    
C72   H23   S    
C105  H47   S    
C2    C100  S    
C12   C15   T    
C51   H36   S    
C65   C68   A    
C30   C59   A    
C99   O26   S    
C22   C90   S    
C56   C63   A    
Cr3   O7    S    
C61   H16   S    
C67   C74   A    
C84   C94   S    
C22   O18   A    
Cr4   O34   S    
C20   C48   S    
C86   C96   S    
C72   O32   S    
Cr4   O13   S    
C103  H44   S    
C7    H55   S    
C87   H21   S    
C95   H30   S    
C28   C58   A    
C27   C57   A    
C104  O28   D    
C23   C91   S    
C30   C43   A    
C69   C79   A    
C47   C77   A    
C14   C29   S    
Cr3   O23   S    
C98   C101  S    
Cr1   O8    S    
C97   C100  S    
C49   C79   A    
C4    H52   S    
C85   C88   S    
C21   O17   A    
C87   C100  S    
C45   C48   A    
C5    C53   S    
Cr1   O42   S    
Cr6   O15   S    
C6    C83   S    
C29   O12   A    
H41   O24   S    
Cr2   O8    S    
Cr1   O1    S    
C87   H25   S    
H50   O32   S    
C51   C84   S    
C77   H8    S    
C86   C89   S    
C42   C104  S    
C40   C100  S    
C44   C47   A    
C26   C30   A    
Cr2   O3    S    
C18   O1    A    
C51   C101  S    
C39   H7    S    
C99   O22   S    
Cr6   O41   S    
Cr6   O16   S    
C66   H14   S    
C40   H35   S    
C60   C64   A    
H40   O22   S    
C60   H15   S    
C1    O23   A    
C13   C16   T    
C50   C54   A    
C25   H3    S    
C19   O14   A    
C1    O42   A    
Cr4   O9    S    
C97   O24   S    
C7    C85   S    
Cr2   O43   S    
C17   O13   A    
C55   C61   A    
C28   C42   A    
Cr1   O2    S    
C8    C86   S    
C64   H11   S    
C61   C65   A    
C37   C41   A    
C52   C81   A    
C70   H1    S    
C53   C56   A    
C88   H26   S    
C63   C66   A    
Cr3   O44   S    
C29   O44   A    
H39   O21   S    
C4    O35   D    
C72   C96   S    
C38   C42   A    
C21   O40   A    
C95   H33   S    
C99   C102  S    
C84   H29   S    
Cr6   O19   S    
C16   C18   S    
C89   H27   S    
C55   C58   A    
Cr2   O12   S    
C70   C97   S    
Cr1   O5    S    
Cr5   O18   S    
C59   C76   A    
C21   C92   S    
C23   O19   A    
C23   O34   A    
C62   C102  S    
C54   C57   A    
