data_mof_unit_10325.cif
_audit_creation_date              2012-12-11T15:23:37-0500
_audit_creation_method            fapswitch 2.2
_symmetry_space_group_name_H-M    P1
_symmetry_Int_Tables_number       1
_space_group_crystal_system       triclinic
_cell_length_a                    6.93351
_cell_length_b                    17.440921
_cell_length_c                    19.358041
_cell_angle_alpha                 109.440039
_cell_angle_beta                  90.38406
_cell_angle_gamma                 90.569369
_cell_volume                      2207.2182494

loop_
_atom_site_label
_atom_site_type_symbol
_atom_type_description
_atom_site_fract_x
_atom_site_fract_y
_atom_site_fract_z
_atom_type_partial_charge
O1    O     O_R   0.505810 0.439670 0.562310 -0.535634
O2    O     O_R   0.169070 0.404920 0.411210 -0.535594
O3    O     O_R   0.005550 0.560330 0.437690 -0.541273
C1    C     C_R   0.338199 0.381325 0.383152 0.673679
O4    O     O_R   0.175650 0.430000 0.560110 -0.540720
O5    O     O_R   0.012170 0.585580 0.587650 -0.533684
C2    C     C_R   0.344932 0.413854 0.580568 0.712305
O6    O     O_R   0.499180 0.414420 0.412350 -0.540861
O7    O     O_3   0.341430 0.551020 0.508860 -0.370374
V1    V     V_3+5 0.063930 0.490540 0.498360 1.425019
O8    O     O_R   0.682850 0.595080 0.588790 -0.543889
C3    C     C_R   0.853348 0.619235 0.615915 0.694698
O9    O     O_R   0.676280 0.570000 0.439890 -0.543403
C4    C     C_R   0.845163 0.586941 0.419824 0.707215
V2    V     V_3+5 0.564760 0.509460 0.501640 1.410405
O10   O     O_3   0.837130 0.448980 0.491140 -0.367237
C5    C     C_R   0.057641 0.875271 0.186482 -0.286068
C6    C     C_R   0.913457 0.866772 0.132754 -0.173445
C7    C     C_R   0.757454 0.812119 0.127663 0.381268
C8    C     C_R   0.732339 0.776049 0.182724 -0.016158
C9    C     C_R   0.881584 0.782501 0.234341 0.000537
C10   C     C_R   0.045463 0.831670 0.235812 0.091391
C11   C     C_R   0.563947 0.731540 0.185755 -0.186694
C12   C     C_R   0.551059 0.687974 0.234402 -0.194817
C13   C     C_R   0.704640 0.689046 0.282050 0.097956
C14   C     C_R   0.869642 0.737404 0.282959 0.078371
C15   C     C_R   0.024496 0.739146 0.331153 0.082739
C16   C     C_R   0.184694 0.789848 0.333432 -0.200209
C17   C     C_R   0.194167 0.836323 0.286745 -0.160535
C18   C     C_R   0.696630 0.641751 0.328066 -0.224491
C19   C     C_R   0.853835 0.639979 0.373746 -0.083285
C20   C     C_R   0.017001 0.689483 0.375464 -0.231966
H1    H     H_    0.180355 0.915297 0.189404 0.148740
H2    H     H_    0.442672 0.729117 0.149469 0.157904
H3    H     H_    0.421728 0.652383 0.233927 0.134603
H4    H     H_    0.569828 0.604341 0.326699 0.125266
H5    H     H_    0.137341 0.689756 0.411601 0.127612
H6    H     H_    0.304028 0.792680 0.370634 0.136808
H7    H     H_    0.320384 0.874280 0.289126 0.125603
C21   C     C_3   0.845597 0.820965 0.737717 -0.100496
C22   C     C_3   0.010246 0.762733 0.700150 -0.170303
H8    H     H_    0.112173 0.772460 0.659775 0.122915
H9    H     H_    0.817567 0.878300 0.727042 0.135258
C23   C     C_3   0.869565 0.689789 0.685733 -0.097231
C24   C     C_3   0.704512 0.747208 0.722194 -0.120309
C25   C     C_3   0.762451 0.738678 0.796435 -0.030365
C26   C     C_3   0.926479 0.681478 0.759485 -0.026443
C27   C     C_3   0.067649 0.754621 0.775015 -0.091578
C28   C     C_3   0.901984 0.811929 0.812010 -0.049334
H10   H     H_    0.554870 0.744475 0.700599 0.129798
H11   H     H_    0.217292 0.757422 0.796291 0.181052
C29   C     C_3   0.552362 0.268558 0.287334 -0.160300
C30   C     C_3   0.452528 0.183300 0.264892 -0.230372
H12   H     H_    0.508953 0.129731 0.276982 0.110323
H13   H     H_    0.691688 0.284452 0.317668 0.154563
C31   C     C_3   0.414787 0.188503 0.188003 -0.045641
C32   C     C_3   0.514733 0.272506 0.209505 -0.110058
C33   C     C_3   0.318673 0.314200 0.235544 -0.203682
C34   C     C_3   0.218207 0.229478 0.213351 -0.122592
C35   C     C_3   0.259254 0.226039 0.290550 0.456287
C36   C     C_3   0.355585 0.310186 0.312894 -0.100071
H14   H     H_    0.623837 0.291567 0.176667 0.116026
H15   H     H_    0.262132 0.367431 0.222924 0.118346
H16   H     H_    0.078240 0.213390 0.183494 0.116569
C37   C     C_R   0.501124 0.103628 0.797597 -0.074177
C38   C     C_R   0.414717 0.133185 0.867648 -0.195665
C39   C     C_R   0.313390 0.207118 0.888396 0.296379
C40   C     C_R   0.310010 0.254634 0.841581 0.032447
C41   C     C_R   0.393695 0.224753 0.771295 -0.011217
C42   C     C_R   0.488875 0.149233 0.748934 -0.028936
C43   C     C_R   0.223965 0.331806 0.863808 -0.174299
C44   C     C_R   0.209327 0.376288 0.816076 -0.196777
C45   C     C_R   0.285846 0.346215 0.745638 0.128326
C46   C     C_R   0.381740 0.270886 0.723231 0.024949
C47   C     C_R   0.463923 0.241753 0.652665 0.029309
C48   C     C_R   0.548908 0.164443 0.628707 0.399772
C49   C     C_R   0.565086 0.120241 0.677489 -0.262769
C50   C     C_R   0.269093 0.390809 0.697551 -0.205061
C51   C     C_R   0.355826 0.363856 0.628769 -0.105324
C52   C     C_R   0.455525 0.290073 0.606900 -0.200195
H17   H     H_    0.165534 0.358176 0.918154 0.154487
H18   H     H_    0.138542 0.434661 0.834518 0.148915
H19   H     H_    0.192205 0.447557 0.714093 0.159809
H20   H     H_    0.520659 0.269453 0.553182 0.148970
H21   H     H_    0.636984 0.062543 0.658151 0.123119
O11   O     O_R   0.271890 0.085690 0.087580 -0.548691
O12   O     O_R   0.595690 0.070020 0.939870 -0.556090
O13   O     O_R   0.758900 0.914390 0.912370 -0.495596
C53   C     C_R   0.426242 0.086134 0.919135 0.821870
O14   O     O_R   0.602020 0.095100 0.088770 -0.551923
O15   O     O_R   0.765280 0.939660 0.062330 -0.515395
C54   C     C_R   0.432820 0.118678 0.116859 0.677751
O16   O     O_R   0.265520 0.060430 0.937620 -0.543390
O17   O     O_3   0.429560 0.949050 0.991100 -0.324752
V3    V     V_3+5 0.707160 0.009450 0.001650 1.498782
O18   O     O_R   0.094540 0.929890 0.060190 -0.545905
C55   C     C_R   0.925616 0.914681 0.081863 0.751334
O19   O     O_R   0.088200 0.904800 0.911290 -0.536382
C56   C     C_R   0.917950 0.881718 0.883023 0.727901
V4    V     V_3+5 0.206300 0.990390 0.998440 1.516926
O20   O     O_3   0.934030 0.050940 0.008900 -0.401589
C57   C     C_2   0.615265 0.721377 0.845528 0.332708
H22   H     H_    0.586728 0.659138 0.842591 0.049547
O21   O     O_2   0.520083 0.776211 0.886115 -0.502325
C58   C     C_2   0.976043 0.603234 0.770596 0.300271
H23   H     H_    0.869844 0.554372 0.758706 0.032225
O22   O     O_2   0.136477 0.594115 0.792677 -0.551740
O23   O     O_3   0.641575 0.789562 0.065156 -0.558045
C59   C     C_3   0.677977 0.707499 0.021740 0.088755
H24   H     H_    0.569949 0.689415 0.976595 0.166048
H25   H     H_    0.654002 0.664492 0.052182 0.110940
C60   C     C_3   0.881581 0.695345 0.988696 -0.334387
H26   H     H_    0.899759 0.731469 0.951503 0.195695
H27   H     H_    0.993170 0.715895 0.032593 0.191309
C61   C     C_3   0.916807 0.605638 0.947032 -0.806244
H28   H     H_    0.900856 0.569211 0.984109 0.220819
H29   H     H_    0.065971 0.597998 0.925666 0.266035
H30   H     H_    0.812893 0.582391 0.900689 0.221534
O24   O     O_3   0.112905 0.199812 0.328193 -0.579074
C62   C     C_3   0.182502 0.200578 0.397037 0.061425
H31   H     H_    0.214487 0.263835 0.432994 0.116887
H32   H     H_    0.315187 0.163564 0.391366 0.100821
C63   C     C_3   0.027669 0.164464 0.433385 -0.276983
H33   H     H_    0.886864 0.193766 0.431563 0.210015
H34   H     H_    0.012024 0.098316 0.402797 0.182462
C64   C     C_3   0.080432 0.177139 0.513067 -0.817158
H35   H     H_    0.228287 0.155670 0.517061 0.220388
H36   H     H_    0.980866 0.142217 0.536045 0.266705
H37   H     H_    0.070668 0.242522 0.546244 0.244821
C65   C     C_2   0.598433 0.023754 0.774497 0.335985
H38   H     H_    0.736156 0.016673 0.747026 0.021451
O25   O     O_2   0.523348 0.964958 0.784904 -0.540417
O26   O     O_3   0.234830 0.236483 0.957852 -0.581620
C66   C     C_3   0.031685 0.226021 0.953232 0.075775
H39   H     H_    0.992889 0.162815 0.949158 0.154331
H40   H     H_    0.967162 0.237701 0.904791 0.107890
C67   C     C_3   0.943324 0.284994 0.022575 -0.319188
H41   H     H_    0.993861 0.270028 0.071161 0.191216
H42   H     H_    0.992063 0.347958 0.029153 0.194527
C68   C     C_3   0.723346 0.281646 0.019258 -0.800386
H43   H     H_    0.669762 0.291968 0.968905 0.238431
H44   H     H_    0.664879 0.329896 0.067423 0.222290
H45   H     H_    0.670181 0.221844 0.020177 0.236016
O27   O     O_3   0.628104 0.135388 0.559157 -0.585224
C69   C     C_3   0.550510 0.058068 0.517373 0.046125
H46   H     H_    0.486774 0.063505 0.466415 0.134230
H47   H     H_    0.432250 0.035556 0.544841 0.114483
C70   C     C_3   0.711892 0.995436 0.495534 -0.300259
H48   H     H_    0.821876 0.015552 0.463590 0.198845
H49   H     H_    0.783103 0.990401 0.545362 0.186387
C71   C     C_3   0.634756 0.911829 0.448810 -0.830627
H50   H     H_    0.525250 0.889576 0.479501 0.226268
H51   H     H_    0.755052 0.867945 0.434428 0.241215
H52   H     H_    0.568936 0.914849 0.397330 0.227744

loop_
_geom_bond_atom_site_label_1
_geom_bond_atom_site_label_2
_ccdc_geom_bond_type
C9    C14   A    
C64   H35   S    
C10   C17   A    
C45   C46   A    
C58   H23   S    
O2    C1    A    
C7    C8    A    
C70   C71   S    
C4    C19   S    
C1    O6    A    
C66   C67   S    
C60   H27   S    
C37   C65   S    
C63   H33   S    
C30   H12   S    
C31   C32   S    
C58   O22   D    
C25   C28   S    
C34   H16   S    
C16   C17   A    
C39   O26   S    
C68   H44   S    
C29   C36   S    
C59   H25   S    
O5    C3    A    
C18   C19   A    
C63   H34   S    
C37   C42   A    
C33   H15   S    
O23   C59   S    
C35   O24   S    
C6    C7    A    
C22   H8    S    
C71   H52   S    
O8    V2    S    
C50   H19   S    
C27   H11   S    
O17   V3    S    
C19   C20   A    
C40   C41   A    
C61   H29   S    
O12   V3    S    
C71   H50   S    
C68   H45   S    
O1    V2    S    
C6    C55   S    
C16   H6    S    
O11   V4    S    
O7    V1    S    
C23   C26   S    
C52   H20   S    
C7    O23   S    
C11   H2    S    
C33   C36   S    
C38   C39   A    
O13   V3    S    
C49   H21   S    
C34   C35   S    
O9    C4    A    
C42   C49   A    
C53   O16   A    
C41   C42   A    
C5    H1    S    
C60   H26   S    
C69   H47   S    
C30   C35   S    
C62   H32   S    
C69   H46   S    
C38   C53   S    
C21   H9    S    
C68   H43   S    
C21   C24   S    
C67   C68   S    
C12   H3    S    
C46   C47   A    
C39   C40   A    
O14   V3    S    
C12   C13   A    
C59   C60   S    
O4    C2    A    
C50   C51   A    
C44   C45   A    
C63   C64   S    
C66   H40   S    
C64   H37   S    
C26   C58   S    
C13   C14   A    
C24   C25   S    
C1    C36   S    
O15   C55   A    
C35   C36   S    
C62   C63   S    
C65   O25   D    
C47   C48   A    
C28   C56   S    
C67   H42   S    
O14   C54   A    
C26   C27   S    
C8    C11   A    
O17   V4    S    
C45   C50   A    
C61   H30   S    
O18   C55   A    
C17   H7    S    
C5    C6    A    
C14   C15   A    
C41   C46   A    
C20   H5    S    
C48   C49   A    
C57   O21   D    
O16   V4    S    
O3    C4    A    
C48   O27   S    
C21   C22   S    
O19   C56   A    
O6    V2    S    
O19   V4    S    
O12   C53   A    
O26   C66   S    
C22   C23   S    
C32   H14   S    
O2    V1    S    
C69   C70   S    
C23   C24   S    
C2    C51   S    
C47   C52   A    
C30   C31   S    
C13   C18   A    
C25   C26   S    
C27   C28   S    
C64   H36   S    
C15   C20   A    
O1    C2    A    
C70   H49   S    
O27   C69   S    
O5    V1    S    
O24   C62   S    
C29   H13   S    
C66   H39   S    
C43   H17   S    
C67   H41   S    
C5    C10   A    
C31   C34   S    
C18   H4    S    
O9    V2    S    
C65   H38   S    
C33   C34   S    
O4    V1    S    
C3    C23   S    
O3    V1    S    
V1    O10   S    
C59   H24   S    
C32   C33   S    
C24   H10   S    
C40   C43   A    
V2    O10   S    
O18   V4    S    
V4    O20   S    
C22   C27   S    
C70   H48   S    
C71   H51   S    
O7    V2    S    
C57   H22   S    
O13   C56   A    
C29   C32   S    
C11   C12   A    
O15   V3    S    
C51   C52   A    
V3    O20   S    
C31   C54   S    
C43   C44   A    
C8    C9    A    
C37   C38   A    
C15   C16   A    
C62   H31   S    
O11   C54   A    
C61   H28   S    
C9    C10   A    
C60   C61   S    
C44   H18   S    
C21   C28   S    
O8    C3    A    
C29   C30   S    
C25   C57   S    
