data_mof_unit_30497.cif
_audit_creation_date              2013-03-05T15:47:08-0500
_audit_creation_method            fapswitch 2.2
_symmetry_space_group_name_H-M    P1
_symmetry_Int_Tables_number       1
_space_group_crystal_system       triclinic
_cell_length_a                    10.181928
_cell_length_b                    10.860472
_cell_length_c                    13.500054
_cell_angle_alpha                 91.852917
_cell_angle_beta                  99.16156
_cell_angle_gamma                 97.191887
_cell_volume                      1460.12105461

loop_
_atom_site_label
_atom_site_type_symbol
_atom_site_description
_atom_site_fract_x
_atom_site_fract_y
_atom_site_fract_z
_atom_type_partial_charge
O1    O     O_R   0.935190 0.693030 0.507870 -0.611535
O2    O     O_R   0.064810 0.306970 0.492130 -0.611490
O3    O     O_R   0.142080 0.658430 0.482770 -0.551281
O4    O     O_R   0.857920 0.341570 0.517230 -0.551322
C1    C     C_R   0.054827 0.732599 0.492873 0.850880
C2    C     C_R   0.945175 0.267405 0.507132 0.850913
O5    O     O_R   0.969700 0.527180 0.651960 -0.533835
O6    O     O_R   0.030300 0.472820 0.348040 -0.533821
O7    O     O_R   0.176600 0.492580 0.626860 -0.633498
O8    O     O_R   0.823400 0.507420 0.373140 -0.633485
C3    C     C_R   0.093289 0.516615 0.686153 0.914107
C4    C     C_R   0.906712 0.483387 0.313846 0.914162
Zn1   Zn    Zn3+2 0.861850 0.523100 0.516760 1.080818
Zn2   Zn    Zn3+2 0.138150 0.476900 0.483240 1.080835
C5    C     C_R   0.143395 0.533684 0.794114 -0.174429
C6    C     C_R   0.856613 0.466338 0.205882 -0.174430
C7    C     C_R   0.142761 0.611915 0.963847 -0.188465
C8    C     C_R   0.857300 0.388200 0.036133 -0.188399
C9    C     C_R   0.082579 0.598958 0.862745 0.297659
C10   C     C_R   0.917461 0.401118 0.137240 0.297674
C11   C     C_R   0.262109 0.486224 0.827494 -0.236472
C12   C     C_R   0.737889 0.513781 0.172507 -0.236468
C13   C     C_R   0.334405 0.517063 0.923457 0.100415
C14   C     C_R   0.665608 0.482965 0.076534 0.100403
C15   C     C_R   0.270471 0.575541 0.994714 0.000084
C16   C     C_R   0.729564 0.424526 0.005268 0.000102
C17   C     C_R   0.467901 0.489707 0.949619 0.032956
C18   C     C_R   0.532110 0.510317 0.050375 0.032976
C19   C     C_R   0.459949 0.554947 0.122587 -0.231217
C20   C     C_R   0.540062 0.445090 0.877403 -0.231302
C21   C     C_R   0.334147 0.593042 0.095296 0.351473
C22   C     C_R   0.665884 0.407024 0.904682 0.351420
H1    H     H_    0.498785 0.562523 0.201835 0.173960
H2    H     H_    0.501211 0.437521 0.798158 0.174018
C23   C     C_2   0.091247 0.865922 0.492036 0.130737
C24   C     C_2   0.908745 0.134092 0.507978 0.130862
C25   C     C_2   0.989833 0.934584 0.485544 -0.178397
C26   C     C_2   0.010153 0.065422 0.514560 -0.178426
N1    N     N_2   0.322180 0.446120 0.460900 -0.153359
N2    N     N_2   0.677820 0.553880 0.539100 -0.153337
C27   C     C_2   0.430905 0.511615 0.508228 -0.066768
C28   C     C_2   0.569095 0.488385 0.491772 -0.066728
N3    N     N_R   0.272801 0.648402 0.171406 0.198779
O9    O     O_R   0.274142 0.598487 0.257827 -0.362087
O10   O     O_R   0.240533 0.760162 0.162260 -0.342070
N4    N     N_R   0.727242 0.351715 0.828548 0.198862
O11   O     O_R   0.725629 0.401522 0.742064 -0.362177
O12   O     O_R   0.759848 0.240073 0.837770 -0.342256
H3    H     H_    0.703001 0.575128 0.223872 0.173944
H4    H     H_    0.296979 0.424847 0.776139 0.173938
N5    N     N_R   0.035157 0.342774 0.168562 0.233167
O13   O     O_R   0.035801 0.264953 0.239883 -0.339829
O14   O     O_R   0.127558 0.344837 0.112025 -0.373511
N6    N     N_R   0.964893 0.657315 0.831416 0.233127
O15   O     O_R   0.964248 0.735098 0.760067 -0.339936
O16   O     O_R   0.872508 0.655301 0.887965 -0.373513
H5    H     H_    0.091440 0.655913 0.016600 0.219101
H6    H     H_    0.908672 0.344274 0.983377 0.219154
H7    H     H_    0.112894 0.109620 0.536184 0.211172
H8    H     H_    0.887082 0.890379 0.463988 0.211242
N7    N     N_R   0.769745 0.080625 0.494081 0.227879
O17   O     O_R   0.679163 0.133328 0.437767 -0.326013
O18   O     O_R   0.731224 0.991541 0.549465 -0.303158
N8    N     N_R   0.230242 0.919402 0.505797 0.227930
O19   O     O_R   0.320958 0.866602 0.561895 -0.325933
O20   O     O_R   0.268604 0.008599 0.450457 -0.303182
H9    H     H_    0.578257 0.414311 0.438406 0.187399
H10   H     H_    0.421743 0.585688 0.561594 0.187407
H11   H     H_    0.665103 0.623254 0.589268 0.221280
H12   H     H_    0.334897 0.376746 0.410732 0.221295

loop_
_geom_bond_atom_site_label_1
_geom_bond_atom_site_label_2
_geom_bond_distance
_ccdc_geom_bond_type
C15   C21   1.404412 A    
N6    O15   1.301325 A    
O5    C3    1.290097 A    
O7    Zn2   1.913573 S    
C2    C24   1.449799 S    
C16   C22   1.404478 A    
C23   N8    1.441608 S    
C13   C17   1.419709 A    
C27   H10   1.085196 S    
N3    O10   1.301166 A    
C27   C28   1.509158 S    
C1    C23   1.449875 S    
N7    O17   1.301251 A    
C8    C16   1.409736 A    
O6    C4    1.290097 A    
N3    O9    1.301107 A    
C7    C15   1.409710 A    
N8    O19   1.301333 A    
C12   C14   1.392463 A    
N2    C28   1.299197 D    
C3    C5    1.463204 S    
N5    O13   1.301322 A    
C19   C21   1.392808 A    
C6    C10   1.412278 A    
C17   C20   1.418378 A    
C20   C22   1.392835 A    
O7    C3    1.298689 A    
O2    C2    1.289418 A    
O3    Zn2   1.967128 S    
C21   N3    1.437302 S    
O6    Zn2   1.970674 S    
C12   H3    1.076457 S    
O1    C1    1.289422 A    
O8    C4    1.298694 A    
C9    N6    1.436136 S    
C24   C26   1.340930 D    
C18   C19   1.418399 A    
C23   C25   1.340972 D    
C25   C26   1.442210 S    
C14   C16   1.419869 A    
C10   N5    1.436136 S    
C8    C10   1.399232 A    
C11   C13   1.392454 A    
C28   H9    1.085196 S    
O2    Zn2   1.917231 S    
N6    O16   1.301045 A    
C5    C11   1.388295 A    
C25   H8    1.085336 S    
O1    Zn1   1.917231 S    
N2    H11   1.030762 S    
C20   H2    1.076643 S    
N5    O14   1.301030 A    
C24   N7    1.441537 S    
N4    O12   1.301239 A    
C19   H1    1.076642 S    
O5    Zn1   1.970674 S    
C13   C15   1.419831 A    
C14   C18   1.419712 A    
N1    C27   1.299196 D    
O4    C2    1.291239 A    
C17   C18   1.410030 A    
N7    O18   1.301573 A    
N4    O11   1.301149 A    
C11   H4    1.076470 S    
Zn1   N2    2.010976 S    
C6    C12   1.388285 A    
C4    C6    1.463217 S    
C7    C9    1.399231 A    
Zn2   N1    2.010976 S    
C5    C9    1.412288 A    
C22   N4    1.437369 S    
N1    H12   1.030761 S    
C26   H7    1.085329 S    
O4    Zn1   1.967128 S    
C7    H5    1.080554 S    
C8    H6    1.080535 S    
O3    C1    1.291271 A    
O8    Zn1   1.913572 S    
N8    O20   1.301588 A    
