data_mof_unit_57587.cif
_audit_creation_date              2012-10-26T20:02:32-0400
_audit_creation_method            fapswitch 2.2
_symmetry_space_group_name_H-M    P1
_symmetry_Int_Tables_number       1
_space_group_crystal_system       triclinic
_cell_length_a                    19.054778
_cell_length_b                    18.453438
_cell_length_c                    12.384693
_cell_angle_alpha                 89.399546
_cell_angle_beta                  129.765581
_cell_angle_gamma                 90.603511
_cell_volume                      3347.15590791

loop_
_atom_site_label
_atom_site_type_symbol
_atom_type_description
_atom_site_fract_x
_atom_site_fract_y
_atom_site_fract_z
_atom_type_partial_charge
C1    C     C_R   0.614265 0.898999 0.655099 0.617618
C2    C     C_R   0.772686 0.799765 0.140378 0.023258
C3    C     C_R   0.159799 0.778661 0.003105 -0.007078
C4    C     C_R   0.272943 0.299863 0.140559 0.023252
C5    C     C_R   0.585442 0.259939 0.864473 -0.032596
C6    C     C_R   0.763214 0.871361 0.094886 -0.043192
C7    C     C_R   0.085485 0.759395 0.865324 -0.032659
C8    C     C_R   0.263496 0.371450 0.095024 -0.043224
C9    C     C_R   0.599549 0.225593 0.780563 0.239812
C10   C     C_R   0.743903 0.886046 0.967801 0.222021
C11   C     C_R   0.099474 0.725294 0.781075 0.239959
C12   C     C_R   0.618114 0.097672 0.660250 0.642228
C13   C     C_R   0.244059 0.386098 0.967831 0.221949
C14   C     C_R   0.321122 0.805581 0.166358 -0.118205
C15   C     C_R   0.304159 0.174679 0.130142 -0.147330
C16   C     C_R   0.821086 0.305505 0.166481 -0.118304
C17   C     C_R   0.804138 0.674638 0.130099 -0.147273
C18   C     C_R   0.222096 0.855108 0.206234 0.102465
C19   C     C_R   0.299613 0.212118 0.311846 0.150846
C20   C     C_R   0.721840 0.355641 0.205401 0.102306
C21   C     C_R   0.799334 0.711982 0.311583 0.150805
C22   C     C_R   0.695903 0.145735 0.765559 -0.002473
C23   C     C_R   0.114265 0.399001 0.655099 0.617614
C24   C     C_R   0.677466 0.837057 0.734590 -0.005136
C25   C     C_R   0.195856 0.645796 0.765478 -0.002522
C26   C     C_R   0.177454 0.337054 0.734574 -0.005104
C27   C     C_R   0.683329 0.017472 0.286921 -0.076018
C28   C     C_R   0.183339 0.517405 0.286928 -0.075835
C29   C     C_R   0.343344 0.991403 0.625231 0.132063
C30   C     C_R   0.843342 0.491418 0.625230 0.132011
C31   C     C_R   0.308353 0.984159 0.695209 0.255396
C32   C     C_R   0.808348 0.484204 0.695208 0.255373
C33   C     C_R   0.383767 0.098959 0.341467 0.587839
C34   C     C_R   0.118106 0.597683 0.660235 0.642204
C35   C     C_R   0.382911 0.901821 0.341128 0.564799
C36   C     C_R   0.883746 0.598940 0.341443 0.587799
C37   C     C_R   0.882898 0.401837 0.341101 0.564802
C38   C     C_R   0.366695 0.987754 0.841603 -0.085317
C39   C     C_R   0.866691 0.487805 0.841601 -0.085304
C40   C     C_R   0.461021 0.999057 0.919890 -0.021977
C41   C     C_R   0.961021 0.499083 0.919889 -0.021987
C42   C     C_R   0.493610 0.003900 0.843043 0.167360
C43   C     C_R   0.993613 0.503901 0.843043 0.167383
C44   C     C_R   0.524850 0.003655 0.071268 0.011755
C45   C     C_R   0.249231 0.764458 0.053266 0.004831
C46   C     C_R   0.024850 0.503672 0.071267 0.011701
C47   C     C_R   0.618542 0.015109 0.140244 0.046242
C48   C     C_R   0.118550 0.515083 0.140248 0.046223
C49   C     C_R   0.647838 0.021534 0.062906 -0.151284
C50   C     C_R   0.147849 0.521494 0.062913 -0.151209
C51   C     C_R   0.587286 0.011986 0.918925 -0.074347
C52   C     C_R   0.087293 0.511964 0.918926 -0.074377
C53   C     C_R   0.500832 0.997769 0.158642 0.056581
C54   C     C_R   0.000828 0.497812 0.158639 0.056548
C55   C     C_R   0.655790 0.007692 0.366069 0.130740
C56   C     C_R   0.282662 0.244481 0.072266 -0.002331
C57   C     C_R   0.155797 0.507610 0.366069 0.130864
C58   C     C_R   0.646819 0.319892 0.084433 0.244540
C59   C     C_R   0.775916 0.782515 0.254945 0.265259
C60   C     C_R   0.147088 0.819199 0.085511 0.244610
C61   C     C_R   0.276289 0.282663 0.255255 0.265348
C62   C     C_R   0.308308 0.851534 0.240911 0.005158
C63   C     C_R   0.324184 0.160990 0.258060 0.034273
C64   C     C_R   0.808204 0.351658 0.240719 0.005107
C65   C     C_R   0.824096 0.660926 0.257960 0.034166
C66   C     C_R   0.784724 0.128542 0.817062 0.263099
C67   C     C_R   0.749123 0.264566 0.053070 0.004823
C68   C     C_R   0.684442 0.782511 0.662031 0.231995
C69   C     C_R   0.284668 0.628808 0.816642 0.263198
C70   C     C_R   0.184352 0.282481 0.661971 0.231928
C71   C     C_R   0.360739 0.648477 0.953085 0.304365
C72   C     C_R   0.244630 0.224615 0.736910 0.340515
C73   C     C_R   0.860703 0.148059 0.953681 0.304535
C74   C     C_R   0.744753 0.724665 0.737007 0.340497
C75   C     C_R   0.349186 0.686149 0.038439 0.063888
C76   C     C_R   0.287906 0.214075 0.879120 0.115665
C77   C     C_R   0.849039 0.185833 0.038817 0.063845
C78   C     C_R   0.782564 0.744432 0.072194 -0.002230
C79   C     C_R   0.787986 0.714115 0.879197 0.115788
C80   C     C_R   0.762517 0.216027 0.979005 -0.003573
C81   C     C_R   0.766398 0.760689 0.945142 -0.014608
C82   C     C_R   0.262594 0.716078 0.978976 -0.003516
C83   C     C_R   0.266419 0.260700 0.945142 -0.014732
C84   C     C_R   0.685560 0.195740 0.840460 -0.037232
C85   C     C_R   0.726994 0.828474 0.880588 -0.006592
C86   C     C_R   0.185543 0.695680 0.840583 -0.037222
C87   C     C_R   0.227051 0.328497 0.880598 -0.006664
C88   C     C_R   0.659644 0.279119 0.002383 -0.007043
Cl1   Cl    Cl    0.190778 0.970505 0.598750 -0.491137
Cl2   Cl    Cl    0.119495 0.285066 0.477456 -0.501796
Cl3   Cl    Cl    0.471069 0.619191 0.023920 -0.454831
Cl4   Cl    Cl    0.267357 0.164364 0.653181 -0.495382
Cl5   Cl    Cl    0.970992 0.118428 0.024985 -0.454168
Cl6   Cl    Cl    0.767575 0.664450 0.653359 -0.495571
Cl7   Cl    Cl    0.513273 0.234300 0.597732 -0.564773
Cl8   Cl    Cl    0.771998 0.972353 0.943500 -0.593204
Cl9   Cl    Cl    0.012928 0.734042 0.598313 -0.564524
Cl10  Cl    Cl    0.272012 0.472420 0.943292 -0.593156
Cl11  Cl    Cl    0.690768 0.470584 0.598751 -0.491142
Cl12  Cl    Cl    0.536967 0.329518 0.034144 -0.523792
Cl13  Cl    Cl    0.750013 0.847829 0.327926 -0.575799
Cl14  Cl    Cl    0.037393 0.828284 0.036019 -0.524593
Cl15  Cl    Cl    0.250678 0.348060 0.328501 -0.576158
Cl16  Cl    Cl    0.803243 0.074320 0.721290 -0.472667
Cl17  Cl    Cl    0.619641 0.785099 0.477531 -0.501358
Cl18  Cl    Cl    0.303151 0.574678 0.720699 -0.472513
Cu1   Cu    Cu3+1 0.526340 0.000000 0.421010 1.059229
Cu2   Cu    Cu3+1 0.026340 0.500000 0.421010 1.059270
Cu3   Cu    Cu3+1 0.473640 0.000000 0.578990 1.029680
Cu4   Cu    Cu3+1 0.973640 0.500000 0.578990 1.029762
H1    H     H_    0.719240 0.031249 0.114920 0.151787
H2    H     H_    0.836695 0.481635 0.891198 0.124836
H3    H     H_    0.616276 0.008880 0.869835 0.215082
H4    H     H_    0.116287 0.508852 0.869838 0.215054
H5    H     H_    0.517278 0.278492 0.815865 0.221246
H6    H     H_    0.775256 0.915701 0.161034 0.180238
H7    H     H_    0.017289 0.777727 0.817058 0.221350
H8    H     H_    0.275619 0.415813 0.161186 0.180314
H9    H     H_    0.386276 0.807698 0.189934 0.193568
H10   H     H_    0.307192 0.129597 0.079125 0.124046
H11   H     H_    0.886398 0.307347 0.190559 0.193718
H12   H     H_    0.219254 0.531192 0.114930 0.151765
H13   H     H_    0.807289 0.629583 0.079157 0.124021
H14   H     H_    0.705694 0.006717 0.478644 0.206274
H15   H     H_    0.205706 0.506540 0.478638 0.206407
H16   H     H_    0.183459 0.867981 0.323769 0.292146
H17   H     H_    0.161734 0.940084 0.220198 0.295466
H18   H     H_    0.337964 0.228176 0.505393 0.328914
H19   H     H_    0.230333 0.197062 0.382822 0.310709
H20   H     H_    0.682537 0.369126 0.321944 0.292343
H21   H     H_    0.661780 0.441111 0.218721 0.295197
H22   H     H_    0.837384 0.728016 0.504937 0.329302
H23   H     H_    0.755319 0.024808 0.340239 0.153354
H24   H     H_    0.729860 0.696734 0.382193 0.310568
H25   H     H_    0.479471 0.712166 0.206455 0.306447
H26   H     H_    0.440022 0.633968 0.224272 0.305213
H27   H     H_    0.411217 0.179898 0.063385 0.263707
H28   H     H_    0.341064 0.112656 0.945023 0.228797
H29   H     H_    0.979330 0.211434 0.207378 0.306687
H30   H     H_    0.939259 0.133441 0.224565 0.305023
H31   H     H_    0.911304 0.680006 0.063531 0.264048
H32   H     H_    0.841259 0.612731 0.945164 0.228682
H33   H     H_    0.255336 0.524694 0.340250 0.153664
H34   H     H_    0.430709 0.992107 0.114757 0.106949
H35   H     H_    0.930700 0.492194 0.114752 0.106973
H36   H     H_    0.297582 0.989044 0.511924 0.180668
H37   H     H_    0.797580 0.489050 0.511925 0.180642
H38   H     H_    0.336702 0.981564 0.891200 0.124808
N1    N     N_R   0.566260 0.000000 0.302220 -0.237821
N2    N     N_3   0.364543 0.165729 0.957342 -0.553444
N3    N     N_3   0.922503 0.186889 0.187795 -0.582114
N4    N     N_3   0.864680 0.665825 0.957489 -0.553026
N5    N     N_R   0.066260 0.500000 0.302220 -0.237896
N6    N     N_R   0.434410 0.000000 0.697680 -0.270632
N7    N     N_R   0.934410 0.500000 0.697680 -0.270582
N8    N     N_3   0.209464 0.900027 0.286316 -0.585753
N9    N     N_3   0.297602 0.192034 0.422003 -0.499899
N10   N     N_3   0.709106 0.400870 0.285024 -0.585901
N11   N     N_3   0.797189 0.691828 0.421577 -0.499760
N12   N     N_3   0.422894 0.687379 0.187332 -0.581771
O1    O     O_R   0.608610 0.924520 0.551740 -0.425414
O2    O     O_R   0.435880 0.924530 0.314850 -0.513082
O3    O     O_R   0.935880 0.575470 0.314850 -0.525651
O4    O     O_R   0.935880 0.424530 0.314850 -0.512970
O5    O     O_R   0.391380 0.075460 0.448260 -0.446239
O6    O     O_R   0.391380 0.924540 0.448260 -0.485138
O7    O     O_R   0.891380 0.575460 0.448260 -0.446040
O8    O     O_R   0.891380 0.424540 0.448260 -0.485204
O9    O     O_R   0.608610 0.075480 0.551740 -0.454039
O10   O     O_R   0.108610 0.424520 0.551740 -0.425502
O11   O     O_R   0.108610 0.575480 0.551740 -0.454013
O12   O     O_R   0.564110 0.924510 0.685150 -0.521612
O13   O     O_R   0.564110 0.075490 0.685150 -0.500796
O14   O     O_R   0.064110 0.424510 0.685150 -0.521665
O15   O     O_R   0.064110 0.575490 0.685150 -0.500589
O16   O     O_R   0.435880 0.075470 0.314850 -0.525594

loop_
_geom_bond_atom_site_label_1
_geom_bond_atom_site_label_2
_ccdc_geom_bond_type
C75   N12   S    
C83   C87   A    
C10   C85   A    
C8    C13   A    
Cu2   O10   S    
Cu1   Cu3   S    
C7    H7    S    
C45   C82   A    
C50   H12   S    
C73   Cl5   S    
C4    C8    A    
C77   N3    S    
C54   N5    A    
H19   N9    S    
C8    H8    S    
C30   H37   S    
C39   C41   A    
C23   O14   A    
C2    C6    A    
C28   C57   A    
H28   N2    S    
C7    C11   A    
Cu2   O4    S    
C67   C88   A    
C51   H3    S    
C38   C40   A    
C21   C59   A    
C3    C7    A    
C57   H15   S    
C72   Cl4   S    
Cu3   O13   S    
C43   C52   A    
C32   C39   A    
Cu1   O16   S    
C11   C86   A    
C68   C74   A    
C14   C62   A    
C12   C22   S    
C35   O6    A    
C15   H10   S    
C23   C26   S    
H32   N4    S    
C13   Cl10  S    
C69   C71   A    
C33   O16   A    
C74   Cl6   S    
C22   C66   A    
C34   O15   A    
C5    C88   A    
Cu4   O8    S    
C44   C53   A    
C17   H13   S    
C28   C48   A    
Cu2   N5    S    
Cu1   O1    S    
C19   C63   A    
C26   C87   A    
C49   C51   A    
C36   O3    A    
C50   C52   A    
C41   C46   A    
Cu4   N7    S    
C76   N2    S    
C14   C45   A    
C24   C85   A    
C9    Cl7   S    
C44   C47   A    
C80   C84   A    
C42   C51   A    
C49   H1    S    
C21   C65   A    
C3    C60   A    
C40   C42   A    
H24   N11   S    
C1    O1    A    
C20   N10   S    
C5    H5    S    
C53   N1    A    
C41   C43   A    
C13   C87   A    
C70   Cl2   S    
C60   Cl14  S    
C76   C83   A    
H18   N9    S    
C55   N1    A    
C37   O8    A    
Cu4   O14   S    
Cu2   O3    S    
C46   C48   A    
C71   C75   A    
H22   N11   S    
C19   N9    S    
C66   Cl16  S    
C58   Cl12  S    
C43   N7    A    
C47   C49   A    
C29   H36   S    
C79   C81   A    
C2    C59   A    
C18   C62   A    
C31   Cl1   S    
C82   C86   A    
C66   C73   A    
C57   N5    A    
C4    C61   A    
C3    C45   A    
C36   O7    A    
C59   Cl13  S    
C20   C64   A    
H21   N10   S    
C16   H11   S    
C29   N6    A    
C5    C9    A    
C21   N11   S    
C2    C78   A    
Cu4   O7    S    
Cu1   O2    S    
C10   Cl8   S    
C33   C63   S    
C38   H38   S    
C46   C54   A    
C28   H33   S    
C72   C76   A    
C16   C67   A    
Cu4   O15   S    
C48   C50   A    
Cu3   N6    S    
H30   N3    S    
C6    H6    S    
Cu3   O5    S    
C37   O4    A    
C18   C60   A    
C30   N7    A    
C42   N6    A    
C74   C79   A    
C54   H35   S    
C26   C70   A    
C25   C86   A    
H27   N2    S    
C25   C69   A    
C68   Cl17  S    
C20   C58   A    
C32   Cl11  S    
C37   C64   S    
C18   N8    S    
C56   C83   A    
Cu1   O9    S    
C77   C80   A    
C27   C47   A    
C55   H14   S    
C39   H2    S    
C73   C77   A    
H25   N12   S    
C61   Cl15  S    
C36   C65   S    
C33   O5    A    
C67   C80   A    
C58   C88   A    
H17   N8    S    
C6    C10   A    
C69   Cl18  S    
Cu3   O12   S    
C75   C82   A    
C12   O9    A    
C52   H4    S    
C25   C34   S    
C1    O12   A    
C17   C65   A    
C31   C38   A    
H20   N10   S    
C11   Cl9   S    
C53   H34   S    
C15   C56   A    
C27   H23   S    
C29   C31   A    
C30   C32   A    
C78   C81   A    
C23   O10   A    
C19   C61   A    
H29   N3    S    
C17   C78   A    
Cu2   Cu4   S    
C35   C62   S    
C27   C55   A    
C35   O2    A    
C81   C85   A    
Cu3   O6    S    
C24   C68   A    
C9    C84   A    
H26   N12   S    
C40   C44   A    
Cu1   N1    S    
C71   Cl3   S    
C1    C24   S    
C14   H9    S    
Cu2   O11   S    
C15   C63   A    
C79   N4    S    
C70   C72   A    
C16   C64   A    
C4    C56   A    
C34   O11   A    
H31   N4    S    
C22   C84   A    
C12   O13   A    
H16   N8    S    
