data_mof_unit_59328.cif
_audit_creation_date              2012-12-10T20:42:41-0500
_audit_creation_method            fapswitch 2.2
_symmetry_space_group_name_H-M    P1
_symmetry_Int_Tables_number       1
_space_group_crystal_system       triclinic
_cell_length_a                    8.875276
_cell_length_b                    10.795271
_cell_length_c                    9.973718
_cell_angle_alpha                 87.898629
_cell_angle_beta                  90.627975
_cell_angle_gamma                 92.28132
_cell_volume                      954.149314459

loop_
_atom_site_label
_atom_site_type_symbol
_atom_type_description
_atom_site_fract_x
_atom_site_fract_y
_atom_site_fract_z
_atom_type_partial_charge
C1    C     C_R   0.502106 0.260604 0.501901 0.881332
C2    C     C_R   0.532851 0.943212 0.379921 -0.259381
C3    C     C_R   0.501640 0.872101 0.496455 -0.057043
C4    C     C_R   0.465837 0.930315 0.613314 -0.013238
C5    C     C_3   0.535487 0.915155 0.748898 -0.583209
C6    C     C_3   0.525757 0.056156 0.758582 0.895258
C7    C     C_R   0.438536 0.401812 0.073664 0.047072
C8    C     C_R   0.574221 0.591582 0.067232 0.119029
C9    C     C_R   0.584900 0.585473 0.924365 0.502404
C10   C     C_R   0.435089 0.403580 0.932440 0.088916
C11   C     C_3   0.275589 0.355582 0.927630 -0.511032
C12   C     C_R   0.219123 0.499990 0.499568 0.926399
C13   C     C_3   0.281886 0.345628 0.080590 0.319102
C14   C     C_R   0.503686 0.739790 0.498229 0.867831
C15   C     C_R   0.780903 0.501030 0.500440 0.901931
C16   C     C_1   0.065588 0.501026 0.499527 -0.195364
C17   C     C_1   0.934527 0.501460 0.500776 -0.251316
C18   C     C_R   0.462969 0.057254 0.617300 0.038191
C19   C     C_R   0.502022 0.128724 0.502746 -0.123330
C20   C     C_R   0.532061 0.070771 0.382495 -0.232042
H1    H     H_    0.560794 0.123588 0.291231 0.164932
H2    H     H_    0.260657 0.264824 0.880462 0.223943
H3    H     H_    0.284568 0.249544 0.125114 0.060885
H4    H     H_    0.565505 0.902370 0.288881 0.163911
H5    H     H_    0.458809 0.859595 0.817208 0.234692
H6    H     H_    0.649996 0.879325 0.743136 0.208065
H7    H     H_    0.198257 0.426795 0.887111 0.219853
N1    N     N_R   0.499010 0.499140 0.142800 -0.107080
N2    N     N_R   0.499010 0.499180 0.857150 -0.152920
O1    O     O_R   0.500020 0.316790 0.614690 -0.568511
O2    O     O_R   0.500000 0.316760 0.385350 -0.642104
O3    O     O_R   0.285350 0.500020 0.614650 -0.625950
O4    O     O_R   0.285340 0.499980 0.385310 -0.555337
O5    O     O_R   0.500000 0.683240 0.614650 -0.574796
O6    O     O_R   0.499980 0.683210 0.385310 -0.632991
O7    O     O_R   0.714660 0.500020 0.614690 -0.627755
O8    O     O_R   0.714650 0.499980 0.385350 -0.628515
Zn1   Zn    Zn3+2 0.500010 0.500020 0.653130 0.986984
Zn2   Zn    Zn3+2 0.499990 0.499980 0.346870 0.953575
O9    O     O_3   0.177173 0.422247 0.138281 -0.556559
C21   C     C_3   0.045347 0.350061 0.172547 0.111022
H8    H     H_    0.051714 0.320582 0.280293 0.152364
H9    H     H_    0.027301 0.265256 0.112374 0.108318
C22   C     C_3   0.908089 0.427165 0.148871 -0.793178
H10   H     H_    0.894497 0.447494 0.040085 0.225913
H11   H     H_    0.805674 0.374304 0.184996 0.223066
H12   H     H_    0.921775 0.515476 0.201945 0.274996
O10   O     O_3   0.412429 0.087078 0.848194 -0.635407
C23   C     C_3   0.452365 0.056491 0.983050 0.106570
H13   H     H_    0.485235 0.142850 0.034406 0.153342
H14   H     H_    0.549140 0.994051 0.995231 0.137443
C24   C     C_3   0.315867 0.993660 0.052145 -0.911116
H15   H     H_    0.291868 0.900907 0.010401 0.261052
H16   H     H_    0.337509 0.982004 0.161334 0.232184
H17   H     H_    0.215123 0.050378 0.036228 0.256393
O11   O     O_3   0.658922 0.133471 0.775226 -0.614989
C25   C     C_3   0.791605 0.087540 0.721580 0.011694
H18   H     H_    0.772357 0.048925 0.620679 0.147625
H19   H     H_    0.837518 0.015844 0.791779 0.151802
C26   C     C_3   0.909649 0.193117 0.707746 -0.789209
H20   H     H_    0.932354 0.234465 0.806707 0.251768
H21   H     H_    0.016248 0.157923 0.669308 0.210029
H22   H     H_    0.868591 0.265612 0.636296 0.251927
C27   C     C_3   0.623753 0.709142 0.130970 -0.820627
H23   H     H_    0.700476 0.690501 0.217079 0.256132
H24   H     H_    0.681473 0.777702 0.062080 0.239936
H25   H     H_    0.519054 0.753165 0.158997 0.244940
O12   O     O_3   0.664785 0.677482 0.852254 -0.630430
C28   C     C_3   0.815491 0.643826 0.832453 0.147796
H26   H     H_    0.846440 0.673752 0.728398 0.176553
H27   H     H_    0.832496 0.542170 0.842142 0.136878
C29   C     C_3   0.925785 0.713247 0.923960 -0.943744
H28   H     H_    0.911627 0.680528 0.029672 0.267052
H29   H     H_    0.043210 0.696152 0.894276 0.243206
H30   H     H_    0.908243 0.814488 0.915157 0.252868

loop_
_geom_bond_atom_site_label_1
_geom_bond_atom_site_label_2
_ccdc_geom_bond_type
N2    Zn1   S    
C14   O5    A    
C28   C29   S    
O6    Zn2   S    
C24   H17   S    
O9    C21   S    
O3    Zn1   S    
C7    C10   A    
C21   H9    S    
C21   H8    S    
C11   H2    S    
C19   C20   A    
C22   H12   S    
C9    N2    A    
C29   H28   S    
C23   C24   S    
C4    C18   A    
C27   H23   S    
O7    Zn1   S    
C2    C3    A    
C25   C26   S    
C9    O12   S    
C28   H27   S    
O8    Zn2   S    
C15   O8    A    
C24   H15   S    
C11   C13   S    
C10   N2    A    
O1    Zn1   S    
C25   H18   S    
O4    Zn2   S    
C3    C14   S    
C6    O10   S    
C8    C27   S    
C29   H30   S    
C5    C6    S    
C4    C5    S    
C26   H21   S    
O10   C23   S    
O2    Zn2   S    
C11   H7    S    
C23   H13   S    
C26   H22   S    
C1    O1    A    
C2    H4    S    
C28   H26   S    
C6    C18   S    
C21   C22   S    
C5    H5    S    
C25   H19   S    
C22   H10   S    
C1    C19   S    
C10   C11   S    
C15   C17   S    
C2    C20   A    
C5    H6    S    
C27   H25   S    
C12   C16   S    
C15   O7    A    
C1    O2    A    
C20   H1    S    
C13   H3    S    
C8    N1    A    
C29   H29   S    
C18   C19   A    
C6    O11   S    
C14   O6    A    
O11   C25   S    
C26   H20   S    
C13   O9    S    
C7    C13   S    
C22   H11   S    
N1    Zn2   S    
C12   O4    A    
O5    Zn1   S    
O12   C28   S    
C12   O3    A    
C7    N1    A    
C3    C4    A    
C16   C17   T    
C24   H16   S    
C8    C9    A    
C23   H14   S    
C27   H24   S    
