data_mof_unit_36612.cif
_audit_creation_date              2012-12-11T14:56:33-0500
_audit_creation_method            fapswitch 2.2
_symmetry_space_group_name_H-M    P1
_symmetry_Int_Tables_number       1
_space_group_crystal_system       triclinic
_cell_length_a                    10.659469
_cell_length_b                    10.695107
_cell_length_c                    17.032476
_cell_angle_alpha                 81.118016
_cell_angle_beta                  90.023091
_cell_angle_gamma                 119.940011
_cell_volume                      1655.78590509

loop_
_atom_site_label
_atom_site_type_symbol
_atom_type_description
_atom_site_fract_x
_atom_site_fract_y
_atom_site_fract_z
_atom_type_partial_charge
C1    C     C_R   0.222586 0.854301 0.128458 0.561169
C2    C     C_R   0.800150 0.424876 0.263158 -0.129630
C3    C     C_R   0.790837 0.412818 0.184084 -0.135948
C4    C     C_R   0.654473 0.347647 0.155030 0.026437
C5    C     C_1   0.685101 0.832652 0.201610 -0.029050
C6    C     C_1   0.702034 0.807012 0.270379 -0.031905
C7    C     C_1   0.179887 0.825489 0.210967 -0.045404
C8    C     C_1   0.150476 0.819019 0.279767 -0.042342
C9    C     C_1   0.643550 0.322968 0.778179 -0.081816
C10   C     C_1   0.650962 0.344883 0.707388 -0.084109
C11   C     C_R   0.620293 0.686827 0.815689 -0.139585
C12   C     C_R   0.637426 0.281544 0.085498 0.551944
C13   C     C_R   0.628756 0.661666 0.739223 -0.172494
C14   C     C_R   0.716760 0.778832 0.678945 0.000724
C15   C     C_R   0.821132 0.913758 0.699693 -0.126690
C16   C     C_R   0.816205 0.939293 0.777226 -0.039199
C17   C     C_R   0.702870 0.829454 0.833018 0.027767
C18   C     C_R   0.295991 0.003377 0.747494 -0.166172
C19   C     C_R   0.251807 0.978493 0.672318 -0.140257
C20   C     C_R   0.193685 0.837600 0.653115 0.028327
C21   C     C_R   0.206498 0.729030 0.705854 -0.036306
C22   C     C_R   0.246106 0.754237 0.782551 -0.132005
C23   C     C_R   0.643679 0.856204 0.124148 0.555731
C24   C     C_R   0.277016 0.886843 0.805566 0.003576
C25   C     C_R   0.709957 0.771979 0.353336 0.563759
C26   C     C_R   0.690198 0.397805 0.394119 0.546271
C27   C     C_R   0.103383 0.810046 0.359271 0.547183
C28   C     C_R   0.706973 0.758375 0.595653 0.570842
C29   C     C_R   0.678890 0.382773 0.624194 0.542212
C30   C     C_R   0.105596 0.805788 0.584426 0.541365
C31   C     C_R   0.292441 0.905287 0.889075 0.567616
C32   C     C_R   0.637199 0.284015 0.861128 0.535911
C33   C     C_R   0.649016 0.862838 0.901503 0.538079
C34   C     C_R   0.529563 0.313092 0.202559 -0.125106
C35   C     C_R   0.539230 0.326504 0.282040 -0.135663
C36   C     C_R   0.673466 0.375014 0.313173 0.031884
Cr1   Cr    Cr6+3 0.402240 0.783890 0.019450 1.016763
Cr2   Cr    Cr6+3 0.382360 0.097900 0.991800 0.996362
Cr3   Cr    Cr6+3 0.715380 0.118170 0.988700 1.024637
Cr4   Cr    Cr6+3 0.936650 0.882420 0.465510 1.018812
Cr5   Cr    Cr6+3 0.605770 0.565620 0.493360 1.001610
Cr6   Cr    Cr6+3 0.921340 0.550490 0.496380 1.015619
H1    H     H_    0.422948 0.264470 0.180475 0.146814
H2    H     H_    0.254312 0.067853 0.631146 0.134979
H3    H     H_    0.247649 0.668154 0.824670 0.130724
H4    H     H_    0.442283 0.294868 0.319493 0.134788
H5    H     H_    0.906892 0.472306 0.285150 0.146301
H6    H     H_    0.888505 0.443639 0.147513 0.138729
H7    H     H_    0.539904 0.596604 0.859457 0.135759
H8    H     H_    0.558777 0.553170 0.726248 0.113290
H9    H     H_    0.903456 0.001068 0.655550 0.133617
H10   H     H_    0.334134 0.110905 0.761922 0.118162
O1    O     O_R   0.521780 0.757110 0.108900 -0.508149
O2    O     O_R   0.513330 0.228330 0.898660 -0.535984
O3    O     O_R   0.739230 0.266130 0.888050 -0.534411
O4    O     O_R   0.712580 0.991850 0.918770 -0.495635
O5    O     O_3   0.499990 0.999980 0.999980 -0.270706
O6    O     O_R   0.083770 0.911170 0.376030 -0.514805
O7    O     O_R   0.808770 0.880340 0.383890 -0.480577
O8    O     O_R   0.584340 0.689460 0.394160 -0.489768
O9    O     O_R   0.614320 0.443940 0.423590 -0.517987
O10   O     O_R   0.805020 0.410040 0.421340 -0.512414
O11   O     O_R   0.049240 0.685450 0.403290 -0.498563
O12   O     O_R   0.275160 0.783810 0.101120 -0.490021
O13   O     O_R   0.077520 0.903010 0.551800 -0.539286
O14   O     O_R   0.802980 0.872780 0.546830 -0.496457
O15   O     O_R   0.578090 0.681300 0.569920 -0.524369
O16   O     O_R   0.608530 0.436370 0.586530 -0.533058
O17   O     O_R   0.798770 0.401880 0.597100 -0.532866
O18   O     O_R   0.043450 0.677890 0.566230 -0.494121
O19   O     O_3   0.821250 0.666180 0.485090 -0.298044
O20   O     O_R   0.237900 0.972600 0.090980 -0.504878
O21   O     O_R   0.511190 0.220540 0.061620 -0.508745
O22   O     O_R   0.736920 0.257720 0.063840 -0.509960
O23   O     O_R   0.710450 0.984050 0.081720 -0.486943
O24   O     O_R   0.524090 0.765520 0.933110 -0.541766
O25   O     O_R   0.277300 0.791600 0.938160 -0.504434
O26   O     O_R   0.240210 0.981010 0.915190 -0.537083
C37   C     C_R   0.188156 0.593961 0.681832 0.009689
C38   C     C_R   0.051290 0.476840 0.674629 -0.035575
C39   C     C_R   0.036791 0.356826 0.643218 -0.078263
C40   C     C_R   0.158409 0.344653 0.629232 -0.127192
C41   C     C_R   0.294099 0.454182 0.644438 -0.094542
C42   C     C_R   0.309421 0.580654 0.668278 -0.081452
H11   H     H_    0.957354 0.479909 0.695093 0.135790
H12   H     H_    0.930611 0.267703 0.635407 0.128670
H13   H     H_    0.146922 0.248513 0.609196 0.100546
H14   H     H_    0.386319 0.440108 0.637020 0.152905
H15   H     H_    0.414349 0.669461 0.676617 0.149118
C43   C     C_R   0.933441 0.075495 0.799872 0.009499
C44   C     C_R   0.914581 0.194132 0.804445 -0.032220
C45   C     C_R   0.019332 0.314407 0.836090 -0.072558
C46   C     C_R   0.149706 0.322963 0.855601 -0.130849
C47   C     C_R   0.173091 0.209133 0.846222 -0.106571
C48   C     C_R   0.063212 0.083593 0.820885 -0.088196
H16   H     H_    0.818159 0.191728 0.783115 0.130557
H17   H     H_    0.003410 0.405138 0.841342 0.125307
H18   H     H_    0.233366 0.418610 0.876594 0.100491
H19   H     H_    0.276165 0.219272 0.859508 0.158785
H20   H     H_    0.076093 0.990922 0.817833 0.153014

loop_
_geom_bond_atom_site_label_1
_geom_bond_atom_site_label_2
_ccdc_geom_bond_type
C16   C43   S    
C46   C47   A    
Cr4   O19   S    
C12   O22   A    
C19   C20   A    
Cr5   O9    S    
C39   C40   A    
C18   H10   S    
C43   C48   A    
Cr5   O15   S    
Cr2   O20   S    
C20   C30   S    
C18   C24   A    
C26   O9    A    
C18   C19   A    
C37   C42   A    
C6    C25   S    
C40   H13   S    
Cr2   O5    S    
C3    H6    S    
Cr6   O18   S    
C34   C35   A    
Cr3   O22   S    
Cr6   O19   S    
C9    C32   S    
C44   H16   S    
Cr3   O3    S    
Cr3   O4    S    
C16   C17   A    
C5    C23   S    
C12   O21   A    
C31   O25   A    
C25   O8    A    
C15   H9    S    
C4    C12   S    
C9    C10   T    
Cr6   O10   S    
C32   O3    A    
C39   H12   S    
Cr5   O19   S    
Cr1   O1    S    
C33   O4    A    
C41   H14   S    
Cr4   O7    S    
Cr4   O14   S    
C21   C22   A    
C17   C33   S    
C32   O2    A    
C30   O18   A    
C45   H17   S    
C23   O1    A    
Cr5   O16   S    
C29   O17   A    
C4    C34   A    
C1    O20   A    
Cr4   O6    S    
C7    C8    T    
C28   O15   A    
C44   C45   A    
C48   H20   S    
Cr2   O26   S    
Cr1   O25   S    
Cr6   O17   S    
C13   H8    S    
C35   C36   A    
C28   O14   A    
C38   H11   S    
C11   H7    S    
C29   O16   A    
C33   O24   A    
C41   C42   A    
Cr2   O2    S    
C21   C37   S    
C27   O11   A    
C26   C36   S    
Cr1   O24   S    
Cr3   O23   S    
Cr4   O13   S    
C22   C24   A    
C42   H15   S    
C3    C4    A    
C1    O12   A    
Cr1   O12   S    
C19   H2    S    
C31   O26   A    
C2    C36   A    
C11   C17   A    
C1    C7    S    
C34   H1    S    
Cr5   O8    S    
C23   O23   A    
C38   C39   A    
C27   O6    A    
C2    H5    S    
C2    C3    A    
C26   O10   A    
C24   C31   S    
C11   C13   A    
C10   C29   S    
C43   C44   A    
C5    C6    T    
C47   H19   S    
C46   H18   S    
C45   C46   A    
C47   C48   A    
C30   O13   A    
C37   C38   A    
C22   H3    S    
C20   C21   A    
C40   C41   A    
C8    C27   S    
C14   C15   A    
C25   O7    A    
C14   C28   S    
C13   C14   A    
C35   H4    S    
Cr6   O11   S    
Cr1   O5    S    
C15   C16   A    
Cr2   O21   S    
Cr3   O5    S    
