data_mof_unit_29847.cif
_audit_creation_date              2012-12-11T15:57:07-0500
_audit_creation_method            fapswitch 2.2
_symmetry_space_group_name_H-M    P1
_symmetry_Int_Tables_number       1
_space_group_crystal_system       triclinic
_cell_length_a                    17.439208
_cell_length_b                    24.322229
_cell_length_c                    15.065792
_cell_angle_alpha                 89.999887
_cell_angle_beta                  126.359375
_cell_angle_gamma                 90.000195
_cell_volume                      5146.21039078

loop_
_atom_site_label
_atom_site_type_symbol
_atom_type_description
_atom_site_fract_x
_atom_site_fract_y
_atom_site_fract_z
_atom_type_partial_charge
C1    C     C_R   0.308138 0.124025 0.906567 -0.132926
C2    C     C_R   0.308028 0.876185 0.906642 -0.133654
C3    C     C_R   0.808028 0.623814 0.906646 -0.133674
C4    C     C_R   0.808137 0.375976 0.906567 -0.132924
C5    C     C_R   0.648432 0.152408 0.092109 -0.118013
C6    C     C_R   0.648799 0.847709 0.092005 -0.118556
C7    C     C_R   0.148796 0.652292 0.092004 -0.118554
C8    C     C_R   0.148431 0.347592 0.092109 -0.118011
C9    C     C_R   0.557030 0.847627 0.908792 -0.134969
C10   C     C_R   0.555876 0.152812 0.909102 -0.161433
C11   C     C_R   0.055876 0.347188 0.909102 -0.161452
C12   C     C_R   0.057021 0.652375 0.908792 -0.134967
C13   C     C_R   0.544056 0.000724 0.720211 0.016500
C14   C     C_R   0.044070 0.499277 0.720225 0.016498
C15   C     C_R   0.823746 0.000029 0.266987 0.153254
C16   C     C_R   0.323745 0.499971 0.266987 0.153253
C17   C     C_R   0.616617 0.184424 0.000760 -0.006571
C18   C     C_R   0.617690 0.815971 0.000504 -0.012677
C19   C     C_R   0.117680 0.684033 0.000502 -0.012677
C20   C     C_R   0.116616 0.315576 0.000760 -0.006567
C21   C     C_3   0.026072 0.954533 0.499825 -0.202744
C22   C     C_3   0.025879 0.045239 0.500381 -0.201602
C23   C     C_3   0.525878 0.454761 0.500381 -0.201602
C24   C     C_3   0.526072 0.545467 0.499827 -0.202744
C25   C     C_3   0.952510 0.999780 0.468545 -0.264950
C26   C     C_3   0.452509 0.500220 0.468545 -0.264949
C27   C     C_3   0.925460 0.000051 0.350827 -0.046825
C28   C     C_3   0.425460 0.499950 0.350828 -0.046824
C29   C     C_3   0.999075 0.955338 0.382383 0.491720
C30   C     C_3   0.998894 0.044978 0.382943 0.492101
C31   C     C_3   0.498894 0.455023 0.382943 0.492101
C32   C     C_3   0.499075 0.544662 0.382385 0.491721
C33   C     C_3   0.074521 0.000271 0.414830 -0.287533
C34   C     C_3   0.574521 0.499730 0.414832 -0.287534
C35   C     C_R   0.401621 0.876221 0.091719 -0.133307
C36   C     C_R   0.401676 0.124032 0.091641 -0.133901
C37   C     C_R   0.901674 0.375969 0.091641 -0.133903
C38   C     C_R   0.901627 0.623780 0.091723 -0.133288
C39   C     C_3   0.098991 0.999995 0.530976 0.051696
C40   C     C_3   0.598991 0.500005 0.530977 0.051696
C41   C     C_3   0.255098 0.820543 0.102963 -0.393770
C42   C     C_3   0.254214 0.179076 0.102378 -0.392239
C43   C     C_3   0.754208 0.320927 0.102374 -0.392244
C44   C     C_3   0.755142 0.679474 0.102998 -0.393765
C45   C     C_3   0.699633 0.271302 0.102695 -0.394098
C46   C     C_3   0.701371 0.729454 0.103544 -0.395353
C47   C     C_3   0.201272 0.770582 0.103476 -0.395309
C48   C     C_3   0.199641 0.228701 0.102700 -0.394101
C49   C     C_3   0.801049 0.264098 0.000253 -0.391966
C50   C     C_3   0.801059 0.735658 0.999229 -0.396290
C51   C     C_3   0.301072 0.764343 0.999267 -0.396320
C52   C     C_3   0.301047 0.235904 0.000248 -0.391963
C53   C     C_3   0.148949 0.820452 0.896197 -0.397552
C54   C     C_3   0.148969 0.179782 0.895585 -0.397681
C55   C     C_3   0.648968 0.320218 0.895582 -0.397683
C56   C     C_3   0.648949 0.679537 0.896232 -0.397558
C57   C     C_3   0.254463 0.818698 0.999253 0.383093
C58   C     C_3   0.254272 0.181403 0.999154 0.380603
C59   C     C_3   0.754270 0.318598 0.999153 0.380605
C60   C     C_3   0.754473 0.681304 0.999263 0.383097
C61   C     C_3   0.663029 0.234612 0.000447 0.372120
C62   C     C_3   0.663796 0.765623 0.000386 0.373480
C63   C     C_3   0.163785 0.734381 0.000381 0.373435
C64   C     C_3   0.163030 0.265389 0.000447 0.372123
C65   C     C_3   0.748299 0.215008 0.002342 -0.371652
C66   C     C_3   0.748341 0.784938 0.000675 -0.369862
C67   C     C_3   0.248392 0.715064 0.000794 -0.369807
C68   C     C_3   0.248295 0.284994 0.002331 -0.371655
C69   C     C_3   0.595287 0.270040 0.895519 -0.398389
C70   C     C_3   0.595431 0.729764 0.896364 -0.399407
C71   C     C_3   0.095448 0.770207 0.896297 -0.399430
C72   C     C_3   0.095285 0.229957 0.895524 -0.398395
C73   C     C_3   0.550152 0.062999 0.590214 0.037995
C74   C     C_3   0.648469 0.975348 0.661951 0.042023
C75   C     C_3   0.148461 0.524690 0.661943 0.042013
C76   C     C_3   0.050252 0.436998 0.590290 0.038001
C77   C     C_R   0.546906 0.046402 0.302032 -0.159768
C78   C     C_R   0.546105 0.954888 0.303416 -0.158807
C79   C     C_R   0.046107 0.545111 0.303418 -0.158810
C80   C     C_R   0.046912 0.453598 0.302035 -0.159758
C81   C     C_3   0.563425 0.062160 0.498613 -0.492874
C82   C     C_3   0.646935 0.970650 0.558006 -0.485622
C83   C     C_3   0.146912 0.529390 0.557988 -0.485622
C84   C     C_3   0.063534 0.437841 0.498693 -0.492866
C85   C     C_3   0.466807 0.969879 0.530081 -0.413568
C86   C     C_3   0.966793 0.530085 0.530071 -0.413565
C87   C     C_3   0.552857 0.002129 0.628599 0.183848
C88   C     C_3   0.052881 0.497871 0.628618 0.183837
C89   C     C_3   0.559746 0.002184 0.461106 0.343702
C90   C     C_3   0.059767 0.497814 0.461121 0.343695
C91   C     C_3   0.466421 0.974659 0.429338 -0.401391
C92   C     C_3   0.966405 0.525296 0.429328 -0.401383
C93   C     C_R   0.239601 0.954010 0.696707 -0.158007
C94   C     C_R   0.239617 0.045985 0.696684 -0.152964
C95   C     C_R   0.739616 0.454015 0.696684 -0.152973
C96   C     C_R   0.739600 0.545990 0.696708 -0.158005
C97   C     C_R   0.311478 0.137134 0.998769 -0.007969
C98   C     C_R   0.311379 0.863148 0.998884 -0.007213
C99   C     C_R   0.811384 0.636853 0.998892 -0.007217
C100  C     C_R   0.811477 0.362868 0.998768 -0.007968
C101  C     C_R   0.557197 0.001237 0.362506 0.043908
C102  C     C_R   0.057210 0.498761 0.362514 0.043904
C103  C     C_R   0.190350 0.999996 0.637387 0.117674
C104  C     C_R   0.690349 0.500004 0.637389 0.117675
C105  C     C_R   0.521723 0.046187 0.755681 -0.114884
C106  C     C_R   0.517087 0.954163 0.748962 -0.094524
C107  C     C_R   0.017089 0.545837 0.748964 -0.094520
C108  C     C_R   0.021733 0.453815 0.755691 -0.114934
C109  C     C_R   0.768916 0.953907 0.245152 -0.126667
C110  C     C_R   0.768890 0.046125 0.245161 -0.129457
C111  C     C_R   0.268890 0.453875 0.245160 -0.129459
C112  C     C_R   0.268916 0.546093 0.245152 -0.126667
H1    H     H_    0.251627 0.132204 0.821246 0.092229
H2    H     H_    0.251464 0.867975 0.821351 0.092156
H3    H     H_    0.751459 0.632025 0.821357 0.092161
H4    H     H_    0.751626 0.367798 0.821246 0.092228
H5    H     H_    0.038201 0.917273 0.549204 0.137233
H6    H     H_    0.037864 0.082273 0.550227 0.137992
H7    H     H_    0.537863 0.417726 0.550226 0.137991
H8    H     H_    0.538201 0.582727 0.549206 0.137232
H9    H     H_    0.127023 0.000470 0.395784 0.165896
H10   H     H_    0.627023 0.499532 0.395786 0.165897
H11   H     H_    0.328696 0.819245 0.180173 0.151662
H12   H     H_    0.327649 0.180450 0.179882 0.153035
H13   H     H_    0.827643 0.319552 0.179880 0.153038
H14   H     H_    0.828746 0.680756 0.180198 0.151641
H15   H     H_    0.221550 0.859275 0.103756 0.162535
H16   H     H_    0.220865 0.140132 0.102635 0.161727
H17   H     H_    0.720860 0.359871 0.102630 0.161726
H18   H     H_    0.721568 0.640754 0.103797 0.162555
H19   H     H_    0.140939 0.784576 0.104288 0.165810
H20   H     H_    0.138784 0.214309 0.102136 0.165497
H21   H     H_    0.638771 0.285695 0.102121 0.165499
H22   H     H_    0.641091 0.715484 0.104478 0.165780
H23   H     H_    0.748715 0.248038 0.180364 0.160699
H24   H     H_    0.751288 0.752980 0.180598 0.160152
H25   H     H_    0.251128 0.747076 0.180577 0.160087
H26   H     H_    0.248728 0.251967 0.180366 0.160703
H27   H     H_    0.876877 0.262273 0.073795 0.171492
H28   H     H_    0.876942 0.737644 0.072601 0.172419
H29   H     H_    0.376962 0.762375 0.072624 0.172401
H30   H     H_    0.376875 0.237731 0.073791 0.171494
H31   H     H_    0.798284 0.190182 0.077805 0.198544
H32   H     H_    0.798530 0.810278 0.075236 0.199544
H33   H     H_    0.298586 0.689774 0.075434 0.199555
H34   H     H_    0.298278 0.309824 0.077789 0.198542
H35   H     H_    0.143191 0.819576 0.818773 0.147744
H36   H     H_    0.143683 0.180854 0.818464 0.149073
H37   H     H_    0.643684 0.319147 0.818462 0.149069
H38   H     H_    0.643174 0.680428 0.818797 0.147764
H39   H     H_    0.431647 0.868329 0.176858 0.092330
H40   H     H_    0.431610 0.132088 0.176704 0.092721
H41   H     H_    0.931608 0.367914 0.176704 0.092723
H42   H     H_    0.931659 0.631670 0.176864 0.092324
H43   H     H_    0.114475 0.858996 0.896003 0.160443
H44   H     H_    0.114284 0.141197 0.894795 0.159638
H45   H     H_    0.614280 0.358801 0.894790 0.159640
H46   H     H_    0.614503 0.640981 0.896044 0.160425
H47   H     H_    0.033590 0.783872 0.894397 0.159534
H48   H     H_    0.032764 0.216242 0.892224 0.158090
H49   H     H_    0.532760 0.283753 0.892209 0.158089
H50   H     H_    0.533645 0.716078 0.894588 0.159569
H51   H     H_    0.568245 0.246055 0.819494 0.150691
H52   H     H_    0.567253 0.753391 0.819669 0.148491
H53   H     H_    0.067377 0.746561 0.819649 0.148521
H54   H     H_    0.068234 0.253941 0.819495 0.150701
H55   H     H_    0.800312 0.261313 0.925941 0.156249
H56   H     H_    0.800121 0.738042 0.924743 0.155810
H57   H     H_    0.300109 0.761938 0.924767 0.155832
H58   H     H_    0.300311 0.238688 0.925937 0.156249
H59   H     H_    0.723382 0.188243 0.929878 0.154573
H60   H     H_    0.722554 0.811115 0.927288 0.159123
H61   H     H_    0.222681 0.688839 0.927489 0.159166
H62   H     H_    0.223370 0.311755 0.929861 0.154570
H63   H     H_    0.611386 0.085754 0.661811 0.103564
H64   H     H_    0.707138 0.003832 0.721560 0.116202
H65   H     H_    0.207164 0.496227 0.721569 0.116224
H66   H     H_    0.111508 0.414269 0.661911 0.103570
H67   H     H_    0.632938 0.081335 0.528756 0.150051
H68   H     H_    0.713940 0.988025 0.576269 0.153546
H69   H     H_    0.213941 0.512049 0.576260 0.153545
H70   H     H_    0.133076 0.418700 0.528861 0.150061
H71   H     H_    0.506501 0.087288 0.428073 0.171835
H72   H     H_    0.643270 0.926859 0.534387 0.167679
H73   H     H_    0.143180 0.573179 0.534326 0.167677
H74   H     H_    0.006650 0.412682 0.428183 0.171831
H75   H     H_    0.398095 0.985175 0.510142 0.167825
H76   H     H_    0.470142 0.925613 0.550112 0.152835
H77   H     H_    0.970081 0.574354 0.550062 0.152847
H78   H     H_    0.898099 0.514766 0.510153 0.167827
H79   H     H_    0.563322 0.088814 0.328218 0.093744
H80   H     H_    0.559203 0.912756 0.331787 0.088828
H81   H     H_    0.059203 0.587243 0.331789 0.088831
H82   H     H_    0.063333 0.411185 0.328221 0.093739
H83   H     H_    0.403836 0.999386 0.364724 0.164266
H84   H     H_    0.457834 0.932742 0.394838 0.155659
H85   H     H_    0.957750 0.567206 0.394771 0.155671
H86   H     H_    0.903855 0.500536 0.364750 0.164259
H87   H     H_    0.225482 0.912051 0.667218 0.104118
H88   H     H_    0.225502 0.087942 0.667175 0.105665
H89   H     H_    0.725501 0.412058 0.667174 0.105663
H90   H     H_    0.725481 0.587950 0.667220 0.104118
H91   H     H_    0.534731 0.088843 0.750493 0.123570
H92   H     H_    0.521162 0.911718 0.731204 0.090845
H93   H     H_    0.021156 0.588283 0.731198 0.090860
H94   H     H_    0.034754 0.411159 0.750520 0.123632
H95   H     H_    0.792297 0.911625 0.261288 0.145239
H96   H     H_    0.792211 0.088416 0.261282 0.146350
H97   H     H_    0.292211 0.411584 0.261281 0.146350
H98   H     H_    0.292297 0.588375 0.261288 0.145237
H99   H     H_    0.691333 0.165282 0.177286 0.091464
H100  H     H_    0.691378 0.834710 0.177097 0.091198
H101  H     H_    0.191384 0.665290 0.177097 0.091194
H102  H     H_    0.191332 0.334718 0.177286 0.091464
H103  H     H_    0.514170 0.835089 0.823451 0.084087
H104  H     H_    0.511951 0.165707 0.823944 0.097133
H105  H     H_    0.011951 0.334293 0.823944 0.097153
H106  H     H_    0.014152 0.664914 0.823451 0.084097
H107  H     H_    0.901490 0.999580 0.489909 0.154019
H108  H     H_    0.401489 0.500419 0.489908 0.154018
N1    N     N_R   0.392450 0.103580 0.942190 -0.036336
N2    N     N_R   0.392450 0.896420 0.942190 -0.037666
N3    N     N_R   0.892450 0.603580 0.942190 -0.037665
N4    N     N_R   0.892450 0.396420 0.942190 -0.036336
N5    N     N_R   0.450490 0.896000 0.057360 -0.037613
N6    N     N_R   0.450490 0.104000 0.057360 -0.037291
N7    N     N_R   0.950490 0.396000 0.057360 -0.037292
N8    N     N_R   0.950490 0.604000 0.057360 -0.037613
N9    N     N_R   0.525490 0.028390 0.207550 -0.032759
N10   N     N_R   0.525490 0.971610 0.207550 -0.032270
N11   N     N_R   0.025490 0.528390 0.207550 -0.032271
N12   N     N_R   0.025490 0.471610 0.207550 -0.032759
N13   N     N_R   0.317450 0.971190 0.792000 -0.039999
N14   N     N_R   0.317450 0.028810 0.792000 -0.039553
N15   N     N_R   0.817450 0.471190 0.792000 -0.039551
N16   N     N_R   0.817450 0.528810 0.792000 -0.039997
N17   N     N_R   0.473900 0.028390 0.792280 -0.041753
N18   N     N_R   0.473900 0.971610 0.792280 -0.045115
N19   N     N_R   0.973900 0.528390 0.792280 -0.045115
N20   N     N_R   0.973900 0.471610 0.792280 -0.041756
N21   N     N_R   0.682310 0.971180 0.208170 -0.053400
N22   N     N_R   0.682310 0.028820 0.208170 -0.053459
N23   N     N_R   0.182310 0.471180 0.208170 -0.053459
N24   N     N_R   0.182310 0.528820 0.208170 -0.053399
N25   N     N_R   0.606470 0.103570 0.057210 -0.033988
N26   N     N_R   0.606470 0.896430 0.057210 -0.034265
N27   N     N_R   0.106470 0.603570 0.057210 -0.034264
N28   N     N_R   0.106470 0.396430 0.057210 -0.033987
N29   N     N_R   0.549740 0.896000 0.943240 -0.032883
N30   N     N_R   0.549740 0.104000 0.943240 -0.033546
N31   N     N_R   0.049740 0.396000 0.943240 -0.033546
N32   N     N_R   0.049740 0.604000 0.943240 -0.032884
Ni1   Ni    Ni4+2 0.433780 0.065390 0.868430 0.218147
Ni2   Ni    Ni4+2 0.433780 0.934610 0.868430 0.212460
Ni3   Ni    Ni4+2 0.933780 0.565390 0.868430 0.212457
Ni4   Ni    Ni4+2 0.933780 0.434610 0.868430 0.218139
Ni5   Ni    Ni4+2 0.565800 0.934190 0.131570 0.212202
Ni6   Ni    Ni4+2 0.565800 0.065810 0.131570 0.211866
Ni7   Ni    Ni4+2 0.065800 0.434190 0.131570 0.211866
Ni8   Ni    Ni4+2 0.065800 0.565810 0.131570 0.212204
Cl1   Cl    Cl    0.980459 0.896167 0.302182 -0.712700
Cl2   Cl    Cl    0.980203 0.104539 0.303608 -0.713198
Cl3   Cl    Cl    0.480203 0.395462 0.303607 -0.713199
Cl4   Cl    Cl    0.480460 0.603835 0.302185 -0.712709
N33   N     N_2   0.461290 0.091437 0.551323 -0.099551
H109  H     H_    0.400887 0.076574 0.479269 0.193372
C113  C     C_3   0.465306 0.150973 0.555510 -0.967478
H110  H     H_    0.397329 0.167424 0.535497 0.259108
H111  H     H_    0.475966 0.167339 0.494745 0.258072
H112  H     H_    0.524001 0.165428 0.639361 0.243118
N34   N     N_2   0.665818 0.921848 0.714502 -0.102399
H113  H     H_    0.619754 0.891083 0.663592 0.169694
C114  C     C_3   0.764159 0.904148 0.784395 -0.920835
H114  H     H_    0.769352 0.864263 0.823431 0.244366
H115  H     H_    0.808408 0.934694 0.850855 0.264322
H116  H     H_    0.791956 0.898749 0.734986 0.246408
N35   N     N_2   0.165757 0.578196 0.714455 -0.102402
H117  H     H_    0.119661 0.608944 0.663523 0.169695
C115  C     C_3   0.264080 0.595929 0.784332 -0.920893
H118  H     H_    0.269229 0.635830 0.823295 0.244340
H119  H     H_    0.291886 0.601309 0.734928 0.246428
H120  H     H_    0.308350 0.565411 0.850847 0.264337
N36   N     N_2   0.961420 0.408526 0.551411 -0.099563
H121  H     H_    0.901001 0.423366 0.479343 0.193374
C116  C     C_3   0.965503 0.348992 0.555649 -0.967557
H122  H     H_    0.897557 0.332517 0.535689 0.259097
H123  H     H_    0.024234 0.334559 0.639502 0.243135
H124  H     H_    0.976145 0.332627 0.494868 0.258090

loop_
_geom_bond_atom_site_label_1
_geom_bond_atom_site_label_2
_ccdc_geom_bond_type
N25   N30   A    
C55   C59   S    
C15   C109  A    
C77   C101  A    
C42   C58   S    
N27   N32   A    
C75   N35   S    
N15   Ni4   S    
C8    H102  S    
C54   H44   S    
C86   C88   S    
C77   N9    A    
C44   H18   S    
N34   H113  S    
C29   C33   S    
C114  H116  S    
C62   C70   S    
C1    N1    A    
C32   Cl4   S    
C21   H5    S    
C17   C61   S    
C19   C63   S    
C79   C102  A    
C36   C97   A    
C51   C57   S    
C42   H16   S    
C85   H76   S    
C78   C101  A    
N22   Ni6   S    
N6    Ni6   S    
C1    H1    S    
C70   H50   S    
C73   C81   S    
C44   C46   S    
N2    Ni2   S    
C11   C20   A    
C24   H8    S    
N20   Ni4   S    
C28   C32   S    
C108  H94   S    
C86   H78   S    
C52   H58   S    
C94   N14   A    
C21   C29   S    
C47   H19   S    
C30   Cl2   S    
C32   C34   S    
C73   H63   S    
C24   C32   S    
C74   H64   S    
N9    N10   A    
C46   H22   S    
N28   Ni7   S    
C91   H83   S    
C110  N22   A    
C90   C92   S    
N25   Ni6   S    
C79   N11   A    
C52   C58   S    
C14   C107  A    
C46   C62   S    
C7    C19   A    
C96   C104  A    
N19   Ni3   S    
C53   C71   S    
C68   H34   S    
N4    Ni4   S    
C22   H6    S    
C111  N23   A    
C89   C101  S    
C35   N5    A    
C72   H54   S    
C6    N26   A    
C36   H40   S    
C13   C106  A    
C96   H90   S    
C45   H21   S    
C48   H26   S    
C84   H70   S    
C14   C88   S    
C116  H123  S    
C4    N4    A    
C2    H2    S    
N31   Ni4   S    
C50   H28   S    
C115  H119  S    
N16   Ni3   S    
C75   H65   S    
C11   N31   A    
C107  H93   S    
C105  H91   S    
C61   C65   S    
C112  N24   A    
C66   H32   S    
C105  N17   A    
C23   C40   S    
C16   C111  A    
C27   C29   S    
C41   H15   S    
N24   Ni8   S    
C43   H13   S    
C9    H103  S    
C82   C89   S    
C64   C68   S    
C31   Cl3   S    
C24   C26   S    
C23   H7    S    
C113  H112  S    
C7    N27   A    
C83   H69   S    
N21   N22   A    
C90   C102  S    
N12   Ni7   S    
C67   H33   S    
C74   C87   S    
C89   C91   S    
N13   N14   A    
C43   C59   S    
N9    Ni6   S    
C34   H10   S    
N35   H117  S    
C59   C100  S    
C84   C90   S    
C80   N12   A    
C92   H86   S    
N18   Ni2   S    
C55   H37   S    
C51   H29   S    
N1    Ni1   S    
C45   H23   S    
C62   C66   S    
C43   H17   S    
C18   C62   S    
C51   C67   S    
N2    N5    A    
C80   C102  A    
C10   N30   A    
C43   C45   S    
N10   Ni5   S    
C37   N7    A    
N15   N16   A    
C13   C87   S    
C41   C47   S    
C31   C34   S    
C42   C48   S    
C44   C60   S    
N33   C113  S    
C55   C69   S    
N13   Ni2   S    
N32   Ni3   S    
C8    C20   A    
C53   H43   S    
C49   H27   S    
C50   H56   S    
C56   H38   S    
C54   H36   S    
C21   C25   S    
C3    N3    A    
C22   C30   S    
C113  H110  S    
N8    Ni8   S    
C95   H89   S    
C79   H81   S    
C50   C60   S    
C4    C100  A    
N26   Ni5   S    
C10   H104  S    
N30   Ni1   S    
C22   C39   S    
C114  H115  S    
C3    C99   A    
C9    C18   A    
C71   H53   S    
N36   H121  S    
C81   H71   S    
C37   C100  A    
N26   N29   A    
C85   H75   S    
C84   H74   S    
N19   N20   A    
C76   C84   S    
N27   Ni8   S    
N17   Ni1   S    
C93   H87   S    
C76   H66   S    
C47   C63   S    
C65   H31   S    
C48   C64   S    
C5    C17   A    
N23   N24   A    
C2    N2    A    
C23   C26   S    
C12   H106  S    
C109  H95   S    
C73   C87   S    
C115  H118  S    
C35   C98   A    
C11   H105  S    
C81   C89   S    
C14   C108  A    
N29   Ni2   S    
C15   C110  A    
C93   C103  A    
C35   H39   S    
C74   C82   S    
C5    H99   S    
C77   H79   S    
C37   H41   S    
C78   H80   S    
C81   H67   S    
C13   C105  A    
C53   C57   S    
C93   N13   A    
C107  N19   A    
N1    N6    A    
C56   C60   S    
C112  H98   S    
C116  H122  S    
C109  N21   A    
N23   Ni7   S    
C73   N33   S    
C94   C103  A    
C25   H107  S    
N4    N7    A    
C80   H82   S    
C16   C112  A    
C36   N6    A    
C4    H4    S    
C28   C31   S    
C5    N25   A    
C38   C99   A    
C49   C59   S    
C74   N34   S    
C39   C103  S    
C78   N10   A    
N11   Ni8   S    
C12   N32   A    
C41   C57   S    
C3    H3    S    
C91   H84   S    
C113  H111  S    
C75   C83   S    
C67   H61   S    
C57   C98   S    
C12   C19   A    
C45   C61   S    
C94   H88   S    
C106  H92   S    
C55   H45   S    
C8    N28   A    
C106  N18   A    
C48   H20   S    
C110  H96   S    
C51   H57   S    
C23   C31   S    
C16   C28   S    
C82   H72   S    
N36   C116  S    
C76   N36   S    
C60   C99   S    
C85   C91   S    
C42   H12   S    
C44   H14   S    
C33   C39   S    
C49   C65   S    
C65   H59   S    
C34   C40   S    
C66   H60   S    
C69   H49   S    
C49   H55   S    
C116  H124  S    
C6    H100  S    
C10   C17   A    
C53   H35   S    
C115  H120  S    
C56   H46   S    
C15   C27   S    
C108  N20   A    
C29   Cl1   S    
N33   H109  S    
C76   C88   S    
C52   C68   S    
N28   N31   A    
N7    Ni7   S    
C27   C30   S    
C33   H9    S    
C58   C97   S    
C95   N15   A    
C85   C87   S    
C6    C18   A    
C63   C67   S    
C26   H108  S    
C1    C97   A    
C68   H62   S    
N3    N8    A    
N21   Ni5   S    
C22   C25   S    
C52   H30   S    
C20   C64   S    
C9    N29   A    
C111  H97   S    
C40   C104  S    
C21   C39   S    
C47   H25   S    
C114  H114  S    
C96   N16   A    
C50   C66   S    
N14   Ni1   S    
C7    H101  S    
C56   C70   S    
N35   C115  S    
C38   H42   S    
C92   H85   S    
C95   C104  A    
C38   N8    A    
C54   C58   S    
C61   C69   S    
N34   C114  S    
C83   C90   S    
C86   H77   S    
C30   C33   S    
C69   H51   S    
C63   C71   S    
C70   H52   S    
C25   C27   S    
C71   H47   S    
C26   C28   S    
C72   H48   S    
C41   H11   S    
N5    Ni5   S    
C86   C92   S    
C24   C40   S    
C64   C72   S    
C46   H24   S    
N3    Ni3   S    
C75   C88   S    
C54   C72   S    
C2    C98   A    
C82   H68   S    
N11   N12   A    
C83   H73   S    
N17   N18   A    
