data_mof_unit_39917.cif
_audit_creation_date              2012-12-10T19:09:33-0500
_audit_creation_method            fapswitch 2.2
_symmetry_space_group_name_H-M    P1
_symmetry_Int_Tables_number       1
_space_group_crystal_system       triclinic
_cell_length_a                    15.140997
_cell_length_b                    15.140952
_cell_length_c                    9.904562
_cell_angle_alpha                 90.015822
_cell_angle_beta                  90.293463
_cell_angle_gamma                 90.123817
_cell_volume                      2270.57683286

loop_
_atom_site_label
_atom_site_type_symbol
_atom_type_description
_atom_site_fract_x
_atom_site_fract_y
_atom_site_fract_z
_atom_type_partial_charge
C1    C     C_R   0.120901 0.379255 0.500297 0.933446
C2    C     C_R   0.121606 0.620132 0.500046 0.950012
C3    C     C_R   0.621928 0.880360 0.499998 0.956826
C4    C     C_R   0.621036 0.120792 0.500107 0.935853
C5    C     C_3   0.912510 0.534560 0.080614 0.496149
C6    C     C_3   0.917582 0.545075 0.917046 0.571945
C7    C     C_3   0.414791 0.039658 0.081379 0.537510
C8    C     C_3   0.409490 0.026205 0.917288 0.499057
C9    C     C_R   0.879301 0.378893 0.499991 0.927585
C10   C     C_R   0.881939 0.623911 0.500077 0.934184
C11   C     C_R   0.380885 0.877283 0.499330 0.950808
C12   C     C_R   0.379697 0.121781 0.499933 0.933860
C13   C     C_3   0.787462 0.283615 0.649535 0.910237
C14   C     C_3   0.843857 0.226904 0.418627 0.872730
C15   C     C_3   0.845564 0.776579 0.413206 0.952969
C16   C     C_3   0.795857 0.727273 0.649240 0.852213
C17   C     C_3   0.343461 0.727676 0.589549 0.959007
C18   C     C_3   0.295442 0.772927 0.348788 0.829824
C19   C     C_3   0.287120 0.218425 0.352109 0.840605
C20   C     C_3   0.344440 0.274613 0.582512 0.858579
C21   C     C_3   0.276478 0.650717 0.569425 0.335430
C22   C     C_3   0.214759 0.712113 0.351303 0.466453
C23   C     C_3   0.208963 0.282399 0.353692 0.372033
C24   C     C_3   0.276557 0.349922 0.563549 0.395550
C25   C     C_3   0.711161 0.217082 0.647430 0.342206
C26   C     C_3   0.776192 0.151498 0.436696 0.394562
C27   C     C_3   0.776517 0.851940 0.429513 0.316955
C28   C     C_3   0.717202 0.789916 0.646729 0.440502
C29   C     C_3   0.727055 0.345399 0.430841 -0.461830
C30   C     C_3   0.729196 0.656960 0.439477 -0.461068
C31   C     C_3   0.227156 0.845624 0.554693 -0.451687
C32   C     C_3   0.227446 0.155213 0.568832 -0.462577
C33   C     C_3   0.811920 0.309551 0.500484 -0.408006
C34   C     C_3   0.815966 0.695342 0.500909 -0.408988
C35   C     C_3   0.314444 0.806824 0.497217 -0.434620
C36   C     C_3   0.312257 0.191578 0.500288 -0.339856
C37   C     C_3   0.191471 0.686984 0.499429 -0.399211
C38   C     C_3   0.189956 0.311851 0.500883 -0.388830
C39   C     C_3   0.690015 0.188709 0.500154 -0.398433
C40   C     C_3   0.692398 0.814454 0.499551 -0.371160
C41   C     C_3   0.159268 0.771125 0.573433 -0.311898
C42   C     C_3   0.159695 0.230039 0.583542 -0.302363
C43   C     C_3   0.658531 0.270707 0.418903 -0.278262
C44   C     C_3   0.660042 0.730266 0.425161 -0.314682
C45   C     C_3   0.010903 0.407961 0.080914 0.764307
C46   C     C_3   0.996642 0.407063 0.920587 0.751265
C47   C     C_3   0.077349 0.548677 0.919289 0.666482
C48   C     C_3   0.072027 0.556810 0.080173 0.692055
C49   C     C_3   0.502259 0.907453 0.080470 0.751352
C50   C     C_3   0.520153 0.909701 0.922040 0.738045
C51   C     C_3   0.564420 0.065181 0.921075 0.801973
C52   C     C_3   0.574141 0.053104 0.080234 0.676419
H1    H     H_    0.304136 0.597486 0.504863 0.027543
H2    H     H_    0.229796 0.651634 0.291975 0.159307
H3    H     H_    0.224404 0.340640 0.289358 0.099380
H4    H     H_    0.303458 0.401470 0.494841 0.044790
H5    H     H_    0.730629 0.158124 0.706346 0.095939
H6    H     H_    0.803696 0.099488 0.504285 0.044824
H7    H     H_    0.802752 0.907142 0.492191 0.034206
H8    H     H_    0.735740 0.850893 0.702735 0.102673
H9    H     H_    0.699048 0.401100 0.490082 0.243713
H10   H     H_    0.741511 0.371779 0.328399 0.280768
H11   H     H_    0.740914 0.626833 0.338614 0.242129
H12   H     H_    0.702946 0.603543 0.505387 0.253500
H13   H     H_    0.238252 0.879188 0.653369 0.271605
H14   H     H_    0.200142 0.896244 0.484293 0.255462
H15   H     H_    0.198444 0.100616 0.507628 0.254658
H16   H     H_    0.242087 0.127096 0.670014 0.247037
H17   H     H_    0.150930 0.757240 0.682965 0.295292
H18   H     H_    0.094172 0.792845 0.533577 0.252280
H19   H     H_    0.093999 0.206220 0.549414 0.250057
H20   H     H_    0.153746 0.247726 0.692002 0.272577
H21   H     H_    0.594009 0.294694 0.456138 0.241914
H22   H     H_    0.649532 0.253018 0.310691 0.307493
H23   H     H_    0.649212 0.744641 0.316291 0.274374
H24   H     H_    0.596096 0.707029 0.466923 0.253415
N1    N     N_3   0.998760 0.500000 0.138610 -0.290104
N2    N     N_3   0.998760 0.500000 0.861390 -0.281964
N3    N     N_3   0.498760 0.000000 0.138610 -0.296711
N4    N     N_3   0.498760 0.000000 0.861390 -0.287000
O1    O     O_R   0.092530 0.407440 0.616040 -0.533077
O2    O     O_R   0.092530 0.407440 0.383960 -0.618750
O3    O     O_R   0.092530 0.592560 0.383960 -0.596777
O4    O     O_R   0.092530 0.592560 0.616040 -0.497737
O5    O     O_R   0.592530 0.907440 0.616040 -0.616816
O6    O     O_R   0.592530 0.907440 0.383960 -0.585943
O7    O     O_R   0.592530 0.092560 0.383960 -0.551057
O8    O     O_R   0.592530 0.092560 0.616040 -0.557652
O9    O     O_R   0.907330 0.407420 0.616040 -0.483555
O10   O     O_R   0.907330 0.407420 0.383960 -0.527800
O11   O     O_R   0.907330 0.592580 0.383960 -0.506370
O12   O     O_R   0.907330 0.592580 0.616040 -0.537401
O13   O     O_R   0.407330 0.907420 0.616040 -0.491122
O14   O     O_R   0.407330 0.907420 0.383960 -0.534324
O15   O     O_R   0.407330 0.092580 0.383960 -0.482676
O16   O     O_R   0.407330 0.092580 0.616040 -0.538052
Zn1   Zn    Zn3+2 0.999890 0.500000 0.654960 1.186821
Zn2   Zn    Zn3+2 0.999890 0.500000 0.345040 1.136904
Zn3   Zn    Zn3+2 0.499890 0.000000 0.654960 1.151427
Zn4   Zn    Zn3+2 0.499890 0.000000 0.345040 1.150295
F1    F     F_    0.759252 0.358274 0.718604 -0.476560
F2    F     F_    0.847805 0.247814 0.281918 -0.467577
F3    F     F_    0.845760 0.752386 0.278738 -0.502683
F4    F     F_    0.772927 0.656169 0.729569 -0.534053
F5    F     F_    0.339620 0.754336 0.723563 -0.460364
F6    F     F_    0.276624 0.842824 0.262436 -0.477627
F7    F     F_    0.260320 0.143757 0.281635 -0.565629
F8    F     F_    0.349048 0.254231 0.719263 -0.527498
O17   O     O_3   0.861132 0.249613 0.720342 -0.620215
H25   H     H_    0.872727 0.188288 0.690466 0.300101
O18   O     O_3   0.927613 0.198174 0.461631 -0.802748
H26   H     H_    0.971915 0.235320 0.414739 0.400266
O19   O     O_3   0.932469 0.803770 0.444551 -0.724588
H27   H     H_    0.931661 0.849688 0.515702 0.306606
O20   O     O_3   0.867449 0.772619 0.709734 -0.777317
H28   H     H_    0.923198 0.741452 0.689882 0.376599
O21   O     O_3   0.431590 0.702047 0.565570 -0.706287
H29   H     H_    0.433598 0.657780 0.492133 0.309896
O22   O     O_3   0.366691 0.724442 0.295724 -0.783473
H30   H     H_    0.419647 0.762669 0.294104 0.408770
O23   O     O_3   0.360193 0.255439 0.284275 -0.689947
H31   H     H_    0.368066 0.317875 0.311896 0.309488
O24   O     O_3   0.428026 0.303580 0.539982 -0.789113
H32   H     H_    0.472387 0.266233 0.586727 0.397602
F9    F     F_    0.257911 0.612835 0.693164 -0.508221
F10   F     F_    0.143015 0.753200 0.289965 -0.467531
F11   F     F_    0.134373 0.241841 0.299282 -0.506094
F12   F     F_    0.260842 0.390690 0.686612 -0.521217
F13   F     F_    0.636760 0.253144 0.707616 -0.497718
F14   F     F_    0.759967 0.112009 0.312920 -0.514503
F15   F     F_    0.756791 0.887337 0.303936 -0.543107
F16   F     F_    0.645127 0.751654 0.711005 -0.490561
F17   F     F_    0.948881 0.352060 0.137284 -0.413305
F18   F     F_    0.914172 0.369777 0.898909 -0.428241
F19   F     F_    0.082023 0.633156 0.865098 -0.551539
F20   F     F_    0.057049 0.644344 0.113788 -0.469011
F21   F     F_    0.422615 0.864780 0.100354 -0.525189
F22   F     F_    0.469012 0.845762 0.859205 -0.437521
F23   F     F_    0.537397 0.151187 0.894241 -0.462423
F24   F     F_    0.577000 0.136617 0.137945 -0.503300
O25   O     O_3   0.092095 0.370511 0.120209 -0.669674
H33   H     H_    0.140499 0.391235 0.062168 0.320074
O26   O     O_3   0.052895 0.347714 0.853365 -0.654097
H34   H     H_    0.115140 0.365304 0.860140 0.369242
O27   O     O_3   0.155710 0.506659 0.879773 -0.695060
H35   H     H_    0.205776 0.546300 0.903134 0.464983
O28   O     O_3   0.155991 0.537069 0.134422 -0.752095
H36   H     H_    0.149941 0.504307 0.219361 0.362578
O29   O     O_3   0.562120 0.852878 0.150753 -0.662382
H37   H     H_    0.624050 0.866449 0.128979 0.409083
O30   O     O_3   0.608439 0.883561 0.903762 -0.681039
H38   H     H_    0.634289 0.913211 0.826693 0.393395
O31   O     O_3   0.647418 0.056933 0.860151 -0.749163
H39   H     H_    0.686588 0.102052 0.902096 0.412533
O32   O     O_3   0.655714 0.013229 0.108799 -0.691434
H40   H     H_    0.660082 0.007422 0.207748 0.438879
O33   O     O_3   0.844037 0.475189 0.116571 -0.626189
H41   H     H_    0.786132 0.505617 0.113177 0.336571
O34   O     O_3   0.841982 0.507137 0.856939 -0.519180
H42   H     H_    0.789582 0.539315 0.890770 0.396625
O35   O     O_3   0.916829 0.634611 0.876739 -0.640980
H43   H     H_    0.947175 0.673265 0.942576 0.420956
O36   O     O_3   0.893548 0.616910 0.138912 -0.609719
H44   H     H_    0.836970 0.638513 0.099977 0.368154
O37   O     O_3   0.341418 0.001767 0.146986 -0.580441
H45   H     H_    0.287053 0.025422 0.103953 0.373616
O38   O     O_3   0.345312 0.963947 0.873172 -0.697497
H46   H     H_    0.329877 0.921713 0.944787 0.424665
O39   O     O_3   0.383816 0.107117 0.860577 -0.567795
H47   H     H_    0.319558 0.114596 0.876834 0.355135
O40   O     O_3   0.414666 0.130715 0.111652 -0.547961
H48   H     H_    0.356596 0.155671 0.085753 0.403043

loop_
_geom_bond_atom_site_label_1
_geom_bond_atom_site_label_2
_ccdc_geom_bond_type
C16   C28   S    
C31   H14   S    
C45   O25   S    
O40   H48   S    
C47   O27   S    
C43   H21   S    
O37   H45   S    
C7    O40   S    
C3    O5    A    
C14   F2    S    
C27   F15   S    
O39   H47   S    
C2    O4    A    
O36   H44   S    
C25   F13   S    
C14   C33   S    
O27   H35   S    
O29   H37   S    
C7    C8    S    
C22   H2    S    
C4    O7    A    
C45   C46   S    
C52   O32   S    
O33   H41   S    
O4    Zn1   S    
C5    O36   S    
C7    N3    S    
C38   C42   S    
C30   H12   S    
C19   C36   S    
C5    C6    S    
C26   C39   S    
C22   F10   S    
C28   C40   S    
C1    O1    A    
O20   H28   S    
O16   Zn3   S    
C29   C33   S    
C49   F21   S    
C44   H24   S    
C51   N4    S    
C20   O24   S    
C13   O17   S    
C16   C34   S    
O19   H27   S    
C50   O30   S    
C16   F4    S    
C19   O23   S    
O28   H36   S    
C41   H18   S    
O3    Zn2   S    
C24   C38   S    
O30   H38   S    
C6    O35   S    
C12   O15   A    
C12   C36   S    
C52   N3    S    
O6    Zn4   S    
C18   C35   S    
O13   Zn3   S    
C15   C34   S    
C26   F14   S    
C17   O21   S    
C32   H16   S    
C11   O13   A    
C43   H22   S    
C7    O37   S    
C10   O12   A    
C30   H11   S    
C29   C43   S    
C3    O6    A    
C9    C33   S    
O2    Zn2   S    
C30   C44   S    
C2    O3    A    
C25   H5    S    
O12   Zn1   S    
O35   H43   S    
C28   H8    S    
C14   O18   S    
C29   H9    S    
C30   C34   S    
C51   C52   S    
C47   C48   S    
C20   C24   S    
N3    Zn4   S    
O24   H32   S    
C9    O9    A    
O38   H46   S    
C46   N2    S    
O15   Zn4   S    
C39   C43   S    
C1    O2    A    
C22   C37   S    
C6    O34   S    
C49   N3    S    
C13   F1    S    
O9    Zn1   S    
C28   F16   S    
C48   N1    S    
C44   H23   S    
C19   C23   S    
C18   F6    S    
C13   C33   S    
O5    Zn3   S    
C8    O38   S    
C17   F5    S    
C46   F18   S    
C15   C27   S    
O34   H42   S    
C4    C39   S    
O14   Zn4   S    
C27   C40   S    
C8    N4    S    
N2    Zn1   S    
C42   H20   S    
N1    Zn2   S    
C10   C34   S    
C14   C26   S    
C26   H6    S    
O23   H31   S    
C1    C38   S    
C32   H15   S    
C11   O14   A    
C3    C40   S    
C5    O33   S    
N4    Zn3   S    
C31   C35   S    
C5    N1    S    
C16   O20   S    
C32   C36   S    
C8    O39   S    
C41   H17   S    
O7    Zn4   S    
C31   H13   S    
C29   H10   S    
C51   O31   S    
C31   C41   S    
O18   H26   S    
C47   F19   S    
C15   O19   S    
C18   C22   S    
C48   F20   S    
C13   C25   S    
C50   N4    S    
C9    O10   A    
C10   O11   A    
O22   H30   S    
C50   F22   S    
C23   H3    S    
C46   O26   S    
C4    O8    A    
C24   H4    S    
C23   C38   S    
C23   F11   S    
C45   F17   S    
C49   O29   S    
C11   C35   S    
C27   H7    S    
O21   H29   S    
C25   C39   S    
C21   H1    S    
C2    C37   S    
O1    Zn1   S    
C42   H19   S    
C52   F24   S    
O11   Zn2   S    
C37   C41   S    
C17   C21   S    
O8    Zn3   S    
C6    N2    S    
C20   C36   S    
C40   C44   S    
C21   C37   S    
C49   C50   S    
O17   H25   S    
O32   H40   S    
C24   F12   S    
C32   C42   S    
C12   O16   A    
C45   N1    S    
C17   C35   S    
C47   N2    S    
C15   F3    S    
O31   H39   S    
O25   H33   S    
C21   F9    S    
C18   O22   S    
O10   Zn2   S    
O26   H34   S    
C19   F7    S    
C48   O28   S    
C20   F8    S    
C51   F23   S    
