data_mof_unit_31802.cif
_audit_creation_date              2012-12-10T17:11:57-0500
_audit_creation_method            fapswitch 2.2
_symmetry_space_group_name_H-M    P1
_symmetry_Int_Tables_number       1
_space_group_crystal_system       triclinic
_cell_length_a                    11.643005
_cell_length_b                    12.98925
_cell_length_c                    15.871937
_cell_angle_alpha                 92.573968
_cell_angle_beta                  74.126545
_cell_angle_gamma                 100.406514
_cell_volume                      2270.84023414

loop_
_atom_site_label
_atom_site_type_symbol
_atom_type_description
_atom_site_fract_x
_atom_site_fract_y
_atom_site_fract_z
_atom_type_partial_charge
C1    C     C_R   0.523224 0.701097 0.497885 0.803109
C2    C     C_R   0.337320 0.011285 0.531508 -0.249841
C3    C     C_R   0.655769 0.880056 0.468141 -0.007880
C4    C     C_R   0.344436 0.119731 0.530670 -0.008420
C5    C     C_R   0.434627 0.859979 0.513166 -0.273542
C6    C     C_R   0.565623 0.140007 0.486547 -0.273048
C7    C     C_R   0.442779 0.967650 0.510947 0.158031
C8    C     C_R   0.557553 0.032296 0.488551 0.158021
C9    C     C_R   0.941040 0.595756 0.582921 -0.350785
C10   C     C_R   0.059031 0.404372 0.416961 -0.350955
C11   C     C_R   0.822502 0.586681 0.574805 0.114930
C12   C     C_R   0.476829 0.298877 0.501962 0.803650
C13   C     C_R   0.177553 0.413417 0.425109 0.115293
C14   C     C_R   0.859310 0.458775 0.463986 0.014784
C15   C     C_R   0.140696 0.541244 0.535989 0.015133
C16   C     C_R   0.426852 0.494535 0.668160 0.793938
C17   C     C_R   0.573038 0.504371 0.331832 0.793085
C18   C     C_R   0.979421 0.465323 0.469766 0.062425
C19   C     C_R   0.020615 0.534743 0.530164 0.061960
C20   C     C_R   0.383265 0.486335 0.764049 -0.053987
C21   C     C_R   0.615476 0.501919 0.235817 -0.054142
C22   C     C_R   0.221504 0.461101 0.898363 -0.199073
C23   C     C_R   0.350170 0.460969 0.086494 -0.223362
C24   C     C_R   0.773346 0.495172 0.101233 -0.198446
C25   C     C_R   0.259492 0.471423 0.807500 -0.208311
C26   C     C_R   0.737336 0.501290 0.192284 -0.206738
C27   C     C_R   0.468308 0.490835 0.812282 -0.250115
C28   C     C_R   0.530410 0.496450 0.187505 -0.252584
C29   C     C_R   0.432409 0.476919 0.903572 0.087475
C30   C     C_R   0.563299 0.485910 0.096002 0.087892
C31   C     C_R   0.306762 0.464185 0.946619 0.170613
C32   C     C_R   0.687596 0.487808 0.052889 0.170467
C33   C     C_R   0.517848 0.477525 0.953191 0.066529
C34   C     C_R   0.642582 0.477888 0.912886 -0.224335
C35   C     C_R   0.476657 0.475530 0.046298 0.067038
C36   C     C_R   0.228971 0.160945 0.557082 0.130263
C37   C     C_R   0.142682 0.133863 0.509212 -0.169924
C38   C     C_R   0.033433 0.172049 0.534103 -0.146484
C39   C     C_R   0.009392 0.237232 0.606960 -0.102983
C40   C     C_R   0.093968 0.263400 0.655630 -0.121575
C41   C     C_R   0.203052 0.224869 0.631327 -0.086714
C42   C     C_R   0.770905 0.838370 0.440308 0.129340
C43   C     C_R   0.794028 0.773091 0.366701 -0.085590
C44   C     C_R   0.902029 0.732946 0.341610 -0.119816
C45   C     C_R   0.267257 0.454754 0.037352 -0.234637
C46   C     C_R   0.988549 0.759125 0.388683 -0.104138
C47   C     C_R   0.967473 0.825869 0.460725 -0.144963
C48   C     C_R   0.859169 0.865504 0.486504 -0.170094
C49   C     C_R   0.725248 0.482192 0.962025 -0.234708
C50   C     C_R   0.460605 0.184804 0.506965 -0.099995
C51   C     C_R   0.539562 0.815130 0.492530 -0.100445
C52   C     C_R   0.663013 0.988567 0.467599 -0.249939
Cu1   Cu    Cu3+1 0.386820 0.492450 0.493500 0.937861
Cu2   Cu    Cu3+1 0.613180 0.507550 0.506500 0.937792
H1    H     H_    0.171275 0.443424 0.070874 0.136957
H2    H     H_    0.192311 0.468199 0.771441 0.145128
H3    H     H_    0.125311 0.450635 0.931005 0.125013
H4    H     H_    0.868290 0.495697 0.068534 0.125416
H5    H     H_    0.311290 0.450871 0.156059 0.138995
H6    H     H_    0.679464 0.471735 0.843185 0.141642
H7    H     H_    0.654577 0.189099 0.467978 0.151376
H8    H     H_    0.345655 0.810938 0.531971 0.151551
H9    H     H_    0.751220 0.038896 0.449161 0.130372
H10   H     H_    0.249127 0.960890 0.549609 0.130824
H11   H     H_    0.173603 0.594248 0.582209 0.115208
H12   H     H_    0.819796 0.481997 0.928419 0.136845
H13   H     H_    0.826394 0.405766 0.417772 0.114410
H14   H     H_    0.160447 0.083844 0.452345 0.129708
H15   H     H_    0.967656 0.151527 0.496652 0.124213
H16   H     H_    0.925189 0.267378 0.625733 0.128079
H17   H     H_    0.074808 0.313363 0.712307 0.115214
H18   H     H_    0.267656 0.245415 0.669782 0.107788
H19   H     H_    0.727842 0.752414 0.329540 0.104771
H20   H     H_    0.918644 0.681537 0.285666 0.118191
H21   H     H_    0.071926 0.727732 0.369339 0.128668
H22   H     H_    0.034740 0.846359 0.496944 0.124682
H23   H     H_    0.238330 0.365889 0.384488 0.124062
H24   H     H_    0.843568 0.916481 0.542876 0.129743
H25   H     H_    0.761750 0.634252 0.615388 0.124047
H26   H     H_    0.970191 0.650217 0.629797 0.133553
H27   H     H_    0.029913 0.349960 0.370040 0.132145
H28   H     H_    0.438909 0.502506 0.222912 0.151265
H29   H     H_    0.562676 0.507593 0.777060 0.149703
H30   H     H_    0.804553 0.505361 0.228456 0.145080
N1    N     N_R   0.216750 0.481110 0.483710 -0.176456
N2    N     N_R   0.783250 0.518890 0.516290 -0.176291
O1    O     O_R   0.419950 0.645670 0.495380 -0.587819
O2    O     O_R   0.580050 0.354330 0.504620 -0.587712
O3    O     O_R   0.611110 0.658410 0.506370 -0.574841
O4    O     O_R   0.388890 0.341590 0.493630 -0.575117
O5    O     O_R   0.350820 0.490050 0.621260 -0.587446
O6    O     O_R   0.649180 0.509950 0.378740 -0.587697
O7    O     O_R   0.541970 0.502800 0.632250 -0.591726
O8    O     O_R   0.458030 0.497200 0.367750 -0.591604

loop_
_geom_bond_atom_site_label_1
_geom_bond_atom_site_label_2
_ccdc_geom_bond_type
C1    O1    A    
C30   C32   A    
C21   C26   A    
C4    C36   S    
C3    C42   S    
C43   H19   S    
C23   C45   A    
C40   H17   S    
C27   C29   A    
C14   C18   A    
C2    C7    A    
C25   H2    S    
C22   H3    S    
C7    C8    A    
Cu1   Cu2   S    
C23   H5    S    
C16   O7    A    
C30   C35   A    
C6    H7    S    
C12   O4    A    
C36   C37   A    
C24   C26   A    
C47   H22   S    
C38   C39   A    
C20   C25   A    
C11   N2    A    
C15   H11   S    
C37   H14   S    
C29   C33   A    
C18   C19   A    
C48   H24   S    
Cu2   O7    S    
C15   C19   A    
C9    C19   A    
C44   C46   A    
C22   C25   A    
Cu1   O5    S    
C1    O3    A    
C14   H13   S    
C8    C52   A    
C15   N1    A    
C38   H15   S    
C34   H6    S    
C36   C41   A    
C17   O6    A    
C46   H21   S    
C2    H10   S    
C13   H23   S    
C22   C31   A    
C12   O2    A    
C28   H28   S    
C14   N2    A    
Cu2   O3    S    
C49   H12   S    
C39   C40   A    
Cu2   N2    S    
C3    C51   A    
C6    C8    A    
C10   C13   A    
C17   C21   S    
C4    C50   A    
C9    H26   S    
C2    C4    A    
C43   C44   A    
C24   C32   A    
Cu2   O6    S    
C37   C38   A    
C1    C51   S    
C47   C48   A    
C16   C20   S    
C33   C34   A    
Cu1   O1    S    
C42   C48   A    
C6    C50   A    
C44   H20   S    
C9    C11   A    
C11   H25   S    
C41   H18   S    
C40   C41   A    
C21   C28   A    
C23   C35   A    
C42   C43   A    
C5    C7    A    
C46   C47   A    
C34   C49   A    
C26   H30   S    
Cu1   O8    S    
C52   H9    S    
C12   C50   S    
C3    C52   A    
C20   C27   A    
C10   H27   S    
C27   H29   S    
C29   C31   A    
Cu2   O2    S    
C10   C18   A    
C28   C30   A    
C33   C35   A    
C39   H16   S    
C5    H8    S    
C32   C49   A    
C45   H1    S    
C16   O5    A    
C24   H4    S    
C31   C45   A    
C13   N1    A    
Cu1   O4    S    
C5    C51   A    
Cu1   N1    S    
C17   O8    A    
