data_mof_unit_54491.cif
_audit_creation_date              2012-12-10T17:54:16-0500
_audit_creation_method            fapswitch 2.2
_symmetry_space_group_name_H-M    P1
_symmetry_Int_Tables_number       1
_space_group_crystal_system       triclinic
_cell_length_a                    27.750628
_cell_length_b                    10.728804
_cell_length_c                    9.914196
_cell_angle_alpha                 87.824701
_cell_angle_beta                  89.894461
_cell_angle_gamma                 93.892746
_cell_volume                      2942.80278485

loop_
_atom_site_label
_atom_site_type_symbol
_atom_type_description
_atom_site_fract_x
_atom_site_fract_y
_atom_site_fract_z
_atom_type_partial_charge
C1    C     C_R   0.502918 0.260410 0.503798 0.914190
C2    C     C_R   0.972780 0.405342 0.488199 0.043782
C3    C     C_R   0.976538 0.634922 0.452830 0.057761
C4    C     C_R   0.406079 0.503562 0.499991 0.879559
C5    C     C_R   0.949416 0.518618 0.472912 0.068841
C6    C     C_R   0.944205 0.292876 0.515793 -0.218361
C7    C     C_R   0.894286 0.291242 0.522527 -0.136168
C8    C     C_R   0.870966 0.401532 0.503011 -0.019554
C9    C     C_R   0.898327 0.515586 0.478258 -0.052463
C10   C     C_R   0.874477 0.626608 0.459089 -0.019703
C11   C     C_R   0.824032 0.621578 0.465767 0.496791
C12   C     C_R   0.276646 0.543256 0.607306 0.052105
C13   C     C_R   0.820600 0.400765 0.508624 0.493806
C14   C     C_R   0.721463 0.497835 0.374457 -0.121991
C15   C     C_R   0.671428 0.495338 0.376038 -0.217416
C16   C     C_R   0.498340 0.739568 0.496988 0.879150
C17   C     C_R   0.672478 0.509788 0.620047 -0.181689
C18   C     C_R   0.722705 0.512760 0.618854 0.141923
C19   C     C_R   0.747125 0.506670 0.495083 0.289105
C20   C     C_R   0.023746 0.408150 0.477765 0.057343
C21   C     C_R   0.051065 0.525157 0.467165 0.070126
C22   C     C_R   0.027700 0.638596 0.457275 0.028032
C23   C     C_R   0.253444 0.531353 0.481970 0.281012
C24   C     C_R   0.048499 0.297337 0.477364 -0.219176
C25   C     C_R   0.106630 0.756323 0.456523 0.140047
C26   C     C_R   0.951302 0.743892 0.428843 -0.217966
C27   C     C_R   0.901273 0.739618 0.432666 -0.141245
C28   C     C_R   0.593900 0.500393 0.499807 0.882090
C29   C     C_R   0.056348 0.752547 0.454712 -0.270519
C30   C     C_R   0.483556 0.094198 0.757518 -0.222277
C31   C     C_R   0.458631 0.018598 0.857576 0.106975
C32   C     C_R   0.435742 0.904037 0.822013 0.138643
C33   C     C_R   0.443031 0.860865 0.693436 -0.153061
C34   C     C_R   0.102253 0.528421 0.467398 -0.092954
C35   C     C_R   0.474726 0.928548 0.600794 0.016642
C36   C     C_R   0.488475 0.052957 0.623987 0.033342
C37   C     C_R   0.508303 0.127740 0.513280 -0.163256
C38   C     C_R   0.527835 0.072903 0.400990 0.092801
C39   C     C_R   0.523095 0.944635 0.391428 0.046225
C40   C     C_R   0.175842 0.419185 0.477784 0.515241
C41   C     C_R   0.495951 0.872545 0.490947 -0.167287
C42   C     C_R   0.424055 0.349196 0.134765 0.137704
C43   C     C_R   0.386115 0.298506 0.056154 -0.275762
C44   C     C_R   0.390231 0.297404 0.918610 -0.240754
C45   C     C_R   0.125552 0.415524 0.473791 -0.010714
C46   C     C_R   0.430912 0.353534 0.857137 -0.125531
C47   C     C_R   0.465126 0.427507 0.928172 0.073528
C48   C     C_R   0.463743 0.426858 0.073158 0.146966
C49   C     C_R   0.533157 0.570514 0.068857 -0.196808
C50   C     C_R   0.533005 0.571552 0.925420 0.171572
C51   C     C_R   0.180952 0.642255 0.464576 0.523139
C52   C     C_R   0.279917 0.514180 0.364923 0.146376
C53   C     C_R   0.329594 0.506064 0.373156 -0.333416
C54   C     C_R   0.326846 0.536000 0.615435 0.078095
C55   C     C_R   0.098407 0.301216 0.476183 -0.142517
C56   C     C_R   0.130203 0.643950 0.462070 -0.032792
C57   C     C_R   0.353469 0.514149 0.497747 -0.105001
C58   C     C_R   0.646588 0.501465 0.498803 -0.087979
H1    H     H_    0.653880 0.514665 0.715640 0.169152
H2    H     H_    0.123739 0.926225 0.367048 0.187530
H3    H     H_    0.968997 0.834282 0.404041 0.139987
H4    H     H_    0.883664 0.825780 0.414680 0.190379
H5    H     H_    0.772031 0.602946 0.736476 0.202132
H6    H     H_    0.768883 0.445249 0.756424 0.209284
H7    H     H_    0.040903 0.841909 0.455164 0.135055
H8    H     H_    0.589930 0.119290 0.296512 0.205266
H9    H     H_    0.538579 0.132959 0.205952 0.203843
H10   H     H_    0.502353 0.178940 0.789766 0.177908
H11   H     H_    0.477359 0.140663 0.006349 0.183520
H12   H     H_    0.560147 0.628149 0.120805 0.144238
H13   H     H_    0.422354 0.066048 0.022763 0.191450
H14   H     H_    0.223444 0.486608 0.740433 0.198506
H15   H     H_    0.231803 0.643658 0.714520 0.214161
H16   H     H_    0.379088 0.876124 0.950559 0.182483
H17   H     H_    0.429486 0.806673 0.000674 0.203928
H18   H     H_    0.425801 0.770933 0.669152 0.170537
H19   H     H_    0.570922 0.826803 0.318707 0.201041
H20   H     H_    0.521284 0.847292 0.218538 0.217181
H21   H     H_    0.389850 0.301398 0.311852 0.167492
H22   H     H_    0.430301 0.203113 0.263753 0.171533
H23   H     H_    0.874025 0.202733 0.543818 0.192628
H24   H     H_    0.355805 0.244569 0.103566 0.158097
H25   H     H_    0.363258 0.245780 0.860122 0.169320
H26   H     H_    0.434892 0.335121 0.753457 0.213856
H27   H     H_    0.563799 0.742659 0.876483 0.177306
H28   H     H_    0.602271 0.627149 0.882080 0.160367
H29   H     H_    0.115657 0.213519 0.477626 0.181837
H30   H     H_    0.652290 0.488728 0.281189 0.169549
H31   H     H_    0.740462 0.493178 0.279451 0.145509
H32   H     H_    0.959253 0.204268 0.536300 0.140401
H33   H     H_    0.349279 0.493018 0.280929 0.182662
H34   H     H_    0.030419 0.205386 0.475681 0.134545
H35   H     H_    0.344240 0.642411 0.774492 0.208055
H36   H     H_    0.334953 0.487786 0.812947 0.212636
H37   H     H_    0.271073 0.573933 0.171632 0.192270
H38   H     H_    0.263035 0.417474 0.198846 0.196249
H39   H     H_    0.122636 0.924284 0.537729 0.182559
N1    N     N_R   0.202122 0.531181 0.474450 -0.347394
N2    N     N_3   0.458105 0.054466 0.995737 -0.477017
N3    N     N_3   0.249509 0.561167 0.727488 -0.476795
N4    N     N_3   0.407683 0.826241 0.917656 -0.469696
N5    N     N_3   0.547032 0.890815 0.281164 -0.468113
N6    N     N_3   0.424175 0.298068 0.268837 -0.367560
N7    N     N_3   0.567945 0.650351 0.850829 -0.389455
N8    N     N_R   0.798472 0.509878 0.490757 -0.359169
N9    N     N_R   0.499540 0.498800 0.142780 -0.114196
N10   N     N_R   0.499520 0.498720 0.857170 -0.117321
N11   N     N_3   0.350598 0.553276 0.742367 -0.418167
N12   N     N_3   0.255914 0.503632 0.237703 -0.438012
N13   N     N_3   0.133213 0.875827 0.454257 -0.369046
N14   N     N_3   0.748340 0.522921 0.743585 -0.463966
N15   N     N_3   0.554705 0.148060 0.299699 -0.423386
O1    O     O_R   0.500000 0.316780 0.614690 -0.670142
O2    O     O_R   0.571250 0.499990 0.614680 -0.603282
O3    O     O_R   0.571240 0.499970 0.385350 -0.621732
O4    O     O_2   0.198548 0.311738 0.485894 -0.564000
O5    O     O_2   0.793828 0.292169 0.531513 -0.555009
O6    O     O_2   0.209222 0.749701 0.457702 -0.532262
O7    O     O_2   0.800591 0.727127 0.447756 -0.554202
O8    O     O_R   0.500000 0.316750 0.385360 -0.574229
O9    O     O_R   0.428760 0.500030 0.614650 -0.620112
O10   O     O_R   0.428750 0.500010 0.385320 -0.609068
O11   O     O_R   0.500000 0.683250 0.614640 -0.594383
O12   O     O_R   0.500000 0.683220 0.385310 -0.633169
Zn1   Zn    Zn3+2 0.500000 0.500020 0.653130 0.955005
Zn2   Zn    Zn3+2 0.500000 0.499980 0.346870 0.954871

loop_
_geom_bond_atom_site_label_1
_geom_bond_atom_site_label_2
_ccdc_geom_bond_type
C10   C27   A    
H15   N3    S    
C34   C56   A    
C8    C13   A    
C22   C29   A    
H20   N5    S    
C35   C36   A    
C25   C56   A    
C44   H25   S    
H28   N7    S    
C42   N6    S    
C7    C8    A    
C39   C41   A    
C31   C32   A    
C24   C55   A    
C50   N7    S    
C12   C23   A    
H36   N11   S    
C26   C27   A    
O3    Zn2   S    
C36   C37   A    
C28   O3    A    
C26   H3    S    
C18   C19   A    
H35   N11   S    
C40   N1    A    
C30   C31   A    
O8    Zn2   S    
O11   Zn1   S    
O1    Zn1   S    
C51   O6    S    
C51   C56   A    
O9    Zn1   S    
C48   N9    A    
C20   C24   A    
C8    C9    A    
C30   C36   A    
C4    C57   S    
C53   H33   S    
C31   N2    S    
C9    C10   A    
C1    C37   S    
C17   C58   A    
C51   N1    A    
C11   O7    S    
C21   C22   A    
C55   H29   S    
H21   N6    S    
H19   N5    S    
C2    C6    A    
C1    O1    A    
C24   H34   S    
C44   C46   A    
C25   C29   A    
C40   C45   A    
H22   N6    S    
C2    C20   A    
C18   N14   S    
N10   Zn1   S    
C13   N8    A    
H37   N12   S    
O2    Zn1   S    
C53   C57   A    
H6    N14   S    
C21   C34   A    
C6    H32   S    
H13   N2    S    
C1    O8    A    
O10   Zn2   S    
C43   C44   A    
C14   H31   S    
C11   N8    A    
C37   C38   A    
C27   H4    S    
C33   H18   S    
C47   C48   A    
C17   C18   A    
C4    O10   A    
C34   C45   A    
C42   C48   A    
C49   N9    A    
H27   N7    S    
C28   O2    A    
C25   N13   S    
C17   H1    S    
H16   N4    S    
C29   H7    S    
H11   N2    S    
C7    H23   S    
C47   N10   A    
C49   H12   S    
C50   N10   A    
C15   C58   A    
C46   H26   S    
C2    C5    A    
C42   C43   A    
C38   N15   S    
C19   N8    S    
C52   C53   A    
C39   N5    S    
O12   Zn2   S    
H14   N3    S    
C46   C47   A    
C14   C15   A    
C14   C19   A    
C16   O11   A    
C3    C26   A    
C5    C9    A    
C3    C5    A    
C40   O4    S    
C13   O5    S    
C6    C7    A    
C28   C58   S    
H38   N12   S    
N9    Zn2   S    
C54   N11   S    
C32   C33   A    
C16   O12   A    
H39   N13   S    
C23   C52   A    
C38   C39   A    
C52   N12   S    
C33   C35   A    
C4    O9    A    
H5    N14   S    
C35   C41   A    
C30   H10   S    
C12   N3    S    
H2    N13   S    
C10   C11   A    
H9    N15   S    
C23   N1    S    
C20   C21   A    
C45   C55   A    
C49   C50   A    
H17   N4    S    
C43   H24   S    
C32   N4    S    
C3    C22   A    
H8    N15   S    
C16   C41   S    
C12   C54   A    
C15   H30   S    
C54   C57   A    
