data_mof_unit_46813.cif
_audit_creation_date              2012-12-11T15:53:37-0500
_audit_creation_method            fapswitch 2.2
_symmetry_space_group_name_H-M    P1
_symmetry_Int_Tables_number       1
_space_group_crystal_system       triclinic
_cell_length_a                    6.927057
_cell_length_b                    14.545512
_cell_length_c                    15.968089
_cell_angle_alpha                 90.49607
_cell_angle_beta                  90.104771
_cell_angle_gamma                 89.854377
_cell_volume                      1608.83805103

loop_
_atom_site_label
_atom_site_type_symbol
_atom_type_description
_atom_site_fract_x
_atom_site_fract_y
_atom_site_fract_z
_atom_type_partial_charge
O1    O     O_R   0.361600 0.167310 0.164620 -0.548909
O2    O     O_R   0.638400 0.832690 0.835380 -0.548909
O3    O     O_R   0.691080 0.157570 0.338750 -0.549678
O4    O     O_R   0.308920 0.842430 0.661250 -0.549678
O5    O     O_R   0.861410 0.336420 0.339360 -0.534971
O6    O     O_R   0.138590 0.663580 0.660640 -0.534971
C1    C     C_R   0.522202 0.135252 0.367557 0.707182
C2    C     C_R   0.477798 0.864748 0.632442 0.707182
O7    O     O_R   0.691320 0.156280 0.165240 -0.548824
O8    O     O_R   0.308680 0.843720 0.834760 -0.548824
O9    O     O_R   0.861640 0.335130 0.164600 -0.518913
O10   O     O_R   0.138360 0.664870 0.835400 -0.518913
C3    C     C_R   0.522288 0.133805 0.136053 0.679518
C4    C     C_R   0.477712 0.866194 0.863947 0.679519
O11   O     O_R   0.361370 0.168600 0.339370 -0.541102
O12   O     O_R   0.638630 0.831400 0.660630 -0.541102
O13   O     O_3   0.527990 0.310540 0.251980 -0.338177
O14   O     O_3   0.472010 0.689460 0.748020 -0.338177
V1    V     V_3+5 0.802830 0.240980 0.251990 1.484689
V2    V     V_3+5 0.197170 0.759020 0.748010 1.484688
O15   O     O_R   0.191360 0.346160 0.165220 -0.534587
O16   O     O_R   0.808640 0.653840 0.834780 -0.534587
C5    C     C_R   0.021380 0.369887 0.137514 0.748593
C6    C     C_R   0.978620 0.630113 0.862486 0.748594
O17   O     O_R   0.191130 0.347440 0.338740 -0.528142
O18   O     O_R   0.808870 0.652560 0.661260 -0.528142
C7    C     C_R   0.022029 0.369598 0.367578 0.765466
C8    C     C_R   0.977970 0.630402 0.632421 0.765466
V3    V     V_3+5 0.302840 0.262750 0.251990 1.517034
V4    V     V_3+5 0.697160 0.737250 0.748010 1.517034
O19   O     O_3   0.027820 0.193180 0.251990 -0.389015
O20   O     O_3   0.972180 0.806820 0.748010 -0.389015
C9    C     C_3   0.821589 0.469452 0.481443 -0.159617
C10   C     C_3   0.178410 0.530548 0.518557 -0.159617
C11   C     C_3   0.922496 0.460099 0.567945 -0.176019
C12   C     C_3   0.077504 0.539901 0.432055 -0.176020
H1    H     H_    0.859664 0.427240 0.624114 0.173979
H2    H     H_    0.140335 0.572759 0.375885 0.173979
H3    H     H_    0.674052 0.444920 0.465847 0.175728
H4    H     H_    0.325947 0.555080 0.534153 0.175728
C13   C     C_3   0.989513 0.560888 0.562307 -0.124298
C14   C     C_3   0.010487 0.439112 0.437693 -0.124298
C15   C     C_3   0.889830 0.570312 0.476816 0.304146
C16   C     C_3   0.110170 0.429688 0.523184 0.304146
C17   C     C_R   0.840166 0.557421 0.989975 -0.175561
C18   C     C_R   0.159834 0.442579 0.010025 -0.175561
H5    H     H_    0.716691 0.602795 0.984016 0.175294
H6    H     H_    0.283309 0.397205 0.015984 0.175294
C19   C     C_R   0.847955 0.497211 0.057997 0.279222
C20   C     C_R   0.152045 0.502789 0.942003 0.279222
C21   C     C_R   0.009099 0.438165 0.068550 -0.151227
C22   C     C_R   0.990901 0.561835 0.931450 -0.151227
C23   C     C_R   0.679323 0.024233 0.466793 -0.132171
C24   C     C_R   0.320676 0.975767 0.533207 -0.132171
H7    H     H_    0.819892 0.041688 0.442101 0.118728
H8    H     H_    0.180108 0.958311 0.557899 0.118728
C25   C     C_R   0.668201 0.958971 0.530457 -0.103096
C26   C     C_R   0.331799 0.041029 0.469543 -0.103096
H9    H     H_    0.800791 0.928099 0.552848 0.124977
H10   H     H_    0.199209 0.071900 0.447152 0.124977
C27   C     C_R   0.488735 0.933904 0.564571 -0.041010
C28   C     C_R   0.511265 0.066095 0.435429 -0.041010
C29   C     C_R   0.679585 0.025333 0.032899 -0.140053
C30   C     C_R   0.320415 0.974667 0.967101 -0.140053
H11   H     H_    0.820425 0.043805 0.057166 0.115426
H12   H     H_    0.179575 0.956195 0.942833 0.115426
C31   C     C_R   0.668543 0.961247 0.967154 -0.138230
C32   C     C_R   0.331457 0.038753 0.032846 -0.138230
H13   H     H_    0.801429 0.932144 0.942952 0.116217
H14   H     H_    0.198571 0.067856 0.057047 0.116217
C33   C     C_R   0.488806 0.935045 0.933315 -0.042838
C34   C     C_R   0.511193 0.064955 0.066685 -0.042838
Br1   Br    Br    0.727657 0.672164 0.442987 -0.557884
Br2   Br    Br    0.272343 0.327836 0.557013 -0.557884
Br3   Br    Br    0.638322 0.504528 0.136496 -0.511877
Br4   Br    Br    0.361678 0.495472 0.863504 -0.511877

loop_
_geom_bond_atom_site_label_1
_geom_bond_atom_site_label_2
_ccdc_geom_bond_type
C15   Br1   S    
C29   H11   S    
C26   C28   A    
O13   V3    S    
C4    C33   S    
C12   C14   S    
O4    C2    A    
V1    O19   S    
O9    V1    S    
C9    H3    S    
C10   H4    S    
C9    C14   S    
C30   C32   A    
C11   H1    S    
O3    C1    A    
C6    C22   S    
C24   C26   A    
C25   H9    S    
O12   V4    S    
C8    C13   S    
C17   H5    S    
O7    C3    A    
O13   V1    S    
O5    C7    A    
O7    V1    S    
O6    C8    A    
O8    V2    S    
C19   C21   A    
C20   C22   A    
C19   Br3   S    
O3    V1    S    
O14   V4    S    
O14   V2    S    
C2    C27   S    
C1    O11   A    
C2    O12   A    
C13   C15   S    
C10   C13   S    
C14   C16   S    
O2    C4    A    
O11   V3    S    
C24   H8    S    
C23   H7    S    
O17   V3    S    
C29   C31   A    
C30   C33   A    
C9    C15   S    
C10   C16   S    
O8    C4    A    
C23   C25   A    
C17   C22   A    
O15   V3    S    
C18   C21   A    
C31   H13   S    
C30   H12   S    
C1    C28   S    
C20   Br4   S    
C23   C28   A    
C5    C21   S    
C17   C19   A    
C32   C34   A    
O10   V2    S    
O1    V3    S    
C16   Br2   S    
C11   C16   S    
C24   C27   A    
O18   V4    S    
O15   C5    A    
O16   C6    A    
O1    C3    A    
V2    O20   S    
C18   C20   A    
O16   V4    S    
C25   C27   A    
O5    V1    S    
C3    C34   S    
O17   C7    A    
O6    V2    S    
O10   C6    A    
O18   C8    A    
O2    V4    S    
C12   H2    S    
V3    O19   S    
V4    O20   S    
C7    C14   S    
O9    C5    A    
C9    C11   S    
C10   C12   S    
C31   C33   A    
C11   C13   S    
O4    V2    S    
C18   H6    S    
C29   C34   A    
C32   H14   S    
C12   C15   S    
C26   H10   S    
