data_mof_unit_65453.cif
_audit_creation_date              2012-12-10T17:59:39-0500
_audit_creation_method            fapswitch 2.2
_symmetry_space_group_name_H-M    P1
_symmetry_Int_Tables_number       1
_space_group_crystal_system       triclinic
_cell_length_a                    18.333581
_cell_length_b                    18.333638
_cell_length_c                    34.462662
_cell_angle_alpha                 89.988645
_cell_angle_beta                  90.025272
_cell_angle_gamma                 89.99975
_cell_volume                      11583.6312376

loop_
_atom_site_label
_atom_site_type_symbol
_atom_type_description
_atom_site_fract_x
_atom_site_fract_y
_atom_site_fract_z
_atom_type_partial_charge
C1    C     C_R   0.045004 0.550421 0.418566 0.051243
C2    C     C_R   0.454993 0.949582 0.081434 0.051494
C3    C     C_R   0.446684 0.041263 0.540862 0.047886
C4    C     C_R   0.044720 0.550212 0.459241 0.048856
C5    C     C_R   0.953632 0.451776 0.540963 0.013916
C6    C     C_R   0.446671 0.041243 0.459103 0.048003
C7    C     C_R   0.550164 0.956273 0.541006 0.012907
C8    C     C_R   0.454798 0.950325 0.958935 0.011715
C9    C     C_R   0.546124 0.048100 0.040972 0.011766
C10   C     C_R   0.055398 0.461837 0.959118 0.049555
C11   C     C_R   0.945770 0.538926 0.040803 0.049833
C12   C     C_R   0.546371 0.048221 0.959037 0.014018
C13   C     C_R   0.946690 0.539163 0.918008 0.068981
C14   C     C_R   0.455276 0.949791 0.040759 0.049037
C15   C     C_R   0.946230 0.539468 0.958890 0.012210
C16   C     C_R   0.055268 0.462078 0.040923 0.047500
C17   C     C_R   0.196254 0.696272 0.250009 0.040319
C18   C     C_R   0.803743 0.303730 0.749992 0.040551
C19   C     C_R   0.303720 0.196245 0.250008 0.040561
C20   C     C_R   0.696276 0.803751 0.749996 0.040677
C21   C     C_R   0.803747 0.303731 0.250004 0.040254
C22   C     C_R   0.196252 0.696270 0.749995 0.040805
C23   C     C_R   0.696262 0.803737 0.250006 0.040648
C24   C     C_R   0.055119 0.461928 0.081634 0.066127
C25   C     C_R   0.303730 0.196253 0.749987 0.040834
C26   C     C_R   0.196269 0.303745 0.750012 0.040857
C27   C     C_R   0.803728 0.696250 0.249985 0.040533
C28   C     C_R   0.303749 0.803728 0.750006 0.040812
C29   C     C_R   0.696249 0.196273 0.249993 0.040376
C30   C     C_R   0.803724 0.696249 0.750003 0.040690
C31   C     C_R   0.196278 0.303753 0.249995 0.040291
C32   C     C_R   0.696256 0.196271 0.750008 0.040555
C33   C     C_R   0.303747 0.803726 0.249989 0.040738
C34   C     C_R   0.999271 0.500982 0.479566 0.014811
C35   C     C_R   0.454681 0.950900 0.918095 0.055980
C36   C     C_R   0.999337 0.500830 0.520585 0.020679
C37   C     C_R   0.498402 0.998661 0.479492 0.011949
C38   C     C_R   0.498408 0.998671 0.520507 0.011897
C39   C     C_R   0.500663 0.999170 0.979415 0.020834
C40   C     C_R   0.500728 0.999018 0.020434 0.014976
C41   C     C_R   0.000730 0.500653 0.979426 0.009141
C42   C     C_R   0.000598 0.500576 0.020438 0.003240
C43   C     C_R   0.545324 0.048148 0.081837 0.066970
C44   C     C_R   0.055338 0.461286 0.918425 0.053107
C45   C     C_R   0.945409 0.538609 0.081520 0.064007
C46   C     C_R   0.000191 0.500877 0.398199 0.064367
C47   C     C_R   0.999836 0.500186 0.601867 0.094118
C48   C     C_R   0.498970 0.999990 0.398154 0.065568
C49   C     C_R   0.954019 0.451674 0.581812 0.054111
C50   C     C_R   0.498992 0.000025 0.601845 0.065576
C51   C     C_R   0.500163 0.999813 0.898133 0.094216
C52   C     C_R   0.499809 0.999123 0.101800 0.064680
C53   C     C_R   0.000834 0.499895 0.898111 0.067029
C54   C     C_R   0.000116 0.500117 0.101831 0.038081
C55   C     C_R   0.908949 0.403721 0.479803 -0.131341
C56   C     C_R   0.089777 0.598164 0.520259 -0.145770
C57   C     C_R   0.600842 0.914270 0.479897 -0.130830
C58   C     C_R   0.395525 0.082738 0.520087 -0.121522
C59   C     C_R   0.089434 0.598482 0.480030 -0.106764
C60   C     C_R   0.446906 0.041900 0.418424 0.053226
C61   C     C_R   0.908763 0.403723 0.520050 -0.130386
C62   C     C_R   0.395518 0.082728 0.479845 -0.121405
C63   C     C_R   0.600849 0.914280 0.520170 -0.130889
C64   C     C_R   0.410217 0.901843 0.979740 -0.145419
C65   C     C_R   0.591057 0.096272 0.020196 -0.130943
C66   C     C_R   0.109273 0.424050 0.979962 -0.120509
C67   C     C_R   0.892131 0.577063 0.019990 -0.106297
C68   C     C_R   0.591243 0.096271 0.979950 -0.130041
C69   C     C_R   0.410560 0.901525 0.019970 -0.106273
C70   C     C_R   0.892403 0.577453 0.979707 -0.145368
C71   C     C_R   0.550254 0.957098 0.581881 0.066793
C72   C     C_R   0.109259 0.424239 0.020233 -0.121483
C73   C     C_R   0.499545 0.000035 0.355808 0.540642
C74   C     C_R   0.499551 0.000048 0.644192 0.540315
C75   C     C_R   0.000079 0.500474 0.355825 0.540364
C76   C     C_R   0.999970 0.499973 0.644199 0.575863
C77   C     C_R   0.000479 0.499948 0.855791 0.541039
C78   C     C_R   0.999966 0.500019 0.144186 0.501732
C79   C     C_R   0.500030 0.000027 0.855801 0.575927
C80   C     C_R   0.499921 0.999526 0.144175 0.540115
C81   C     C_R   0.359865 0.140109 0.250005 0.506872
C82   C     C_R   0.954678 0.451849 0.418163 0.066735
C83   C     C_R   0.640132 0.859888 0.749997 0.507885
C84   C     C_R   0.859888 0.359876 0.250003 0.508510
C85   C     C_R   0.140112 0.640125 0.749997 0.505166
C86   C     C_R   0.640121 0.859881 0.250006 0.506343
C87   C     C_R   0.359875 0.140115 0.749990 0.504211
C88   C     C_R   0.140118 0.640130 0.250007 0.505123
C89   C     C_R   0.859880 0.359872 0.749994 0.509640
C90   C     C_R   0.359889 0.859875 0.750003 0.505238
C91   C     C_R   0.640111 0.140126 0.249996 0.510251
C92   C     C_R   0.859868 0.640112 0.750002 0.508070
C93   C     C_R   0.045316 0.549103 0.581905 0.055882
C94   C     C_R   0.140135 0.359890 0.249996 0.507721
C95   C     C_R   0.640119 0.140129 0.750006 0.509559
C96   C     C_R   0.359883 0.859869 0.249992 0.502782
C97   C     C_R   0.140125 0.359885 0.750009 0.504126
C98   C     C_R   0.859875 0.640115 0.249990 0.503376
C99   C     C_R   0.244293 0.809159 0.224567 -0.135165
C100  C     C_R   0.755792 0.190757 0.775372 -0.134520
C101  C     C_R   0.190786 0.244285 0.224602 -0.135107
C102  C     C_R   0.809289 0.755791 0.775343 -0.134372
C103  C     C_R   0.755759 0.190764 0.224639 -0.134397
C104  C     C_R   0.550233 0.957066 0.418152 0.066850
C105  C     C_R   0.244249 0.809229 0.775366 -0.134545
C106  C     C_R   0.809210 0.755777 0.224625 -0.135341
C107  C     C_R   0.190820 0.244251 0.775396 -0.135261
C108  C     C_R   0.244271 0.190777 0.775380 -0.134530
C109  C     C_R   0.755757 0.809249 0.224638 -0.135174
C110  C     C_R   0.190773 0.755779 0.775358 -0.136330
C111  C     C_R   0.809235 0.244213 0.224647 -0.135979
C112  C     C_R   0.755843 0.809270 0.775336 -0.135932
C113  C     C_R   0.244228 0.190802 0.224612 -0.134221
C114  C     C_R   0.809264 0.244209 0.775361 -0.135656
C115  C     C_R   0.446928 0.041934 0.581541 0.053083
C116  C     C_R   0.190818 0.755710 0.224580 -0.134748
C117  C     C_R   0.744207 0.309244 0.724629 -0.134571
C118  C     C_R   0.255709 0.690839 0.275431 -0.135440
C119  C     C_R   0.690712 0.744210 0.724655 -0.134461
C120  C     C_R   0.309211 0.255712 0.275401 -0.135029
C121  C     C_R   0.255753 0.690769 0.724635 -0.134593
C122  C     C_R   0.744235 0.309242 0.275357 -0.134524
C123  C     C_R   0.309179 0.255747 0.724602 -0.135227
C124  C     C_R   0.690776 0.744206 0.275363 -0.134658
C125  C     C_R   0.744230 0.690735 0.275350 -0.136094
C126  C     C_R   0.545984 0.048323 0.918188 0.054201
C127  C     C_R   0.255728 0.309221 0.724618 -0.134526
C128  C     C_R   0.690759 0.255793 0.275348 -0.135764
C129  C     C_R   0.309229 0.744219 0.724643 -0.136363
C130  C     C_R   0.255770 0.309195 0.275391 -0.134284
C131  C     C_R   0.744157 0.690731 0.724662 -0.136063
C132  C     C_R   0.309184 0.744288 0.275418 -0.134860
C133  C     C_R   0.690735 0.255793 0.724640 -0.135758
C134  C     C_R   0.953879 0.451897 0.459028 0.011608
C135  C     C_R   0.045199 0.549678 0.541065 0.011612
C136  C     C_R   0.550152 0.956254 0.459027 0.013000
H1    H     H_    0.873334 0.365405 0.465294 0.110836
H2    H     H_    0.626674 0.134586 0.034706 0.111156
H3    H     H_    0.151888 0.393854 0.965303 0.158435
H4    H     H_    0.849469 0.607121 0.034693 0.157243
H5    H     H_    0.627016 0.134568 0.965544 0.111521
H6    H     H_    0.375089 0.863196 0.034646 0.158076
H7    H     H_    0.849805 0.607836 0.965200 0.111572
H8    H     H_    0.151867 0.394193 0.035012 0.158009
H9    H     H_    0.239034 0.854586 0.204662 0.138331
H10   H     H_    0.761121 0.145261 0.795227 0.140081
H11   H     H_    0.145314 0.239017 0.204723 0.138165
H12   H     H_    0.125532 0.636406 0.534725 0.112052
H13   H     H_    0.854824 0.761124 0.795177 0.140128
H14   H     H_    0.761068 0.145270 0.204793 0.140108
H15   H     H_    0.238948 0.854714 0.795218 0.140462
H16   H     H_    0.854684 0.761102 0.204771 0.138303
H17   H     H_    0.145376 0.238957 0.795271 0.138245
H18   H     H_    0.238988 0.145295 0.795244 0.139910
H19   H     H_    0.761068 0.854760 0.204795 0.139568
H20   H     H_    0.145287 0.761103 0.795202 0.139290
H21   H     H_    0.854729 0.238881 0.204809 0.139021
H22   H     H_    0.761216 0.854789 0.795163 0.139215
H23   H     H_    0.641223 0.880964 0.465436 0.110808
H24   H     H_    0.238915 0.145342 0.204742 0.139531
H25   H     H_    0.854780 0.238877 0.795207 0.139203
H26   H     H_    0.145368 0.760975 0.204686 0.139672
H27   H     H_    0.738877 0.354741 0.704774 0.139951
H28   H     H_    0.260968 0.645412 0.295337 0.138119
H29   H     H_    0.645177 0.738878 0.704821 0.139998
H30   H     H_    0.354683 0.260979 0.295281 0.138026
H31   H     H_    0.261054 0.645284 0.704783 0.140366
H32   H     H_    0.738927 0.354736 0.295203 0.139955
H33   H     H_    0.354622 0.261040 0.704726 0.138143
H34   H     H_    0.355180 0.115865 0.534775 0.158296
H35   H     H_    0.645301 0.738880 0.295216 0.140033
H36   H     H_    0.738919 0.645224 0.295194 0.138986
H37   H     H_    0.261011 0.354703 0.704754 0.139827
H38   H     H_    0.645265 0.261125 0.295186 0.138878
H39   H     H_    0.354715 0.738895 0.704799 0.139153
H40   H     H_    0.261083 0.354655 0.295260 0.139360
H41   H     H_    0.738784 0.645212 0.704836 0.138998
H42   H     H_    0.354634 0.739022 0.295312 0.139639
H43   H     H_    0.645218 0.261125 0.704794 0.138961
H44   H     H_    0.056883 0.631727 0.378752 0.233959
H45   H     H_    0.124902 0.636814 0.465354 0.157805
H46   H     H_    0.130457 0.575239 0.383246 0.260902
H47   H     H_    0.854935 0.410571 0.596783 0.233478
H48   H     H_    0.924046 0.348180 0.595878 0.224237
H49   H     H_    0.418282 0.125690 0.382798 0.259556
H50   H     H_    0.365308 0.049615 0.378523 0.232909
H51   H     H_    0.655357 0.933533 0.596015 0.223243
H52   H     H_    0.597253 0.860811 0.597121 0.232502
H53   H     H_    0.856077 0.409938 0.402864 0.232066
H54   H     H_    0.925650 0.348072 0.404116 0.223785
H55   H     H_    0.144523 0.590124 0.596759 0.234506
H56   H     H_    0.872993 0.365423 0.534455 0.111247
H57   H     H_    0.075289 0.652405 0.596368 0.224262
H58   H     H_    0.655332 0.933495 0.404068 0.223274
H59   H     H_    0.597228 0.860774 0.402960 0.232654
H60   H     H_    0.418320 0.125727 0.617137 0.259690
H61   H     H_    0.365330 0.049663 0.621401 0.232445
H62   H     H_    0.645071 0.089419 0.903217 0.233729
H63   H     H_    0.575964 0.151815 0.904122 0.224323
H64   H     H_    0.443108 0.868277 0.121248 0.234188
H65   H     H_    0.369538 0.924769 0.116754 0.260972
H66   H     H_    0.840544 0.556060 0.903432 0.224228
H67   H     H_    0.355169 0.115848 0.465130 0.158367
H68   H     H_    0.893772 0.632422 0.902978 0.233226
H69   H     H_    0.089553 0.381329 0.117861 0.259020
H70   H     H_    0.137365 0.460800 0.121320 0.234878
H71   H     H_    0.355471 0.909886 0.903241 0.234593
H72   H     H_    0.424701 0.847600 0.903632 0.224495
H73   H     H_    0.643927 0.090053 0.097137 0.232383
H74   H     H_    0.574359 0.151923 0.095884 0.223855
H75   H     H_    0.088920 0.380197 0.882335 0.258484
H76   H     H_    0.137639 0.459079 0.878840 0.230972
H77   H     H_    0.910579 0.618859 0.117825 0.259500
H78   H     H_    0.641234 0.880980 0.534657 0.110759
H79   H     H_    0.862711 0.539372 0.120897 0.234186
H80   H     H_    0.374458 0.863604 0.965275 0.112278
N1    N     N_3   0.089410 0.602720 0.398332 -0.651151
N2    N     N_3   0.410584 0.897285 0.101667 -0.650749
N3    N     N_3   0.891747 0.576950 0.896042 -0.615896
N4    N     N_3   0.112246 0.424434 0.102142 -0.647930
N5    N     N_3   0.410238 0.900992 0.896257 -0.617846
N6    N     N_3   0.588942 0.098775 0.103681 -0.611432
N7    N     N_3   0.112090 0.423067 0.898042 -0.650698
N8    N     N_3   0.888057 0.575920 0.101908 -0.649712
N9    N     N_3   0.909773 0.401465 0.603555 -0.618357
N10   N     N_3   0.392640 0.083660 0.398047 -0.650045
N11   N     N_3   0.603035 0.916152 0.603751 -0.613906
N12   N     N_3   0.911064 0.401220 0.396318 -0.611441
N13   N     N_3   0.089756 0.599013 0.603743 -0.617940
N14   N     N_3   0.603009 0.916112 0.396316 -0.613850
N15   N     N_3   0.392669 0.083704 0.601883 -0.650266
N16   N     N_3   0.590233 0.098529 0.896445 -0.618252
O1    O     O_3   0.500000 0.000000 0.250000 -0.442472
O2    O     O_R   0.500000 0.939270 0.662450 -0.513498
O3    O     O_R   0.939270 0.500000 0.337550 -0.511309
O4    O     O_R   0.060730 0.500000 0.662450 -0.520033
O5    O     O_R   0.000000 0.439270 0.837550 -0.557088
O6    O     O_R   0.000000 0.560730 0.162450 -0.548718
O7    O     O_R   0.560730 0.000000 0.837550 -0.521122
O8    O     O_R   0.439270 1.000000 0.162450 -0.558840
O9    O     O_R   0.000000 0.560730 0.837550 -0.515476
O10   O     O_R   0.000000 0.439270 0.162450 -0.549731
O11   O     O_R   0.439270 0.000000 0.837550 -0.520010
O12   O     O_3   0.500000 0.000000 0.750000 -0.446608
O13   O     O_R   0.560730 1.000000 0.162450 -0.511668
O14   O     O_R   0.414490 0.146150 0.273020 -0.552580
O15   O     O_R   0.585510 0.853850 0.726980 -0.543550
O16   O     O_R   0.853850 0.414490 0.273020 -0.543050
O17   O     O_R   0.146150 0.585510 0.726980 -0.545048
O18   O     O_R   0.585510 0.853850 0.273020 -0.543935
O19   O     O_R   0.414490 0.146150 0.726980 -0.553452
O20   O     O_R   0.146150 0.585510 0.273020 -0.552969
O21   O     O_R   0.853850 0.414490 0.726980 -0.543960
O22   O     O_R   0.414490 0.853850 0.726980 -0.552547
O23   O     O_3   0.000000 0.500000 0.250000 -0.438459
O24   O     O_R   0.585510 0.146150 0.273020 -0.547692
O25   O     O_R   0.853850 0.585510 0.726980 -0.550955
O26   O     O_R   0.146150 0.414490 0.273020 -0.546664
O27   O     O_R   0.585510 0.146150 0.726980 -0.547992
O28   O     O_R   0.414490 0.853850 0.273020 -0.551327
O29   O     O_R   0.146150 0.414490 0.726980 -0.550187
O30   O     O_R   0.853850 0.585510 0.273020 -0.551166
O31   O     O_R   0.914490 0.646150 0.773020 -0.543600
O32   O     O_R   0.085510 0.353850 0.226980 -0.550975
O33   O     O_R   0.353850 0.914490 0.773020 -0.545018
O34   O     O_3   0.000000 0.500000 0.750000 -0.446660
O35   O     O_R   0.646150 0.085510 0.226980 -0.542635
O36   O     O_R   0.085510 0.353850 0.773020 -0.553491
O37   O     O_R   0.914490 0.646150 0.226980 -0.552247
O38   O     O_R   0.646150 0.085510 0.773020 -0.543920
O39   O     O_R   0.353850 0.914490 0.226980 -0.553698
O40   O     O_R   0.914490 0.353850 0.226980 -0.548721
O41   O     O_R   0.085510 0.646150 0.773020 -0.552627
O42   O     O_R   0.353850 0.085510 0.226980 -0.546983
O43   O     O_R   0.646150 0.914490 0.773020 -0.550945
O44   O     O_R   0.085510 0.646150 0.226980 -0.547874
O45   O     O_R   0.500000 0.939270 0.337550 -0.512718
O46   O     O_R   0.914490 0.353850 0.773020 -0.547745
O47   O     O_R   0.646150 0.914490 0.226980 -0.551879
O48   O     O_R   0.353850 0.085510 0.773020 -0.550122
O49   O     O_R   0.500000 0.060730 0.662450 -0.558656
O50   O     O_R   0.060730 0.500000 0.337550 -0.558724
O51   O     O_R   0.939270 0.500000 0.662450 -0.521296
O52   O     O_R   0.500000 0.060730 0.337550 -0.558652
Zn1   Zn    Zn3+2 0.413190 0.000000 0.217350 0.924538
Zn2   Zn    Zn3+2 0.086810 0.500000 0.282650 0.927351
Zn3   Zn    Zn3+2 0.500000 0.913190 0.717350 0.944420
Zn4   Zn    Zn3+2 0.500000 0.086810 0.282650 0.929965
Zn5   Zn    Zn3+2 0.086810 0.500000 0.717350 0.944983
Zn6   Zn    Zn3+2 0.913190 0.500000 0.282650 0.945392
Zn7   Zn    Zn3+2 0.500000 0.086810 0.717350 0.926845
Zn8   Zn    Zn3+2 0.500000 0.913190 0.282650 0.942839
Zn9   Zn    Zn3+2 0.586810 1.000000 0.782650 0.950110
Zn10  Zn    Zn3+2 0.000000 0.413190 0.217350 0.927797
Zn11  Zn    Zn3+2 0.000000 0.586810 0.782650 0.944332
Zn12  Zn    Zn3+2 0.586810 0.000000 0.217350 0.948313
Zn13  Zn    Zn3+2 0.413190 1.000000 0.782650 0.945194
Zn14  Zn    Zn3+2 0.000000 0.586810 0.217350 0.922916
Zn15  Zn    Zn3+2 0.000000 0.413190 0.782650 0.928087
Zn16  Zn    Zn3+2 0.913190 0.500000 0.717350 0.950087

loop_
_geom_bond_atom_site_label_1
_geom_bond_atom_site_label_2
_ccdc_geom_bond_type
C94   O32   A    
C105  C110  A    
H69   N4    S    
O19   Zn7   S    
H58   N14   S    
O3    Zn6   S    
H52   N11   S    
C117  C133  A    
C131  H41   S    
C120  H30   S    
O45   Zn8   S    
C117  H27   S    
C118  H28   S    
C112  H22   S    
C31   C101  A    
C47   C76   S    
C31   C130  A    
C35   N5    S    
C32   C133  A    
C1    C46   A    
C12   C126  A    
C19   C113  A    
C24   C54   A    
C30   C131  A    
C5    C36   A    
C101  C113  A    
O21   Zn16  S    
C46   C75   S    
C44   C53   A    
C66   C72   A    
C48   C60   A    
C79   O11   A    
C74   O2    A    
C97   O29   A    
C88   O20   A    
C57   H23   S    
C78   O6    A    
C10   C41   A    
H73   N6    S    
C45   N8    S    
C5    C49   A    
C91   O35   A    
C28   C90   S    
C105  H15   S    
C106  H16   S    
H68   N3    S    
C43   N6    S    
C99   C116  A    
C114  H25   S    
C73   O45   A    
C69   H6    S    
C82   N12   S    
O34   Zn11  S    
C8    C35   A    
C82   C134  A    
C37   C38   A    
C65   C68   A    
H75   N7    S    
C30   C102  A    
C47   C93   A    
O1    Zn8   S    
C44   N7    S    
C2    C52   A    
C17   C118  A    
O49   Zn7   S    
C24   N4    S    
C73   O52   A    
C19   C120  A    
C35   C51   A    
H64   N2    S    
C14   C69   A    
C36   C135  A    
C29   C91   S    
C72   H8    S    
C18   C89   S    
O36   Zn15  S    
C55   H1    S    
C56   C59   A    
C60   N10   S    
C87   O48   A    
C2    C14   A    
C9    C65   A    
C102  H13   S    
O39   Zn1   S    
C83   O15   A    
C2    N2    S    
C129  H39   S    
C132  H42   S    
O28   Zn8   S    
C85   O17   A    
H74   N6    S    
O14   Zn4   S    
H47   N9    S    
C92   O25   A    
C87   O19   A    
C12   C68   A    
O23   Zn2   S    
C70   H7    S    
C77   O9    A    
C50   C74   S    
H77   N8    S    
C43   C52   A    
O1    Zn4   S    
C34   C134  A    
O2    Zn3   S    
O18   Zn8   S    
C81   O42   A    
C22   C85   S    
O12   Zn7   S    
C103  H14   S    
C46   C82   A    
C74   O49   A    
C119  C131  A    
C107  C108  A    
O4    Zn5   S    
C119  H29   S    
C99   H9    S    
O23   Zn6   S    
H44   N1    S    
O23   Zn10  S    
C83   O43   A    
O37   Zn14  S    
C57   C63   A    
C10   C66   A    
C98   O37   A    
C9    C43   A    
C10   C44   A    
C90   O33   A    
C100  C114  A    
C30   C92   S    
C39   C40   A    
C27   C106  A    
C32   C100  A    
C33   C99   A    
H51   N11   S    
C98   O30   A    
O25   Zn16  S    
C123  C127  A    
H55   N13   S    
C5    C61   A    
C76   O4    A    
C64   C69   A    
C25   C123  A    
C7    C63   A    
C107  H17   S    
C8    C64   A    
C33   C132  A    
H71   N5    S    
C49   N9    S    
C33   C96   S    
C95   O38   A    
C15   C70   A    
C101  H11   S    
C104  C136  A    
O34   Zn15  S    
C51   C126  A    
C81   O14   A    
C93   C135  A    
O44   Zn14  S    
C31   C94   S    
C128  H38   S    
O1    Zn12  S    
C84   O16   A    
C67   C70   A    
C94   O26   A    
C55   C61   A    
C85   O41   A    
C34   C36   A    
C26   C127  A    
C63   H78   S    
C51   C79   S    
C118  C132  A    
C26   C97   S    
C32   C95   S    
C108  H18   S    
H46   N1    S    
O31   Zn11  S    
C19   C81   S    
O40   Zn10  S    
C106  C109  A    
C58   C62   A    
C86   O18   A    
C41   C42   A    
C102  C112  A    
C16   C72   A    
H57   N13   S    
H79   N8    S    
O22   Zn3   S    
C96   O39   A    
C75   O50   A    
H65   N2    S    
O12   Zn9   S    
O13   Zn12  S    
C25   C87   S    
O24   Zn4   S    
C11   C42   A    
C103  C111  A    
C50   C115  A    
O41   Zn11  S    
C21   C122  A    
C59   H45   S    
O43   Zn9   S    
C20   C112  A    
O1    Zn1   S    
C22   C110  A    
C23   C86   S    
O29   Zn5   S    
C77   O5    A    
O48   Zn13  S    
O32   Zn10  S    
H48   N9    S    
C23   C109  A    
C21   C111  A    
C13   C53   A    
H61   N15   S    
C121  H31   S    
C122  H32   S    
O8    Zn1   S    
O52   Zn4   S    
C15   C41   A    
H70   N4    S    
C9    C40   A    
H59   N14   S    
C126  N16   S    
H63   N16   S    
C104  N14   S    
O46   Zn15  S    
C21   C84   S    
C28   C105  A    
C96   O28   A    
C37   C136  A    
O23   Zn14  S    
C18   C117  A    
C65   H2    S    
H54   N12   S    
C11   C45   A    
H53   N12   S    
C22   C121  A    
C48   C73   S    
C121  C129  A    
O9    Zn11  S    
C55   C134  A    
O33   Zn13  S    
C6    C62   A    
C12   C39   A    
C111  H21   S    
C3    C115  A    
C27   C125  A    
C124  H35   S    
C122  C128  A    
C109  H19   S    
C92   O31   A    
C110  H20   S    
C3    C58   A    
C1    N1    S    
C52   C80   S    
C20   C119  A    
O5    Zn15  S    
C25   C108  A    
C54   C78   S    
C127  H37   S    
C27   C98   S    
C17   C88   S    
C76   O51   A    
C53   C77   S    
C79   O7    A    
C50   C71   A    
C18   C114  A    
C47   C49   A    
C95   O27   A    
C78   O10   A    
C120  C130  A    
C116  H26   S    
C58   H34   S    
C7    C71   A    
H62   N16   S    
C91   O24   A    
O47   Zn12  S    
C48   C104  A    
C29   C103  A    
C28   C129  A    
C125  H36   S    
O51   Zn16  S    
C66   H3    S    
C3    C38   A    
C100  H10   S    
C61   H56   S    
C57   C136  A    
C75   O3    A    
C8    C39   A    
C115  N15   S    
O11   Zn13  S    
O17   Zn5   S    
C16   C24   A    
C89   O21   A    
C11   C67   A    
O12   Zn13  S    
O10   Zn10  S    
C4    C34   A    
C84   O40   A    
O34   Zn16  S    
C6    C60   A    
O15   Zn3   S    
C133  H43   S    
C130  H40   S    
H72   N5    S    
O30   Zn6   S    
H66   N3    S    
C56   H12   S    
C97   O36   A    
H50   N10   S    
H60   N15   S    
O27   Zn7   S    
C6    C37   A    
C68   H5    S    
O42   Zn1   S    
C86   O47   A    
C13   N3    S    
C67   H4    S    
C123  H33   S    
O6    Zn14  S    
C45   C54   A    
O50   Zn2   S    
C13   C15   A    
C29   C128  A    
C16   C42   A    
C56   C135  A    
C93   N13   S    
C71   N11   S    
C64   H80   S    
O20   Zn2   S    
C26   C107  A    
C23   C124  A    
O7    Zn9   S    
O16   Zn6   S    
O26   Zn2   S    
C1    C4    A    
C80   O8    A    
C88   O44   A    
O38   Zn9   S    
H49   N10   S    
C4    C59   A    
C89   O46   A    
C7    C38   A    
O34   Zn5   S    
C113  H24   S    
C90   O22   A    
O35   Zn12  S    
C62   H67   S    
C14   C40   A    
O12   Zn3   S    
C20   C83   S    
C80   O13   A    
C17   C116  A    
C124  C125  A    
H76   N7    S    
