data_mof_unit_50117.cif
_audit_creation_date              2013-03-05T15:55:02-0500
_audit_creation_method            fapswitch 2.2
_symmetry_space_group_name_H-M    P1
_symmetry_Int_Tables_number       1
_space_group_crystal_system       triclinic
_cell_length_a                    11.69558
_cell_length_b                    12.362142
_cell_length_c                    13.243663
_cell_angle_alpha                 116.542579
_cell_angle_beta                  77.407118
_cell_angle_gamma                 101.37459
_cell_volume                      1660.82073141

loop_
_atom_site_label
_atom_site_type_symbol
_atom_site_description
_atom_site_fract_x
_atom_site_fract_y
_atom_site_fract_z
_atom_type_partial_charge
O1    O     O_R   0.533340 0.972510 0.318140 -0.543002
O2    O     O_R   0.488570 0.806530 0.359650 -0.612913
C1    C     C_R   0.506244 0.854802 0.287044 0.793095
O3    O     O_R   0.685190 0.083000 0.479260 -0.519748
O4    O     O_R   0.640410 0.917020 0.520770 -0.609643
C2    C     C_R   0.715770 0.999775 0.499644 0.829293
Cu1   Cu    Cu3+1 0.526510 0.098270 0.475420 1.033116
Cu2   Cu    Cu3+1 0.473490 0.901730 0.524580 0.945565
O5    O     O_R   0.511430 0.193470 0.640350 -0.594817
O6    O     O_R   0.466660 0.027490 0.681860 -0.589933
O7    O     O_R   0.359590 0.082980 0.479230 -0.544662
O8    O     O_R   0.314810 0.917000 0.520740 -0.585131
C3    C     C_R   0.482377 0.144976 0.713215 0.797236
C4    C     C_R   0.284227 0.000144 0.500229 0.809441
C5    C     C_1   0.837558 0.999686 0.499489 -0.125620
C6    C     C_1   0.940107 0.999721 0.499506 0.048177
C7    C     C_1   0.059958 0.999861 0.499719 0.057454
C8    C     C_1   0.162475 0.999993 0.499974 -0.111709
C9    C     C_R   0.392281 0.264974 0.031125 -0.105889
H1    H     H_    0.401220 0.086776 0.894923 0.162200
H2    H     H_    0.348396 0.226933 0.090613 0.204729
C10   C     C_R   0.464539 0.227282 0.834714 -0.063127
C11   C     C_R   0.562373 0.816302 0.083785 -0.169726
C12   C     C_R   0.602542 0.737439 0.973497 -0.190834
C13   C     C_R   0.586854 0.611869 0.940712 0.253983
C14   C     C_R   0.509237 0.562911 0.014084 0.044089
C15   C     C_R   0.468377 0.644991 0.126983 -0.037047
C16   C     C_R   0.473283 0.436026 0.981159 0.027070
C17   C     C_R   0.415901 0.391726 0.064089 0.011959
C18   C     C_R   0.374683 0.474883 0.174719 0.295351
C19   C     C_R   0.391855 0.598613 0.200414 -0.233796
C20   C     C_R   0.485545 0.352434 0.866564 -0.155784
C21   C     C_R   0.420544 0.183585 0.917995 -0.195229
C22   C     C_R   0.507290 0.771540 0.164546 -0.098132
H3    H     H_    0.505097 0.383937 0.800266 0.195889
H4    H     H_    0.583157 0.912801 0.107734 0.218545
H5    H     H_    0.655589 0.775104 0.916223 0.157790
H6    H     H_    0.345382 0.658073 0.280147 0.210410
C23   C     C_R   0.694407 0.350410 0.333937 0.179717
N1    N     N_R   0.566700 0.246290 0.438210 -0.272030
C24   C     C_R   0.339365 0.758610 0.642243 0.024262
C25   C     C_R   0.292387 0.656162 0.661640 -0.280017
C26   C     C_R   0.343289 0.547102 0.599168 0.360247
C27   C     C_R   0.452246 0.545149 0.524496 -0.054175
C28   C     C_R   0.492045 0.651418 0.503410 0.220812
C29   C     C_R   0.522742 0.444032 0.468912 -0.056407
C30   C     C_R   0.623469 0.447599 0.386220 -0.039446
C31   C     C_R   0.652477 0.549516 0.360221 0.213714
C32   C     C_R   0.589383 0.648659 0.420374 -0.220389
C33   C     C_R   0.501246 0.341743 0.495771 0.027176
C34   C     C_R   0.663057 0.250181 0.360188 0.413693
N2    N     N_R   0.434010 0.754320 0.561170 -0.197254
H7    H     H_    0.436428 0.337732 0.565518 0.186878
H8    H     H_    0.295402 0.840157 0.687328 0.152964
H9    H     H_    0.210931 0.659453 0.720020 0.189655
H10   H     H_    0.619618 0.722278 0.397090 0.206280
N3    N     N_2   0.748077 0.556198 0.274993 -0.373403
H11   H     H_    0.800973 0.638390 0.300316 0.256728
C35   C     C_3   0.714626 0.518864 0.164363 -0.584732
H12   H     H_    0.795241 0.512050 0.100488 0.240321
H13   H     H_    0.663907 0.587310 0.167309 0.200439
H14   H     H_    0.660913 0.428440 0.137318 0.248226
N4    N     N_R   0.803050 0.354579 0.259735 0.178295
O9    O     O_R   0.812506 0.279772 0.152110 -0.302486
O10   O     O_R   0.897135 0.418729 0.303071 -0.269394
N5    N     N_R   0.273776 0.438769 0.601820 0.101026
O11   O     O_R   0.246825 0.348958 0.507167 -0.267943
O12   O     O_R   0.219298 0.438556 0.698554 -0.373662
N6    N     N_R   0.311428 0.435832 0.260957 0.131167
O13   O     O_R   0.221027 0.489228 0.328984 -0.291198
O14   O     O_R   0.356668 0.364131 0.285626 -0.352659
N7    N     N_2   0.658078 0.539168 0.839414 -0.465653
H15   H     H_    0.682695 0.574138 0.779178 0.256563
C36   C     C_3   0.756236 0.499370 0.858967 -0.631023
H16   H     H_    0.804146 0.440303 0.775846 0.251279
H17   H     H_    0.724676 0.445696 0.910130 0.233452
H18   H     H_    0.818102 0.579196 0.904221 0.235205
N8    N     N_R   0.740525 0.157578 0.312430 0.165187
O15   O     O_R   0.840505 0.181703 0.350392 -0.294042
O16   O     O_R   0.730957 0.071014 0.211419 -0.356022

loop_
_geom_bond_atom_site_label_1
_geom_bond_atom_site_label_2
_geom_bond_distance
_ccdc_geom_bond_type
N5    O12   1.301397 A    
N4    O10   1.301349 A    
C24   C25   1.388009 A    
C4    C8    1.424330 S    
C23   C34   1.393106 A    
C31   N3    1.423937 S    
Cu1   O7    1.915587 S    
C14   C15   1.420329 A    
C10   C20   1.394260 A    
C16   C17   1.423991 A    
C9    H2    1.079298 S    
C18   C19   1.392535 A    
O7    C4    1.301724 A    
N8    O16   1.298418 A    
N3    C35   1.444682 S    
C5    C6    1.199341 T    
N6    O14   1.300591 A    
O5    C3    1.303751 A    
C2    C5    1.424149 S    
C6    C7    1.401997 S    
C36   H18   1.111498 S    
Cu1   N1    2.043957 S    
Cu2   N2    2.031888 S    
C24   N2    1.354609 A    
Cu2   O8    1.915812 S    
N5    O11   1.301471 A    
C35   H12   1.109736 S    
O3    Cu1   1.915813 S    
C27   C29   1.450425 A    
C12   H5    1.083305 S    
C15   C22   1.422795 A    
C35   H13   1.108027 S    
C33   H7    1.072916 S    
C36   H16   1.110411 S    
C15   C19   1.411320 A    
C20   H3    1.076006 S    
C16   C20   1.397721 A    
C12   C13   1.397102 A    
O3    C2    1.301827 A    
C9    C21   1.390801 A    
N8    O15   1.301466 A    
C1    C22   1.481717 S    
C13   C14   1.434863 A    
O1    C1    1.314099 A    
C26   C27   1.429596 A    
C17   C18   1.406128 A    
C25   H9    1.083067 S    
C30   C31   1.410398 A    
C28   C32   1.393698 A    
C11   C12   1.383250 A    
C11   C22   1.397538 A    
C7    C8    1.199414 T    
C13   N7    1.425425 S    
C36   H17   1.109862 S    
H1    C21   1.083192 S    
N7    C36   1.446826 S    
C31   C32   1.381709 A    
O8    C4    1.301960 A    
C25   C26   1.400545 A    
N1    C34   1.362095 A    
C18   N6    1.438131 S    
C27   C28   1.431949 A    
C23   C30   1.417911 A    
Cu1   O5    1.950300 S    
C10   C21   1.395874 A    
C29   C30   1.431505 A    
C35   H14   1.111657 S    
O1    Cu1   1.960707 S    
O2    Cu2   1.950300 S    
N7    H15   1.032075 S    
O6    C3    1.305607 A    
O4    Cu2   1.915587 S    
C32   H10   1.060531 S    
C23   N4    1.434525 S    
C29   C33   1.423492 A    
C14   C16   1.426849 A    
C28   N2    1.381517 A    
C19   H6    1.079076 S    
O2    C1    1.304200 A    
C34   N8    1.429544 S    
N3    H11   1.032265 S    
O4    C2    1.301665 A    
C26   N5    1.433815 S    
N1    C33   1.362890 A    
C3    C10   1.463582 S    
N6    O13   1.301423 A    
C24   H8    1.081568 S    
Cu1   Cu2   2.712018 S    
N4    O9    1.301008 A    
Cu2   O6    1.960705 S    
C11   H4    1.078813 S    
C9    C17   1.411606 A    
