data_mof_unit_15231.cif
_audit_creation_date              2012-12-11T15:29:47-0500
_audit_creation_method            fapswitch 2.2
_symmetry_space_group_name_H-M    P1
_symmetry_Int_Tables_number       1
_space_group_crystal_system       triclinic
_cell_length_a                    8.220849
_cell_length_b                    14.924675
_cell_length_c                    18.973731
_cell_angle_alpha                 96.292877
_cell_angle_beta                  94.244144
_cell_angle_gamma                 97.905204
_cell_volume                      2282.53602874

loop_
_atom_site_label
_atom_site_type_symbol
_atom_type_description
_atom_site_fract_x
_atom_site_fract_y
_atom_site_fract_z
_atom_type_partial_charge
Ba1   Ba    Ba6+2 0.161760 0.544680 0.467770 1.627763
Ba2   Ba    Ba6+2 0.648420 0.455310 0.532170 1.624306
C1    C     C_3   0.401822 0.776544 0.207174 -0.364559
C2    C     C_3   0.423450 0.746648 0.280805 0.353401
C3    C     C_3   0.561334 0.733236 0.636013 0.300731
C4    C     C_3   0.598636 0.836083 0.655677 -0.406501
C5    C     C_3   0.828991 0.202714 0.674085 0.374465
C6    C     C_3   0.784232 0.104979 0.690100 -0.373404
C7    C     C_3   0.331204 0.213794 0.718719 0.374717
C8    C     C_3   0.434078 0.288482 0.771227 -0.263223
C9    C     C_R   0.162337 0.169994 0.547084 -0.011390
C10   C     C_R   0.094949 0.076828 0.541003 -0.029747
C11   C     C_R   0.957145 0.889272 0.528231 -0.033891
C12   C     C_3   0.956664 0.794509 0.320969 0.358781
C13   C     C_R   0.109626 0.921986 0.567395 -0.044062
C14   C     C_R   0.179247 0.013019 0.571702 -0.112101
C15   C     C_R   0.889877 0.795216 0.519352 0.042403
C16   C     C_R   0.735292 0.767445 0.481926 -0.301569
C17   C     C_R   0.917601 0.204508 0.481230 0.041311
C18   C     C_R   0.850536 0.110375 0.471871 -0.038745
C19   C     C_R   0.937796 0.046851 0.503624 0.009812
C20   C     C_R   0.699138 0.077534 0.431887 -0.043282
C21   C     C_R   0.629524 0.986381 0.427318 -0.099920
C22   C     C_R   0.712139 0.922862 0.459371 -0.035360
C23   C     C_3   0.986590 0.890789 0.300620 -0.372896
C24   C     C_R   0.869384 0.952811 0.496731 0.006489
C25   C     C_R   0.643338 0.829984 0.454409 -0.002136
C26   C     C_R   0.069908 0.232578 0.520331 -0.297328
C27   C     C_R   0.616743 0.539499 0.300059 -0.288407
C28   C     C_R   0.460801 0.491818 0.276390 0.069855
C29   C     C_R   0.405865 0.482683 0.203876 -0.133867
C30   C     C_R   0.510984 0.515825 0.154110 -0.019851
C31   C     C_R   0.670163 0.561447 0.178753 -0.137046
C32   C     C_R   0.723163 0.572159 0.251543 0.013566
C33   C     C_R   0.465763 0.580917 0.040241 -0.093418
C34   C     C_3   0.759506 0.346677 0.315136 0.314833
C35   C     C_R   0.408860 0.574651 0.968433 -0.084429
C36   C     C_R   0.337270 0.490695 0.930955 0.045216
C37   C     C_R   0.326947 0.412650 0.966334 -0.078580
C38   C     C_R   0.390102 0.416992 0.037995 0.069102
C39   C     C_R   0.454686 0.503406 0.076627 0.051817
C40   C     C_R   0.128178 0.434446 0.825903 -0.138763
C41   C     C_R   0.081497 0.425632 0.752491 0.017046
C42   C     C_R   0.341285 0.513864 0.734075 0.034579
C43   C     C_R   0.388117 0.524205 0.807221 -0.129787
C44   C     C_R   0.283092 0.483338 0.853818 -0.002401
C45   C     C_3   0.736306 0.323209 0.234609 -0.403833
C46   C     C_R   0.190626 0.462655 0.706933 -0.273578
C47   C     C_3   0.043440 0.654202 0.687072 0.321264
C48   C     C_3   0.001161 0.665008 0.764722 -0.186787
C49   C     C_3   0.249394 0.269625 0.374696 0.313324
C50   C     C_3   0.222151 0.166840 0.353934 -0.393785
H1    H     H_    0.341101 0.681182 0.281180 0.093349
H2    H     H_    0.629979 0.268226 0.219491 0.122880
H3    H     H_    0.712829 0.383683 0.208780 0.066692
H4    H     H_    0.849298 0.299931 0.214984 0.125361
H5    H     H_    0.175427 0.649118 0.685357 -0.005482
H6    H     H_    0.969673 0.589808 0.660581 0.045017
H7    H     H_    0.044145 0.609603 0.792283 0.053592
H8    H     H_    0.864807 0.657001 0.765107 0.107232
H9    H     H_    0.131464 0.291738 0.387977 0.007944
H10   H     H_    0.341371 0.286158 0.421797 0.072913
H11   H     H_    0.272862 0.788521 0.195177 0.151153
H12   H     H_    0.125751 0.147995 0.308539 0.121880
H13   H     H_    0.181926 0.131194 0.399263 0.065173
H14   H     H_    0.338755 0.143945 0.338283 0.120145
H15   H     H_    0.553841 0.736367 0.291335 -0.058704
H16   H     H_    0.429556 0.722505 0.166994 0.066791
H17   H     H_    0.675924 0.707689 0.621143 0.025271
H18   H     H_    0.466549 0.718587 0.589839 0.068561
H19   H     H_    0.696133 0.853073 0.700769 0.122475
H20   H     H_    0.642019 0.869251 0.609611 0.066110
H21   H     H_    0.485561 0.863267 0.671199 0.110745
H22   H     H_    0.487136 0.840287 0.204278 0.105370
H23   H     H_    0.960904 0.940125 0.345129 0.073871
H24   H     H_    0.745604 0.212966 0.627981 0.113414
H25   H     H_    0.957536 0.211704 0.659465 -0.072600
H26   H     H_    0.657836 0.093874 0.707336 0.151860
H27   H     H_    0.789995 0.056986 0.641635 0.074882
H28   H     H_    0.871343 0.089723 0.732947 0.104135
H29   H     H_    0.224738 0.243083 0.695994 -0.039408
H30   H     H_    0.475830 0.346194 0.741975 0.146458
H31   H     H_    0.360071 0.313985 0.813233 0.046496
H32   H     H_    0.038300 0.791914 0.369792 0.096216
H33   H     H_    0.541823 0.263077 0.796709 0.142369
H34   H     H_    0.178981 0.878041 0.594960 0.101738
H35   H     H_    0.299189 0.032598 0.600662 0.100621
H36   H     H_    0.510668 0.966561 0.397454 0.108948
H37   H     H_    0.630672 0.121562 0.403983 0.105928
H38   H     H_    0.682268 0.696332 0.477068 0.077001
H39   H     H_    0.122123 0.303889 0.526210 0.071876
H40   H     H_    0.506208 0.563468 0.827553 0.070299
H41   H     H_    0.419415 0.635854 0.942235 0.061810
H42   H     H_    0.518999 0.647057 0.067524 0.066667
H43   H     H_    0.825881 0.779530 0.332392 -0.063603
H44   H     H_    0.283672 0.446818 0.185876 0.085164
H45   H     H_    0.275393 0.347230 0.937097 0.061279
H46   H     H_    0.043326 0.405171 0.861109 0.074202
H47   H     H_    0.753927 0.586168 0.141377 0.077517
H48   H     H_    0.153798 0.456421 0.650448 0.065297
H49   H     H_    0.659393 0.546074 0.355972 0.072078
H50   H     H_    0.116919 0.908208 0.289137 0.145559
H51   H     H_    0.904054 0.896259 0.252719 0.109419
H52   H     H_    0.644377 0.366425 0.334186 0.009315
H53   H     H_    0.861759 0.404227 0.328673 0.067002
O1    O     O_2   0.165020 0.721890 0.541560 -0.468797
O2    O     O_3   0.305138 0.311546 0.316788 -0.637781
O3    O     O_3   0.992704 0.732784 0.264834 -0.601095
O4    O     O_2   0.645270 0.278050 0.458420 -0.468140
O5    O     O_3   0.917270 0.391510 0.460760 -0.492496
O6    O     O_3   0.421180 0.332490 0.586040 -0.465973
O7    O     O_3   0.795562 0.269501 0.345073 -0.640321
O8    O     O_3   0.383630 0.545490 0.584580 -0.475572
O9    O     O_3   0.845910 0.377930 0.622570 -0.486478
O10   O     O_2   0.747652 0.431955 0.748545 -0.491658
O11   O     O_3   0.811475 0.264019 0.733942 -0.609492
O12   O     O_3   0.893030 0.608480 0.539180 -0.487078
O13   O     O_3   0.426670 0.454500 0.415370 -0.489307
O14   O     O_2   0.638230 0.542350 0.670940 -0.456529
O15   O     O_3   0.504216 0.693418 0.694839 -0.653662
O16   O     O_2   0.495837 0.172510 0.534653 -0.493403
O17   O     O_3   0.434076 0.184029 0.667315 -0.612329
O18   O     O_3   0.389120 0.667500 0.413900 -0.486117
O19   O     O_2   0.304890 0.826893 0.461996 -0.488254
O20   O     O_3   0.010161 0.730624 0.654985 -0.652524
O21   O     O_3   0.381130 0.813841 0.331006 -0.609822
O22   O     O_2   0.172060 0.457600 0.329040 -0.463872
O23   O     O_3   0.964390 0.622060 0.377370 -0.489284
O24   O     O_2   0.060897 0.566158 0.251023 -0.489793
P1    P     P_3+3 0.990700 0.707490 0.561920 0.970754
P2    P     P_3+3 0.340130 0.430100 0.338870 0.981966
P3    P     P_3+3 0.935317 0.621804 0.285179 0.943808
P4    P     P_3+3 0.819590 0.292500 0.438020 0.971738
P5    P     P_3+3 0.872298 0.375455 0.714767 0.936784
P6    P     P_3+3 0.430253 0.785552 0.416272 0.936676
P7    P     P_3+3 0.465206 0.574967 0.673156 0.938197
P8    P     P_3+3 0.376348 0.214281 0.583381 0.934125
C51   C     C_3   0.073632 0.757455 0.807083 -0.196149
C52   C     C_3   0.261766 0.774927 0.812592 -0.386627
H54   H     H_    0.313929 0.715787 0.830900 0.125746
H55   H     H_    0.305039 0.788199 0.760235 0.165020
H56   H     H_    0.307160 0.836101 0.851372 0.109397
H57   H     H_    0.023887 0.813647 0.782712 0.138481
H58   H     H_    0.033450 0.758397 0.861787 0.101948
C53   C     C_3   0.264402 0.131313 0.755935 -0.198523
C54   C     C_3   0.166202 0.155691 0.819005 -0.489359
H59   H     H_    0.095183 0.092716 0.833715 0.135457
H60   H     H_    0.250704 0.187636 0.866090 0.130767
H61   H     H_    0.079145 0.203114 0.805363 0.153666
H62   H     H_    0.182173 0.081867 0.716326 0.090747
H63   H     H_    0.368061 0.096673 0.774700 0.115895
C55   C     C_3   0.394925 0.327646 0.068784 -0.218700
C56   C     C_3   0.516214 0.272604 0.032941 -0.415132
H64   H     H_    0.477697 0.253704 0.975293 0.127242
H65   H     H_    0.641788 0.312761 0.039674 0.137416
H66   H     H_    0.520712 0.209006 0.057948 0.123781
H67   H     H_    0.433507 0.337220 0.126419 0.110157
H68   H     H_    0.269568 0.287190 0.061310 0.104093

loop_
_geom_bond_atom_site_label_1
_geom_bond_atom_site_label_2
_ccdc_geom_bond_type
C42   P7    S    
C19   C24   A    
C8    H33   S    
C2    H1    S    
Ba2   O9    S    
C1    H16   S    
C49   H9    S    
C22   C25   A    
C12   H32   S    
O7    P4    S    
C53   C54   S    
Ba2   O13   S    
C5    C6    S    
Ba2   O4    S    
C43   C44   A    
C4    H20   S    
C29   H44   S    
C35   C36   A    
C48   H7    S    
C33   C35   A    
C22   C24   A    
C51   H57   S    
C40   H46   S    
C36   C37   A    
C52   H56   S    
C23   H50   S    
C37   H45   S    
O11   P5    S    
C13   C14   A    
C8    H31   S    
C47   H5    S    
C38   C55   S    
C34   C45   S    
Ba1   Ba2   S    
C40   C44   A    
C35   H41   S    
O16   P8    D    
C43   H40   S    
C1    H22   S    
C3    H17   S    
O13   P2    S    
O20   P1    S    
C10   C14   A    
Ba2   O14   S    
O8    P7    S    
C34   O7    S    
C14   H35   S    
C21   C22   A    
Ba1   O23   S    
C56   H65   S    
C7    C8    S    
O15   P7    S    
C53   H62   S    
Ba1   O1    S    
C5    H25   S    
O24   P3    D    
C12   O3    S    
C34   H53   S    
C32   P3    S    
C6    H26   S    
C49   H10   S    
Ba1   O8    S    
O23   P3    S    
Ba2   O12   S    
C15   C16   A    
C54   H60   S    
C4    H19   S    
C46   H48   S    
C55   H68   S    
Ba2   O6    S    
Ba2   P4    S    
O3    P3    S    
C3    O15   S    
O4    P4    D    
C49   C50   S    
C16   H38   S    
O2    P2    S    
Ba1   P1    S    
C50   H12   S    
C37   C38   A    
C23   H51   S    
C27   C32   A    
C8    H30   S    
C47   H6    S    
O18   P6    S    
C31   H47   S    
C5    O11   S    
C41   P5    S    
Ba1   O18   S    
C27   C28   A    
O12   P1    S    
Ba1   O5    S    
C6    H27   S    
C54   H61   S    
C29   C30   A    
C28   C29   A    
C30   C39   S    
C7    O17   S    
O9    P5    S    
C27   H49   S    
Ba1   O12   S    
C55   C56   S    
C56   H66   S    
C17   C26   A    
C53   H63   S    
C45   H2    S    
C38   C39   A    
C18   C20   A    
O21   P6    S    
C21   H36   S    
C13   H34   S    
C11   C24   A    
C40   C41   A    
C1    C2    S    
C12   H43   S    
C50   H14   S    
C42   C43   A    
O6    P8    S    
C4    H21   S    
C45   H3    S    
C54   H59   S    
C41   C46   A    
C33   H42   S    
O1    P1    D    
C55   H67   S    
Ba2   O5    S    
O19   P6    D    
C15   P1    S    
C16   C25   A    
Ba1   O22   S    
O17   P8    S    
Ba1   P2    S    
C3    H18   S    
C2    H15   S    
C52   H54   S    
C48   C51   S    
C5    H24   S    
O10   P5    D    
C1    H11   S    
C17   P4    S    
C47   O20   S    
O14   P7    D    
C2    O21   S    
C34   H52   S    
C48   H8    S    
C30   C31   A    
C17   C18   A    
C11   C13   A    
C9    P8    S    
C25   P6    S    
C51   H58   S    
C52   H55   S    
C3    C4    S    
C9    C26   A    
C10   C19   A    
C7    C53   S    
Ba2   O8    S    
C20   H37   S    
C31   C32   A    
C26   H39   S    
Ba1   O13   S    
C12   C23   S    
C33   C39   A    
O22   P2    D    
C36   C44   S    
C51   C52   S    
C11   C15   A    
C42   C46   A    
C18   C19   A    
C49   O2    S    
C47   C48   S    
C6    H28   S    
C20   C21   A    
O5    P4    S    
C23   H23   S    
C56   H64   S    
C50   H13   S    
C28   P2    S    
C9    C10   A    
C7    H29   S    
C45   H4    S    
