data_mof_unit_14139.cif
_audit_creation_date              2012-12-10T18:59:16-0500
_audit_creation_method            fapswitch 2.2
_symmetry_space_group_name_H-M    P1
_symmetry_Int_Tables_number       1
_space_group_crystal_system       triclinic
_cell_length_a                    10.767065
_cell_length_b                    10.84026
_cell_length_c                    9.519797
_cell_angle_alpha                 91.254566
_cell_angle_beta                  90.136473
_cell_angle_gamma                 89.977571
_cell_volume                      1110.86004118

loop_
_atom_site_label
_atom_site_type_symbol
_atom_type_description
_atom_site_fract_x
_atom_site_fract_y
_atom_site_fract_z
_atom_type_partial_charge
C1    C     C_R   0.491667 0.262260 0.497724 0.786610
C2    C     C_R   0.066200 0.392834 0.566075 0.101683
C3    C     C_R   0.128947 0.490112 0.499725 -0.085488
C4    C     C_R   0.063787 0.582157 0.430839 -0.202663
C5    C     C_R   0.935669 0.581940 0.431189 -0.224853
C6    C     C_R   0.871273 0.489480 0.500060 -0.094175
C7    C     C_R   0.513623 0.064934 0.612599 0.052960
C8    C     C_R   0.479544 0.128143 0.492182 -0.129472
C9    C     C_R   0.432656 0.059932 0.372451 0.026903
C10   C     C_R   0.423951 0.929676 0.380623 -0.066651
C11   C     C_R   0.465362 0.869207 0.502342 -0.179559
C12   C     C_R   0.262511 0.497744 0.499886 0.758775
C13   C     C_R   0.501726 0.938867 0.619348 0.073261
C14   C     C_3   0.447769 0.947188 0.765664 -0.091337
C15   C     C_3   0.468758 0.085619 0.759671 -0.483211
C16   C     C_R   0.606633 0.523802 0.074643 0.266699
C17   C     C_R   0.397337 0.466517 0.073248 -0.073059
C18   C     C_R   0.397530 0.465629 0.924497 -0.107340
C19   C     C_R   0.606649 0.523590 0.927016 0.267796
C20   C     C_3   0.681789 0.638743 0.923917 -0.510852
C21   C     C_3   0.681621 0.639347 0.083322 -0.501995
C22   C     C_R   0.487215 0.736680 0.501162 0.803844
C23   C     C_R   0.737526 0.496860 0.500047 0.799205
C24   C     C_R   0.130826 0.294551 0.628337 -0.253984
C25   C     C_R   0.066855 0.197916 0.689113 -0.175236
C26   C     C_R   0.937144 0.194964 0.686932 0.163056
C27   C     C_R   0.871573 0.292017 0.626003 -0.219742
C28   C     C_R   0.935021 0.392095 0.565764 0.070629
Cu1   Cu    Cu3+1 0.499990 0.499980 0.640670 0.915378
Cu2   Cu    Cu3+1 0.500010 0.500020 0.359330 0.941347
H1    H     H_    0.112521 0.655903 0.379101 0.156857
H2    H     H_    0.507511 0.903558 0.845979 0.150563
H3    H     H_    0.382964 0.142881 0.765145 0.194312
H4    H     H_    0.544356 0.118610 0.830762 0.177623
H5    H     H_    0.313414 0.442062 0.127682 0.160837
H6    H     H_    0.313937 0.439055 0.868666 0.153292
H7    H     H_    0.775305 0.622280 0.877964 0.207660
H8    H     H_    0.629413 0.716904 0.879130 0.208179
H9    H     H_    0.775188 0.623570 0.129121 0.196600
H10   H     H_    0.629457 0.718307 0.130858 0.219182
H11   H     H_    0.231054 0.289700 0.628448 0.146655
H12   H     H_    0.118723 0.124052 0.736499 0.127805
H13   H     H_    0.771297 0.286598 0.622832 0.143391
H14   H     H_    0.886312 0.655642 0.379809 0.142527
N1    N     N_R   0.500790 0.500930 0.147930 -0.183661
N2    N     N_R   0.500790 0.500890 0.852020 -0.189906
O1    O     O_R   0.500000 0.319640 0.618810 -0.583964
O2    O     O_R   0.500010 0.319680 0.381230 -0.589375
O3    O     O_R   0.319640 0.499980 0.618820 -0.601524
O4    O     O_R   0.319650 0.500020 0.381230 -0.585413
O5    O     O_R   0.499990 0.680320 0.618770 -0.590629
O6    O     O_R   0.500000 0.680360 0.381190 -0.564512
O7    O     O_R   0.680350 0.499980 0.618770 -0.579197
O8    O     O_R   0.680360 0.500020 0.381180 -0.575352
C29   C     C_3   0.869574 0.086614 0.747201 -0.422292
C30   C     C_3   0.883025 0.972161 0.650790 -0.340586
C31   C     C_3   0.823535 0.859480 0.715964 -0.860441
H15   H     H_    0.868328 0.839398 0.818112 0.255712
H16   H     H_    0.723345 0.876051 0.733851 0.255305
H17   H     H_    0.834295 0.778011 0.644294 0.246843
H18   H     H_    0.837454 0.989544 0.548141 0.221313
H19   H     H_    0.982818 0.952036 0.631291 0.213468
H20   H     H_    0.908026 0.067802 0.853157 0.197312
H21   H     H_    0.769289 0.108165 0.760430 0.192928
C32   C     C_3   0.381401 0.121789 0.241106 -0.377088
C33   C     C_3   0.251166 0.175124 0.268052 -0.320891
C34   C     C_3   0.179916 0.193057 0.130944 -0.872416
H22   H     H_    0.235852 0.246363 0.055689 0.242734
H23   H     H_    0.156909 0.102010 0.081709 0.249330
H24   H     H_    0.092050 0.243469 0.152944 0.250302
H25   H     H_    0.196473 0.111804 0.334382 0.219154
H26   H     H_    0.259052 0.264910 0.325331 0.226066
H27   H     H_    0.445204 0.191846 0.199373 0.212066
H28   H     H_    0.376260 0.055430 0.150933 0.196653
C35   C     C_1   0.361973 0.858549 0.269787 0.243837
N3    N     N_1   0.312528 0.801831 0.181725 -0.310964
C36   C     C_3   0.307941 0.916822 0.779386 -0.396520
C37   C     C_3   0.283155 0.778962 0.798007 -0.284102
C38   C     C_3   0.151313 0.755478 0.848990 -0.862913
H29   H     H_    0.134085 0.804604 0.950676 0.265703
H30   H     H_    0.083611 0.787034 0.769559 0.255418
H31   H     H_    0.137733 0.655010 0.863620 0.250815
H32   H     H_    0.292796 0.730608 0.695294 0.239153
H33   H     H_    0.350024 0.739929 0.874298 0.241969
H34   H     H_    0.272277 0.968034 0.873516 0.207672
H35   H     H_    0.255778 0.949377 0.686193 0.193982

loop_
_geom_bond_atom_site_label_1
_geom_bond_atom_site_label_2
_ccdc_geom_bond_type
C29   C30   S    
C16   C21   S    
C1    C8    S    
Cu2   N1    S    
C19   C20   S    
C26   C29   S    
C12   O3    A    
C19   N2    A    
C7    C8    A    
Cu1   O3    S    
C36   C37   S    
Cu2   O8    S    
C26   C27   A    
Cu1   O1    S    
Cu2   O2    S    
C17   N1    A    
C5    C6    A    
C31   H16   S    
C32   H27   S    
C30   C31   S    
C14   C36   S    
C3    C12   S    
C37   H32   S    
C33   H26   S    
C8    C9    A    
C29   H20   S    
C9    C10   A    
C15   H4    S    
C7    C15   S    
C33   C34   S    
Cu2   O4    S    
C36   H34   S    
C13   C14   S    
C24   H11   S    
C18   N2    A    
C23   O7    A    
C6    C28   A    
C34   H22   S    
C24   C25   A    
C38   H30   S    
C37   C38   S    
C1    O1    A    
C31   H17   S    
C25   C26   A    
C32   H28   S    
C34   H23   S    
C25   H12   S    
C35   N3    T    
Cu1   Cu2   S    
C37   H33   S    
C20   H8    S    
C10   C35   S    
C33   H25   S    
C21   H9    S    
C29   H21   S    
C17   C18   A    
C5    H14   S    
C36   H35   S    
C2    C24   A    
C30   H19   S    
C3    C4    A    
C23   O8    A    
C22   O6    A    
Cu1   O5    S    
Cu2   O6    S    
C30   H18   S    
C14   H2    S    
C4    C5    A    
C16   N1    A    
C38   H31   S    
C12   O4    A    
C1    O2    A    
C11   C22   S    
Cu1   N2    S    
C34   H24   S    
C2    C3    A    
C20   H7    S    
C11   C13   A    
C31   H15   S    
C21   H10   S    
Cu1   O7    S    
C16   C19   A    
C6    C23   S    
C9    C32   S    
C4    H1    S    
C10   C11   A    
C38   H29   S    
C27   H13   S    
C7    C13   A    
C20   C21   S    
C32   C33   S    
C27   C28   A    
C14   C15   S    
C2    C28   A    
C17   H5    S    
C18   H6    S    
C15   H3    S    
C22   O5    A    
