data_mof_unit_47781.cif
_audit_creation_date              2013-03-05T15:45:17-0500
_audit_creation_method            fapswitch 2.2
_symmetry_space_group_name_H-M    P1
_symmetry_Int_Tables_number       1
_space_group_crystal_system       triclinic
_cell_length_a                    8.176578
_cell_length_b                    13.078884
_cell_length_c                    19.24742
_cell_angle_alpha                 95.661092
_cell_angle_beta                  95.043973
_cell_angle_gamma                 97.38846
_cell_volume                      2020.70040477

loop_
_atom_site_label
_atom_site_type_symbol
_atom_site_description
_atom_site_fract_x
_atom_site_fract_y
_atom_site_fract_z
_atom_type_partial_charge
P1    P     P_3+3 0.986780 0.745970 0.554690 0.512985
O1    O     O_2   0.160820 0.763040 0.533820 -0.387947
O2    O     O_3   0.890970 0.628600 0.535400 -0.433132
O3    O     O_3   0.385950 0.698560 0.408070 -0.302964
O4    O     O_2   0.284747 0.874603 0.441112 -0.428797
O5    O     O_3   0.996932 0.786467 0.646127 -0.598151
O6    O     O_3   0.359593 0.849106 0.315515 -0.495974
H1    H     H_    0.560110 0.801289 0.271072 -0.008617
C1    C     C_3   0.437443 0.901160 0.206715 1.140451
H2    H     H_    0.350205 0.835124 0.177421 -0.039220
P2    P     P_3+3 0.341450 0.417130 0.341310 0.514062
P3    P     P_3+3 0.930774 0.635923 0.280729 0.503456
O7    O     O_2   0.172860 0.449730 0.330520 -0.392100
O8    O     O_3   0.962080 0.644700 0.373110 -0.410648
O9    O     O_2   0.065737 0.576614 0.250779 -0.348699
O10   O     O_3   0.300127 0.281409 0.324084 -0.543732
O11   O     O_3   0.974006 0.760582 0.256407 -0.504408
C2    C     C_3   0.938115 0.830031 0.311443 0.498915
H3    H     H_    0.033299 0.835341 0.356717 0.164371
H4    H     H_    0.814148 0.806668 0.328850 0.006555
C3    C     C_3   0.940889 0.936117 0.287116 -1.034500
H5    H     H_    0.924512 0.992142 0.332251 0.213792
H6    H     H_    0.059710 0.958725 0.265557 0.325331
C4    C     C_3   0.866362 0.269024 0.310281 1.085037
H7    H     H_    0.973830 0.317191 0.339710 0.012080
C5    C     C_3   0.924887 0.185387 0.262118 -0.825226
H8    H     H_    0.817520 0.130206 0.235872 0.277817
H9    H     H_    0.994326 0.221176 0.221522 0.250886
H10   H     H_    0.009111 0.143769 0.292719 0.186824
Ba1   Ba    Ba6+2 0.160910 0.552960 0.466220 1.611738
C6    C     C_3   0.140236 0.767513 0.686489 1.093972
H11   H     H_    0.240324 0.752446 0.653948 0.053537
C7    C     C_3   0.200453 0.861560 0.740600 -0.939955
H12   H     H_    0.245511 0.931828 0.717015 0.242954
H13   H     H_    0.303595 0.844172 0.777081 0.247749
H14   H     H_    0.098023 0.878835 0.772226 0.247357
C8    C     C_3   0.287251 0.234079 0.386255 0.398432
H15   H     H_    0.158815 0.230644 0.399845 -0.012810
H16   H     H_    0.371020 0.273923 0.431696 0.154156
C9    C     C_3   0.329910 0.124457 0.373954 -0.809997
H17   H     H_    0.236814 0.076402 0.335419 0.259789
H18   H     H_    0.333644 0.088256 0.423665 0.206539
H19   H     H_    0.451890 0.126071 0.352866 0.289227
P4    P     P_3+3 0.823520 0.254020 0.445250 0.393987
O12   O     O_2   0.649470 0.236890 0.466160 -0.354051
O13   O     O_3   0.919320 0.371390 0.464540 -0.497725
O14   O     O_3   0.424350 0.301430 0.591880 -0.386715
O15   O     O_3   0.757413 0.224233 0.354589 -0.618393
P5    P     P_3+3 0.868818 0.341797 0.715957 0.533198
O16   O     O_3   0.382770 0.553920 0.582990 -0.348486
O17   O     O_3   0.848220 0.355290 0.626830 -0.366588
O18   O     O_2   0.751651 0.412596 0.749126 -0.374152
O19   O     O_3   0.781103 0.215811 0.726039 -0.457585
Ba2   Ba    Ba6+2 0.649260 0.447030 0.533730 1.588287
P6    P     P_3+3 0.423293 0.832213 0.402425 0.474783
C10   C     C_3   0.497538 0.871409 0.278620 0.075032
H20   H     H_    0.584546 0.937979 0.306504 0.073908
O20   O     O_3   0.427530 0.446070 0.416950 -0.398068
C11   C     C_3   0.634503 0.756694 0.699832 1.257850
H21   H     H_    0.734750 0.716792 0.722618 0.000524
C12   C     C_3   0.658694 0.863540 0.741175 -1.128540
H22   H     H_    0.661479 0.856092 0.798293 0.237387
H23   H     H_    0.778303 0.906772 0.730761 0.260253
H24   H     H_    0.557111 0.907589 0.726057 0.256599
P7    P     P_3+3 0.455448 0.573020 0.673480 0.466325
O21   O     O_2   0.637430 0.550200 0.669460 -0.417212
O22   O     O_3   0.476565 0.704631 0.707388 -0.662213
H25   H     H_    0.839713 0.935426 0.245101 0.291976
C13   C     C_3   0.884217 0.144481 0.702263 0.456030
H26   H     H_    0.804308 0.076429 0.672367 0.107472
H27   H     H_    0.972710 0.174193 0.665753 0.027472
C14   C     C_3   0.976707 0.107997 0.765133 -0.970511
H28   H     H_    0.057600 0.051697 0.746514 0.226499
H29   H     H_    0.053983 0.174572 0.797494 0.290791
H30   H     H_    0.887532 0.070531 0.798343 0.284333
P8    P     P_3+3 0.394331 0.169637 0.593437 0.443588
C15   C     C_3   0.389564 0.216560 0.726541 0.443134
H31   H     H_    0.254866 0.217118 0.714300 0.020164
O23   O     O_2   0.536242 0.132475 0.554194 -0.392270
O24   O     O_3   0.446681 0.144312 0.679602 -0.510341
H32   H     H_    0.458754 0.294708 0.724720 0.153378
H33   H     H_    0.380953 0.244782 0.838337 0.249719
C16   C     C_3   0.421313 0.186605 0.800326 -0.861899
H34   H     H_    0.555474 0.184157 0.813635 0.297367
H35   H     H_    0.351753 0.109160 0.804555 0.254422
C17   C     C_R   0.084357 0.177472 0.522460 -0.538100
C18   C     C_R   0.733330 0.820156 0.474205 -0.364800
C19   C     C_R   0.703180 0.994726 0.447646 -0.237698
C20   C     C_R   0.637507 0.888722 0.444316 0.129132
C21   C     C_R   0.891135 0.852020 0.509600 0.367342
C22   C     C_R   0.960776 0.962314 0.514677 -0.200105
C23   C     C_R   0.863184 0.034702 0.482108 -0.074495
C24   C     C_R   0.926823 0.145114 0.486912 0.270974
C25   C     C_R   0.184265 0.109658 0.551365 0.044827
C26   C     C_R   0.122839 0.002656 0.550415 0.516593
H36   H     H_    0.627977 0.045694 0.423466 0.179816
H37   H     H_    0.132819 0.259026 0.526471 0.183750
H38   H     H_    0.681354 0.739369 0.471635 0.202113
C27   C     C_R   0.610534 0.539892 0.295452 0.248231
C28   C     C_R   0.457948 0.480044 0.273941 0.264310
C29   C     C_R   0.404361 0.461564 0.201722 -0.285868
C30   C     C_R   0.505504 0.502256 0.151878 0.096953
C31   C     C_R   0.664841 0.556020 0.175505 -0.322626
C32   C     C_R   0.718242 0.573438 0.247132 0.142213
C33   C     C_R   0.482783 0.569530 0.033851 -0.180196
C34   C     C_R   0.431494 0.557207 0.961892 -0.218386
C35   C     C_R   0.345441 0.462532 0.928704 0.004662
C36   C     C_R   0.311248 0.380441 0.970335 0.826767
C37   C     C_R   0.360891 0.393792 0.042666 -0.313489
C38   C     C_R   0.447846 0.488287 0.075312 0.098722
C39   C     C_R   0.134014 0.399226 0.824251 0.722365
C40   C     C_R   0.088130 0.384532 0.751756 0.005448
C41   C     C_R   0.348307 0.485614 0.731756 0.333252
C42   C     C_R   0.396949 0.496598 0.804333 -0.312444
C43   C     C_R   0.293047 0.450438 0.851322 -0.137272
C44   C     C_R   0.201523 0.420721 0.705778 -0.593660
H39   H     H_    0.513794 0.543381 0.824047 0.170955
H40   H     H_    0.457931 0.622662 0.932388 0.159618
H41   H     H_    0.548988 0.643368 0.057223 0.125634
H42   H     H_    0.284363 0.416670 0.184732 0.170442
H43   H     H_    0.334844 0.329007 0.072825 0.184207
H44   H     H_    0.748087 0.583140 0.138399 0.171354
H45   H     H_    0.165791 0.409598 0.649798 0.187714
O25   O     O_3   0.103622 0.685246 0.726833 -0.695069
C45   C     C_3   0.012362 0.600208 0.685383 -0.102836
H46   H     H_    0.084919 0.568163 0.644576 0.111280
H47   H     H_    0.897892 0.619335 0.659905 0.205868
H48   H     H_    0.972062 0.545407 0.721360 0.177198
O26   O     O_3   0.573740 0.933546 0.169869 -0.632481
C46   C     C_3   0.611709 0.850066 0.124867 -0.360702
H49   H     H_    0.510111 0.825259 0.081884 0.166947
H50   H     H_    0.637269 0.783756 0.154196 0.123553
H51   H     H_    0.725529 0.876363 0.100519 0.229026
F1    F     F_    0.649438 0.766766 0.629693 -0.728407
F2    F     F_    0.348520 0.983603 0.216464 -0.679303
O27   O     O_3   0.199736 0.943097 0.596176 -0.657362
C47   C     C_3   0.370074 0.936585 0.588812 0.027871
H52   H     H_    0.448755 0.976377 0.635014 0.147078
H53   H     H_    0.413923 0.964107 0.540958 0.150537
H54   H     H_    0.397757 0.856387 0.589279 0.163501
F3    F     F_    0.233776 0.285976 0.941354 -0.675739
F4    F     F_    0.019429 0.370682 0.868192 -0.642373
O28   O     O_3   0.658509 0.561769 0.365412 -0.667609
C48   C     C_3   0.749844 0.483728 0.384555 0.180654
H55   H     H_    0.851747 0.471220 0.352097 0.115910
H56   H     H_    0.673604 0.407762 0.383466 0.130119
H57   H     H_    0.809267 0.512003 0.436675 0.217376
F5    F     F_    0.781142 0.327841 0.267655 -0.734155

loop_
_geom_bond_atom_site_label_1
_geom_bond_atom_site_label_2
_geom_bond_distance
_ccdc_geom_bond_type
C33   C38   1.405977 A    
C19   H36   1.074879 S    
P1    C21   1.919823 S    
C44   H45   1.081769 S    
O2    Ba1   2.905484 S    
C2    C3    1.505594 S    
P1    O1    1.507572 D    
C39   C40   1.400418 A    
P8    O23   1.542696 D    
O6    P6    1.751473 S    
O19   C13   1.405885 S    
H1    C10   1.109677 S    
C42   C43   1.419562 A    
C30   C31   1.412716 A    
C15   H31   1.106955 S    
C10   H20   1.110670 S    
Ba1   Ba2   4.518608 S    
C5    H8    1.110805 S    
O16   Ba2   2.913164 S    
C27   O28   1.360578 S    
C4    C5    1.515748 S    
C6    O25   1.404692 S    
P3    C32   1.854399 S    
C8    C9    1.519699 S    
C14   H30   1.110039 S    
O2    Ba2   2.883241 S    
C34   C35   1.406134 A    
C15   C16   1.519497 S    
O28   C48   1.398983 S    
C7    H14   1.110953 S    
C36   C37   1.402800 A    
C12   H23   1.109490 S    
C2    H3    1.106702 S    
C13   H27   1.113251 S    
C17   H37   1.081831 S    
C26   O27   1.393510 S    
P4    C24   1.949608 S    
C17   C25   1.402602 A    
C39   F4    1.357996 S    
P8    C25   1.872137 S    
C9    H19   1.107885 S    
C19   C23   1.424088 A    
P2    Ba1   3.401649 S    
P5    O17   1.737488 S    
P3    O11   1.741765 S    
C45   H48   1.085863 S    
C35   C36   1.415949 A    
C6    C7    1.530181 S    
P2    O20   1.549454 S    
C1    H2    1.116877 S    
O10   C8    1.406303 S    
C41   C44   1.399856 A    
C11   O22   1.406732 S    
C9    H18   1.108404 S    
C27   C32   1.399356 A    
Ba1   O16   2.759338 S    
C47   H52   1.094308 S    
C11   H21   1.108386 S    
C3    H5    1.108903 S    
C34   H40   1.082571 S    
C12   H22   1.111717 S    
O6    C10   1.399518 S    
O8    Ba1   2.776336 S    
C48   H57   1.083547 S    
C36   F3    1.356282 S    
P4    O13   1.623276 S    
C7    H12   1.100472 S    
C28   C29   1.407839 A    
C3    H6    1.106675 S    
C47   H54   1.101849 S    
C11   C12   1.518869 S    
P1    O5    1.778721 S    
C4    O15   1.400705 S    
C29   C30   1.419368 A    
O7    Ba1   2.835029 S    
C4    H7    1.090675 S    
C14   H29   1.108003 S    
C4    F5    1.382851 S    
C22   C23   1.466117 A    
C14   H28   1.105890 S    
P7    O22   1.760920 S    
P2    C28   1.868660 S    
P1    O2    1.623304 S    
C13   C14   1.519786 S    
C46   H50   1.112191 S    
C8    H15   1.100808 S    
C17   C24   1.397898 A    
C47   H53   1.093970 S    
P2    O10   1.756395 S    
C16   H34   1.109610 S    
P3    O9    1.547773 D    
C15   H32   1.108059 S    
P5    O18   1.549808 D    
O13   Ba2   2.906406 S    
O11   C2    1.402396 S    
C25   C26   1.422546 A    
C1    C10   1.531042 S    
C23   C24   1.461703 A    
C35   C43   1.500238 S    
O14   Ba2   2.853531 S    
C1    F2    1.382836 S    
C48   H56   1.100216 S    
C9    H17   1.100128 S    
C16   H35   1.110090 S    
P3    O8    1.764228 S    
O12   Ba2   2.922590 S    
H33   C16   1.104682 S    
P5    C40   1.857898 S    
C3    H25   1.103360 S    
C45   H46   1.106998 S    
C30   C38   1.493310 S    
C46   H51   1.109135 S    
C40   C44   1.407426 A    
P4    O12   1.507972 D    
C41   C42   1.406499 A    
Ba2   O20   2.758865 S    
C15   O24   1.395160 S    
C29   H42   1.082552 S    
P7    C41   1.870993 S    
O4    P6    1.540633 D    
C6    H11   1.099149 S    
C33   H41   1.079369 S    
P8    O24   1.750265 S    
C48   H55   1.103503 S    
O14   P8    1.713175 S    
Ba2   O21   2.835055 S    
C1    O26   1.414627 S    
C33   C34   1.398790 A    
C11   F1    1.383735 S    
C5    H9    1.110779 S    
C27   C28   1.390955 A    
Ba1   O13   2.882648 S    
O1    Ba1   2.921933 S    
O17   Ba2   2.776833 S    
C18   H38   1.081654 S    
C18   C20   1.397227 A    
C46   H49   1.112056 S    
O26   C46   1.409473 S    
O3    P6    1.751199 S    
C37   C38   1.403570 A    
C12   H24   1.104594 S    
P2    O7    1.497815 D    
C37   H43   1.082869 S    
C21   C22   1.471668 A    
P5    O19   1.746648 S    
Ba1   O20   2.914123 S    
P1    Ba1   3.435373 S    
C7    H13   1.110264 S    
O5    C6    1.410885 S    
C2    H4    1.110547 S    
C13   H26   1.110621 S    
P6    C20   1.888227 S    
O16   P7    1.772863 S    
C42   H39   1.082235 S    
C22   C26   1.447681 A    
P4    Ba2   3.436049 S    
C19   C20   1.414056 A    
C5    H10   1.098081 S    
C8    H16   1.103909 S    
P7    O21   1.561753 D    
C18   C21   1.397783 A    
C31   C32   1.396355 A    
C45   H47   1.087571 S    
O27   C47   1.424786 S    
C39   C43   1.413870 A    
C31   H44   1.082844 S    
O3    Ba1   2.854161 S    
P4    O15   1.770539 S    
O25   C45   1.391806 S    
