data_mof_unit_28127.cif
_audit_creation_date              2013-03-05T15:47:09-0500
_audit_creation_method            fapswitch 2.2
_symmetry_space_group_name_H-M    P1
_symmetry_Int_Tables_number       1
_space_group_crystal_system       triclinic
_cell_length_a                    19.681574
_cell_length_b                    11.338298
_cell_length_c                    18.72167
_cell_angle_alpha                 90.225031
_cell_angle_beta                  89.298202
_cell_angle_gamma                 90.064933
_cell_volume                      4177.49650861

loop_
_atom_site_label
_atom_site_type_symbol
_atom_site_description
_atom_site_fract_x
_atom_site_fract_y
_atom_site_fract_z
_atom_type_partial_charge
O1    O     O_R   0.957210 0.449410 0.665480 -0.538443
O2    O     O_R   0.042790 0.449410 0.334520 -0.531734
O3    O     O_R   0.457210 0.949410 0.665480 -0.538444
O4    O     O_R   0.542790 0.949410 0.334520 -0.531733
O5    O     O_R   0.820730 0.541240 0.668250 -0.514113
O6    O     O_R   0.179270 0.541240 0.331750 -0.520937
O7    O     O_R   0.320730 0.041240 0.668250 -0.514113
O8    O     O_R   0.679270 0.041240 0.331750 -0.520941
C1    C     C_R   0.771839 0.484781 0.631744 0.532958
C2    C     C_R   0.237284 0.518516 0.362696 0.532692
C3    C     C_R   0.271839 0.984781 0.631744 0.532976
C4    C     C_R   0.737285 0.018519 0.362695 0.532686
O9    O     O_R   0.714240 0.455060 0.663710 -0.537832
O10   O     O_R   0.285760 0.455060 0.336290 -0.532927
O11   O     O_R   0.214240 0.955060 0.663710 -0.537813
O12   O     O_R   0.785760 0.955060 0.336290 -0.532923
O13   O     O_R   0.736780 0.204870 0.675910 -0.525798
O14   O     O_R   0.263220 0.204870 0.324090 -0.523701
O15   O     O_R   0.236780 0.704870 0.675910 -0.525799
O16   O     O_R   0.763220 0.704870 0.324090 -0.523700
C5    C     C_R   0.775374 0.123113 0.649373 0.537240
C6    C     C_R   0.220259 0.133372 0.354268 0.545852
C7    C     C_R   0.275374 0.623111 0.649374 0.537247
C8    C     C_R   0.720253 0.633387 0.354274 0.545850
O17   O     O_R   0.833070 0.087590 0.673490 -0.547012
O18   O     O_R   0.166930 0.087590 0.326510 -0.546415
O19   O     O_R   0.333070 0.587590 0.673490 -0.547018
O20   O     O_R   0.666930 0.587590 0.326510 -0.546413
O21   O     O_R   0.946890 0.246800 0.676300 -0.512238
O22   O     O_R   0.053110 0.246800 0.323700 -0.514388
O23   O     O_R   0.446890 0.746800 0.676300 -0.512237
O24   O     O_R   0.553110 0.746800 0.323700 -0.514392
C9    C     C_R   0.972465 0.341430 0.647229 0.525564
C10   C     C_R   0.030726 0.341790 0.355345 0.532085
C11   C     C_R   0.472465 0.841430 0.647229 0.525561
C12   C     C_R   0.530726 0.841790 0.355345 0.532084
O25   O     O_R   0.956650 0.457120 0.827980 -0.532182
O26   O     O_R   0.043350 0.457120 0.172020 -0.532072
O27   O     O_R   0.456650 0.957120 0.827980 -0.532182
O28   O     O_R   0.543350 0.957120 0.172020 -0.532073
O29   O     O_R   0.820220 0.548390 0.818890 -0.508387
O30   O     O_R   0.179780 0.548390 0.181110 -0.511606
O31   O     O_R   0.320220 0.048390 0.818890 -0.508391
O32   O     O_R   0.679780 0.048390 0.181110 -0.511608
C13   C     C_R   0.760401 0.533835 0.848840 0.528168
C14   C     C_R   0.239401 0.533042 0.150861 0.524535
C15   C     C_R   0.260402 0.033835 0.848840 0.528167
C16   C     C_R   0.739401 0.033042 0.150861 0.524537
O33   O     O_R   0.713680 0.462770 0.826210 -0.530236
O34   O     O_R   0.286320 0.462770 0.173790 -0.530563
O35   O     O_R   0.213680 0.962770 0.826210 -0.530232
O36   O     O_R   0.786320 0.962770 0.173790 -0.530561
O37   O     O_R   0.736260 0.212010 0.826560 -0.508660
O38   O     O_R   0.263740 0.212010 0.173440 -0.508419
O39   O     O_R   0.236260 0.712010 0.826560 -0.508661
O40   O     O_R   0.763740 0.712010 0.173440 -0.508418
C17   C     C_R   0.773666 0.132319 0.858560 0.528438
C18   C     C_R   0.226215 0.132407 0.141290 0.531931
C19   C     C_R   0.273666 0.632319 0.858560 0.528442
C20   C     C_R   0.726215 0.632407 0.141290 0.531934
O41   O     O_R   0.832520 0.095300 0.836000 -0.540198
O42   O     O_R   0.167480 0.095300 0.164000 -0.538984
O43   O     O_R   0.332520 0.595300 0.836000 -0.540198
O44   O     O_R   0.667480 0.595300 0.164000 -0.538977
O45   O     O_R   0.946380 0.253940 0.826940 -0.511582
O46   O     O_R   0.053620 0.253940 0.173060 -0.511778
O47   O     O_R   0.446380 0.753940 0.826940 -0.511583
O48   O     O_R   0.553620 0.753940 0.173060 -0.511778
C21   C     C_R   0.967588 0.353150 0.854352 0.532795
C22   C     C_R   0.032294 0.352862 0.145677 0.533956
C23   C     C_R   0.467588 0.853150 0.854352 0.532796
C24   C     C_R   0.532294 0.852862 0.145677 0.533956
Cr1   Cr    Cr6+3 0.885690 0.492860 0.745310 0.981536
Cr2   Cr    Cr6+3 0.114310 0.492860 0.254690 0.983632
Cr3   Cr    Cr6+3 0.385690 0.992860 0.745310 0.981534
Cr4   Cr    Cr6+3 0.614310 0.992860 0.254690 0.983629
Cr5   Cr    Cr6+3 0.729880 0.332270 0.748190 0.982750
Cr6   Cr    Cr6+3 0.270120 0.332270 0.251810 0.986714
Cr7   Cr    Cr6+3 0.229880 0.832270 0.748190 0.982755
Cr8   Cr    Cr6+3 0.770120 0.832270 0.251810 0.986717
Cr9   Cr    Cr6+3 0.888120 0.178590 0.753010 0.978361
Cr10  Cr    Cr6+3 0.111880 0.178590 0.246990 0.980027
Cr11  Cr    Cr6+3 0.388120 0.678590 0.753010 0.978359
Cr12  Cr    Cr6+3 0.611880 0.678590 0.246990 0.980026
O49   O     O_3   0.834560 0.334570 0.748840 -0.279527
O50   O     O_3   0.165440 0.334570 0.251160 -0.273280
O51   O     O_3   0.334560 0.834570 0.748840 -0.279528
O52   O     O_3   0.665440 0.834570 0.251160 -0.273284
C25   C     C_3   0.686754 0.124860 0.468682 -0.242013
C26   C     C_3   0.309647 0.121551 0.532309 -0.242726
C27   C     C_3   0.186754 0.624857 0.468683 -0.242011
C28   C     C_3   0.809647 0.621555 0.532312 -0.242724
H1    H     H_    0.638083 0.090940 0.452485 0.129134
H2    H     H_    0.362502 0.103601 0.546872 0.120549
H3    H     H_    0.138082 0.590938 0.452486 0.129132
H4    H     H_    0.862501 0.603603 0.546871 0.120548
H5    H     H_    0.687577 0.213765 0.444606 0.100276
H6    H     H_    0.296308 0.204145 0.560016 0.130394
H7    H     H_    0.187577 0.713762 0.444607 0.100277
H8    H     H_    0.796311 0.704147 0.560021 0.130403
C29   C     C_3   0.691071 0.134152 0.549740 -0.229213
C30   C     C_3   0.305258 0.139437 0.452047 -0.238711
C31   C     C_3   0.191071 0.634149 0.549741 -0.229214
C32   C     C_3   0.805256 0.639445 0.452050 -0.238713
H9    H     H_    0.677726 0.224136 0.567711 0.131495
H10   H     H_    0.311909 0.231387 0.438444 0.129294
H11   H     H_    0.177725 0.724134 0.567711 0.131495
H12   H     H_    0.811907 0.731394 0.438447 0.129289
H13   H     H_    0.649929 0.082614 0.573618 0.104578
H14   H     H_    0.349206 0.095908 0.425660 0.114005
H15   H     H_    0.149929 0.582610 0.573619 0.104578
H16   H     H_    0.849202 0.595915 0.425660 0.114010
H17   H     H_    0.719840 0.865938 0.472607 0.098340
H18   H     H_    0.317644 0.891945 0.488359 0.115783
H19   H     H_    0.219838 0.365934 0.472609 0.098341
H20   H     H_    0.817643 0.391950 0.488357 0.115782
C33   C     C_3   0.757093 0.934128 0.483992 -0.209440
C34   C     C_3   0.266952 0.917883 0.497407 -0.262164
C35   C     C_3   0.257091 0.434123 0.483994 -0.209441
C36   C     C_3   0.766951 0.417889 0.497407 -0.262162
C37   C     C_3   0.809869 0.124481 0.449431 -0.269383
C38   C     C_3   0.187156 0.065937 0.548022 -0.228482
C39   C     C_3   0.309868 0.624475 0.449432 -0.269385
C40   C     C_3   0.687155 0.565941 0.548025 -0.228482
C41   C     C_3   0.746147 0.050185 0.439286 0.055441
C42   C     C_3   0.260754 0.021159 0.554746 0.048925
C43   C     C_3   0.246146 0.550180 0.439287 0.055443
C44   C     C_3   0.760754 0.521163 0.554747 0.048931
H21   H     H_    0.855000 0.082202 0.423863 0.125084
H22   H     H_    0.151015 0.991240 0.556801 0.134185
H23   H     H_    0.355000 0.582197 0.423863 0.125082
H24   H     H_    0.651015 0.491242 0.556802 0.134188
H25   H     H_    0.802876 0.209538 0.424086 0.119492
H26   H     H_    0.173298 0.131230 0.589309 0.117094
H27   H     H_    0.302874 0.709532 0.424087 0.119498
H28   H     H_    0.673296 0.631231 0.589314 0.117092
C45   C     C_3   0.761830 0.089014 0.575845 0.086634
C46   C     C_3   0.237452 0.087008 0.423665 0.081007
C47   C     C_3   0.261829 0.589011 0.575846 0.086633
C48   C     C_3   0.737448 0.587018 0.423669 0.081001
C49   C     C_3   0.766854 0.955379 0.565569 -0.119062
C50   C     C_3   0.243596 0.952705 0.421104 -0.108397
C51   C     C_3   0.266853 0.455375 0.565571 -0.119067
C52   C     C_3   0.743592 0.452715 0.421106 -0.108389
C53   C     C_3   0.820905 0.140843 0.529676 -0.232163
C54   C     C_3   0.176501 0.113670 0.473851 -0.253524
C55   C     C_3   0.320906 0.640837 0.529677 -0.232163
C56   C     C_3   0.676499 0.613679 0.473856 -0.253537
H29   H     H_    0.831678 0.231755 0.544672 0.105505
H30   H     H_    0.162780 0.207452 0.475720 0.099519
H31   H     H_    0.331683 0.731748 0.544673 0.105506
H32   H     H_    0.662779 0.707462 0.475730 0.099515
H33   H     H_    0.866586 0.089816 0.541517 0.119775
H34   H     H_    0.133819 0.061641 0.453138 0.117875
H35   H     H_    0.366585 0.589806 0.541517 0.119774
H36   H     H_    0.633816 0.561653 0.453143 0.117870
H37   H     H_    0.806819 0.901395 0.464973 0.115376
H38   H     H_    0.238293 0.842766 0.516020 0.110848
H39   H     H_    0.306816 0.401387 0.464974 0.115376
H40   H     H_    0.738290 0.342773 0.516019 0.110847
H41   H     H_    0.819560 0.925772 0.577650 0.134943
H42   H     H_    0.192438 0.912481 0.413982 0.138108
H43   H     H_    0.319560 0.425767 0.577651 0.134944
H44   H     H_    0.692433 0.412492 0.413985 0.138110
C57   C     C_3   0.007752 0.201984 0.460387 -0.235788
C58   C     C_3   0.001631 0.201734 0.542865 -0.232947
C59   C     C_3   0.507749 0.701984 0.460386 -0.235789
C60   C     C_3   0.501628 0.701733 0.542864 -0.232947
H45   H     H_    0.050622 0.152904 0.441099 0.135436
H46   H     H_    0.960777 0.144768 0.561460 0.133209
H47   H     H_    0.550617 0.652899 0.441096 0.135436
H48   H     H_    0.460772 0.644772 0.561459 0.133210
H49   H     H_    0.964124 0.153740 0.437198 0.102081
H50   H     H_    0.047637 0.159837 0.565395 0.104346
H51   H     H_    0.464120 0.653744 0.437197 0.102077
H52   H     H_    0.547633 0.659832 0.565393 0.104349
H53   H     H_    0.617305 0.885025 0.453258 0.114812
H54   H     H_    0.390693 0.887013 0.556878 0.109628
H55   H     H_    0.117303 0.385028 0.453259 0.114815
H56   H     H_    0.890691 0.387005 0.556877 0.109625
H57   H     H_    0.601230 0.831694 0.573982 0.104937
H58   H     H_    0.404868 0.815307 0.437011 0.105725
H59   H     H_    0.101229 0.331707 0.573984 0.104935
H60   H     H_    0.904867 0.315300 0.437008 0.105725
C61   C     C_3   0.066062 0.403477 0.473714 -0.210201
C62   C     C_3   0.939626 0.402695 0.530714 -0.207192
C63   C     C_3   0.566065 0.903473 0.473714 -0.210198
C64   C     C_3   0.439628 0.902700 0.530715 -0.207194
C65   C     C_3   0.942895 0.381977 0.450126 -0.272730
C66   C     C_3   0.060814 0.389089 0.555069 -0.269504
C67   C     C_3   0.442897 0.881982 0.450127 -0.272732
C68   C     C_3   0.560816 0.889082 0.555069 -0.269504
C69   C     C_3   0.011972 0.330409 0.432392 0.061716
C70   C     C_3   0.993733 0.330655 0.571355 0.068245
C71   C     C_3   0.511972 0.830409 0.432392 0.061718
C72   C     C_3   0.493734 0.830654 0.571355 0.068243
H61   H     H_    0.933467 0.464692 0.420410 0.117330
H62   H     H_    0.063215 0.475508 0.582588 0.118384
H63   H     H_    0.433471 0.964697 0.420410 0.117333
H64   H     H_    0.563220 0.975499 0.582589 0.118380
H65   H     H_    0.950230 0.498047 0.538753 0.133058
H66   H     H_    0.052901 0.496590 0.463273 0.133766
H67   H     H_    0.450235 0.998051 0.538754 0.133059
H68   H     H_    0.552904 0.996587 0.463275 0.133765
C73   C     C_3   0.814041 0.015365 0.044214 -0.227093
C74   C     C_3   0.185703 0.015225 0.955379 -0.226796
C75   C     C_3   0.314040 0.515365 0.044213 -0.227093
C76   C     C_3   0.685703 0.515227 0.955379 -0.226796
H69   H     H_    0.818708 0.921806 0.056658 0.136600
H70   H     H_    0.181368 0.921419 0.942774 0.137493
H71   H     H_    0.318707 0.421806 0.056658 0.136600
H72   H     H_    0.681366 0.421421 0.942773 0.137494
H73   H     H_    0.858678 0.057140 0.070002 0.114781
H74   H     H_    0.140935 0.056365 0.929733 0.114995
H75   H     H_    0.358678 0.557138 0.070002 0.114781
H76   H     H_    0.640934 0.556368 0.929733 0.114994
C77   C     C_3   0.819174 0.030493 0.964902 -0.224372
C78   C     C_3   0.180513 0.030624 0.034702 -0.225556
C79   C     C_3   0.319174 0.530494 0.964902 -0.224372
C80   C     C_3   0.680513 0.530624 0.034702 -0.225556
H77   H     H_    0.868479 0.069720 0.952482 0.136209
H78   H     H_    0.131264 0.070018 0.047297 0.135861
H79   H     H_    0.368478 0.569721 0.952482 0.136209
H80   H     H_    0.631263 0.570017 0.047297 0.135861
H81   H     H_    0.820633 0.942352 0.938688 0.115381
H82   H     H_    0.179004 0.942570 0.060645 0.115811
H83   H     H_    0.320634 0.442353 0.938687 0.115382
H84   H     H_    0.679004 0.442570 0.060645 0.115812
H85   H     H_    0.662863 0.945873 0.051290 0.112186
H86   H     H_    0.336626 0.946311 0.947682 0.112689
H87   H     H_    0.162862 0.445873 0.051290 0.112186
H88   H     H_    0.836624 0.446310 0.947682 0.112689
H89   H     H_    0.702933 0.938935 0.928618 0.107438
H90   H     H_    0.296868 0.939356 0.070248 0.106669
H91   H     H_    0.202934 0.438934 0.928619 0.107438
H92   H     H_    0.796868 0.439356 0.070247 0.106665
C81   C     C_3   0.683663 0.028399 0.031718 -0.210923
C82   C     C_3   0.316090 0.029030 0.967666 -0.210969
C83   C     C_3   0.183663 0.528398 0.031718 -0.210923
C84   C     C_3   0.816090 0.529030 0.967666 -0.210967
C85   C     C_3   0.753601 0.202594 0.060924 -0.268765
C86   C     C_3   0.245944 0.202872 0.938934 -0.266927
C87   C     C_3   0.253602 0.702594 0.060924 -0.268764
C88   C     C_3   0.745944 0.702873 0.938934 -0.266925
C89   C     C_3   0.747470 0.069673 0.074385 0.061052
C90   C     C_3   0.252250 0.070111 0.925302 0.061762
C91   C     C_3   0.247470 0.569673 0.074384 0.061052
C92   C     C_3   0.752250 0.570111 0.925302 0.061765
H93   H     H_    0.712299 0.251099 0.089362 0.104995
H94   H     H_    0.287053 0.251377 0.910315 0.104706
H95   H     H_    0.212300 0.751099 0.089363 0.104993
H96   H     H_    0.787054 0.751377 0.910316 0.104707
H97   H     H_    0.802723 0.236559 0.080490 0.105940
H98   H     H_    0.196868 0.236249 0.919118 0.104660
H99   H     H_    0.302724 0.736558 0.080489 0.105939
H100  H     H_    0.696868 0.736251 0.919118 0.104659
C93   C     C_3   0.759058 0.104344 0.935570 0.064204
C94   C     C_3   0.240674 0.104599 0.064147 0.063228
C95   C     C_3   0.259058 0.604344 0.935570 0.064204
C96   C     C_3   0.740673 0.604599 0.064147 0.063226
C97   C     C_3   0.695618 0.029446 0.949521 -0.262712
C98   C     C_3   0.304142 0.029949 0.049834 -0.263978
C99   C     C_3   0.195618 0.529444 0.949520 -0.262713
C100  C     C_3   0.804142 0.529949 0.049834 -0.263980
C101  C     C_3   0.748100 0.221275 0.979137 -0.213903
C102  C     C_3   0.251512 0.221586 0.020923 -0.214187
C103  C     C_3   0.248100 0.721274 0.979137 -0.213903
C104  C     C_3   0.751512 0.721587 0.020923 -0.214188
H101  H     H_    0.779508 0.293453 0.960292 0.109423
H102  H     H_    0.220212 0.293623 0.040275 0.109441
H103  H     H_    0.279506 0.793454 0.960291 0.109423
H104  H     H_    0.720211 0.793622 0.040274 0.109441
H105  H     H_    0.695139 0.248649 0.969451 0.116098
H106  H     H_    0.304513 0.248942 0.030605 0.116421
H107  H     H_    0.195137 0.748646 0.969451 0.116098
H108  H     H_    0.804512 0.748943 0.030605 0.116422
H109  H     H_    0.644172 0.095208 0.043224 0.120454
H110  H     H_    0.355629 0.095887 0.956364 0.120560
H111  H     H_    0.144172 0.595208 0.043224 0.120453
H112  H     H_    0.855629 0.595885 0.956363 0.120561
H113  H     H_    0.651209 0.067990 0.922078 0.108266
H114  H     H_    0.348558 0.068658 0.077448 0.107375
H115  H     H_    0.151209 0.567988 0.922077 0.108264
H116  H     H_    0.848558 0.568658 0.077447 0.107374
C105  C     C_3   0.004642 0.476987 0.040298 -0.226275
C106  C     C_3   0.995199 0.477198 0.960326 -0.227178
C107  C     C_3   0.504641 0.976987 0.040299 -0.226275
C108  C     C_3   0.495199 0.977198 0.960327 -0.227177
H117  H     H_    0.048354 0.531351 0.053350 0.131610
H118  H     H_    0.951436 0.531328 0.947610 0.131105
H119  H     H_    0.548353 0.031351 0.053350 0.131611
H120  H     H_    0.451436 0.031328 0.947610 0.131105
H121  H     H_    0.961112 0.522503 0.066710 0.114828
H122  H     H_    0.038731 0.522906 0.934171 0.114973
H123  H     H_    0.461111 0.022503 0.066710 0.114828
H124  H     H_    0.538730 0.022906 0.934171 0.114974
H125  H     H_    0.615573 0.784529 0.043177 0.110931
H126  H     H_    0.384060 0.785405 0.956586 0.111177
H127  H     H_    0.115573 0.284528 0.043178 0.110931
H128  H     H_    0.884060 0.285407 0.956585 0.111177
H129  H     H_    0.599261 0.848362 0.922238 0.106340
H130  H     H_    0.400538 0.848097 0.077975 0.105411
H131  H     H_    0.099261 0.348362 0.922238 0.106338
H132  H     H_    0.900538 0.348097 0.077975 0.105414
C109  C     C_3   0.063937 0.274435 0.024909 -0.213159
C110  C     C_3   0.935677 0.274870 0.974700 -0.212220
C111  C     C_3   0.563937 0.774435 0.024909 -0.213159
C112  C     C_3   0.435677 0.774870 0.974700 -0.212221
C113  C     C_3   0.942011 0.291874 0.056541 -0.262445
C114  C     C_3   0.057690 0.292064 0.943205 -0.262237
C115  C     C_3   0.442011 0.791874 0.056542 -0.262444
C116  C     C_3   0.557690 0.792064 0.943206 -0.262237
C117  C     C_3   0.011130 0.349442 0.069209 0.063003
C118  C     C_3   0.988661 0.349859 0.930806 0.063040
C119  C     C_3   0.511130 0.849442 0.069209 0.063003
C120  C     C_3   0.488660 0.849859 0.930806 0.063041
H133  H     H_    0.938646 0.205512 0.084211 0.109100
H134  H     H_    0.060997 0.205852 0.914938 0.109249
H135  H     H_    0.438646 0.705512 0.084212 0.109100
H136  H     H_    0.560997 0.705852 0.914938 0.109249
H137  H     H_    0.948641 0.181752 0.963482 0.121029
H138  H     H_    0.050779 0.181232 0.035423 0.119992
H139  H     H_    0.448641 0.681752 0.963483 0.121028
H140  H     H_    0.550779 0.681232 0.035423 0.119992
C121  C     C_3   0.720886 0.883679 0.617514 -0.292776
C122  C     C_3   0.755854 0.842642 0.686388 -0.302320
C123  C     C_3   0.707236 0.771364 0.733509 -0.430462
H141  H     H_    0.660749 0.823232 0.746280 0.139501
H142  H     H_    0.692650 0.687892 0.706830 0.186310
H143  H     H_    0.732659 0.749960 0.784285 0.145426
H144  H     H_    0.801306 0.788341 0.673523 0.172222
H145  H     H_    0.772311 0.919005 0.718685 0.200705
H146  H     H_    0.675729 0.934270 0.634804 0.148912
H147  H     H_    0.704948 0.805147 0.588745 0.138473
C124  C     C_3   0.288495 0.912040 0.355170 -0.273581
C125  C     C_3   0.248565 0.841622 0.299736 -0.300951
C126  C     C_3   0.295562 0.797680 0.240236 -0.441084
H148  H     H_    0.319672 0.872925 0.211703 0.141978
H149  H     H_    0.335465 0.738995 0.261871 0.161834
H150  H     H_    0.264948 0.746854 0.202200 0.150398
H151  H     H_    0.223715 0.764734 0.325423 0.168104
H152  H     H_    0.208515 0.897125 0.275869 0.201255
H153  H     H_    0.313128 0.987305 0.327296 0.165735
H154  H     H_    0.331573 0.859553 0.369654 0.124600
C127  C     C_3   0.220885 0.383677 0.617517 -0.292772
C128  C     C_3   0.255857 0.342620 0.686384 -0.302323
C129  C     C_3   0.207226 0.271394 0.733522 -0.430441
H155  H     H_    0.160775 0.323337 0.746334 0.139489
H156  H     H_    0.192576 0.187960 0.706835 0.186244
H157  H     H_    0.232667 0.249920 0.784276 0.145460
H158  H     H_    0.301290 0.288275 0.673511 0.172231
H159  H     H_    0.272347 0.418973 0.718674 0.200706
H160  H     H_    0.175732 0.434274 0.634812 0.148923
H161  H     H_    0.204942 0.305150 0.588746 0.138465
C130  C     C_3   0.788488 0.412051 0.355171 -0.273570
C131  C     C_3   0.748559 0.341622 0.299741 -0.300944
C132  C     C_3   0.795548 0.297728 0.240224 -0.441095
H162  H     H_    0.819617 0.372998 0.211679 0.141982
H163  H     H_    0.835484 0.239093 0.261841 0.161819
H164  H     H_    0.764939 0.246864 0.202202 0.150404
H165  H     H_    0.723733 0.264713 0.325428 0.168101
H166  H     H_    0.708489 0.397102 0.275892 0.201258
H167  H     H_    0.813116 0.487317 0.327293 0.165761
H168  H     H_    0.831569 0.359571 0.369654 0.124589

loop_
_geom_bond_atom_site_label_1
_geom_bond_atom_site_label_2
_geom_bond_distance
_ccdc_geom_bond_type
O4    C12   1.303125 A    
C52   C130  1.576994 S    
C132  H162  1.111215 S    
O39   C19   1.316784 A    
C35   C51   1.559390 S    
C36   C52   1.558454 S    
C5    C45   1.456037 S    
C96   C100  1.530027 S    
Cr7   O51   2.060589 S    
C126  H148  1.111235 S    
C61   C66   1.534657 S    
C25   C41   1.539162 S    
C8    C48   1.447542 S    
C103  H107  1.105243 S    
C27   C43   1.539162 S    
C64   C67   1.526593 S    
C93   C97   1.529633 S    
C87   C103  1.551705 S    
C73   C89   1.547847 S    
C109  C114  1.549797 S    
O21   C9    1.302855 A    
C87   H99   1.106307 S    
C1    O9    1.319449 A    
O44   Cr12  2.110095 S    
C54   H30   1.097700 S    
C3    O11   1.319450 A    
C4    O12   1.288226 A    
C122  C123  1.526494 S    
C55   H35   1.095114 S    
C112  C115  1.550054 S    
H54   C64   1.089899 S    
O2    C10   1.303125 A    
C52   H44   1.114156 S    
O17   Cr9   2.116547 S    
C51   H43   1.116725 S    
C57   H45   1.069583 S    
C58   H50   1.111457 S    
C1    C44   1.519309 S    
O16   Cr8   1.986601 S    
C110  C118  1.571036 S    
C3    C42   1.519318 S    
C93   C101  1.567595 S    
C113  C117  1.528909 S    
C38   C54   1.509444 S    
C59   H47   1.069583 S    
C63   H68   1.106067 S    
O13   C5    1.292999 A    
O28   Cr4   2.134689 S    
C127  H160  1.102891 S    
O12   Cr8   2.127954 S    
C61   H66   1.106069 S    
O22   Cr10  1.987752 S    
C81   H109  1.104666 S    
O6    C2    1.312942 A    
O46   Cr10  2.002700 S    
C130  C131  1.531078 S    
C54   H34   1.099593 S    
O48   C24   1.306847 A    
C26   C42   1.545793 S    
C81   C89   1.566674 S    
C11   C72   1.480591 S    
C9    C70   1.480587 S    
C132  H164  1.099427 S    
C85   C101  1.551704 S    
C34   H38   1.077682 S    
H85   C81   1.084229 S    
C108  H120  1.087485 S    
C126  H150  1.099430 S    
O31   Cr3   1.976348 S    
H89   C97   1.105816 S    
C114  C118  1.529722 S    
C65   H61   1.109294 S    
C25   C29   1.524173 S    
C59   C71   1.551299 S    
Cr12  O52   2.059559 S    
C27   C31   1.524169 S    
C125  C126  1.521866 S    
C75   C91   1.547845 S    
C24   C119  1.496206 S    
C17   O41   1.297704 A    
C19   O43   1.297704 A    
C20   O44   1.297059 A    
C20   C96   1.500942 S    
Cr8   O52   2.060645 S    
O46   C22   1.306848 A    
C106  C118  1.549717 S    
C17   C93   1.501716 S    
C107  H123  1.110611 S    
C108  H124  1.110461 S    
C80   C96   1.555465 S    
C28   C32   1.520569 S    
C124  C125  1.531078 S    
C16   O36   1.298420 A    
C35   H39   1.101634 S    
C88   H100  1.106579 S    
C95   C99   1.529634 S    
C39   H27   1.086122 S    
C36   H40   1.077690 S    
O29   C13   1.308370 A    
C106  H118  1.087486 S    
C31   H11   1.104033 S    
C22   C117  1.496205 S    
O31   C15   1.308369 A    
C78   H82   1.112178 S    
O32   C16   1.308187 A    
C32   C48   1.558788 S    
O47   Cr11  1.996944 S    
C115  C119  1.528907 S    
C124  H153  1.109950 S    
C77   C93   1.557039 S    
C128  H158  1.110019 S    
C37   C41   1.523397 S    
C73   C77   1.497557 S    
C131  H165  1.107699 S    
C49   C121  1.551820 S    
C18   C94   1.500941 S    
O24   C12   1.301820 A    
C31   H15   1.090461 S    
H57   C68   1.091469 S    
C105  H117  1.087459 S    
C28   H4    1.098059 S    
C106  H122  1.110459 S    
C111  C116  1.549795 S    
C107  C119  1.552042 S    
O32   Cr4   1.978862 S    
C38   H26   1.100331 S    
C125  H152  1.108596 S    
C47   C51   1.529771 S    
O11   Cr7   2.136522 S    
C104  H104  1.082229 S    
H130  C115  1.106707 S    
O27   Cr3   2.137596 S    
C96   C104  1.569500 S    
C8    O20   1.284997 A    
C68   H64   1.106467 S    
Cr5   O49   2.060589 S    
C75   H71   1.091191 S    
C83   C99   1.553994 S    
C121  H147  1.086777 S    
C94   C98   1.530026 S    
C84   C100  1.553331 S    
C13   C92   1.494657 S    
C87   H95   1.111238 S    
O22   C10   1.301819 A    
C81   C97   1.553993 S    
C2    O10   1.288224 A    
C32   H16   1.106531 S    
H127  C109  1.082056 S    
H20   C36   1.052025 S    
C83   H111  1.104668 S    
C55   H31   1.088586 S    
C76   C92   1.550044 S    
O5    C1    1.346883 A    
O25   C21   1.299056 A    
C74   H70   1.092026 S    
C39   C43   1.523396 S    
O3    C11   1.304173 A    
O8    C4    1.312940 A    
C104  H108  1.104827 S    
C116  H136  1.111328 S    
Cr1   O49   2.057508 S    
C63   C68   1.534658 S    
H56   C62   1.089892 S    
H17   C33   1.087212 S    
Cr3   O51   2.057508 S    
C58   H46   1.085657 S    
H19   C35   1.087214 S    
C122  H145  1.104646 S    
C97   H113  1.110178 S    
C85   H97   1.106305 S    
C94   C102  1.569500 S    
C59   H51   1.109599 S    
O26   Cr2   2.134689 S    
C101  H105  1.105237 S    
C60   H52   1.111458 S    
C5    O17   1.292506 A    
H91   C99   1.105816 S    
O28   C24   1.298242 A    
O14   C6    1.296791 A    
C62   C70   1.551408 S    
C56   H32   1.097700 S    
C105  C117  1.552043 S    
C82   H110  1.104934 S    
C51   C127  1.551820 S    
O40   Cr8   2.004036 S    
O41   Cr9   2.114445 S    
C50   C124  1.577003 S    
C129  H157  1.107534 S    
C74   H74   1.112444 S    
C46   C54   1.544090 S    
O33   Cr5   2.096960 S    
C37   C53   1.531110 S    
C111  H140  1.105589 S    
C86   C102  1.553926 S    
C25   H1    1.078369 S    
C67   C71   1.513169 S    
O29   Cr1   1.976348 S    
C65   C69   1.513172 S    
H90   C98   1.105920 S    
C111  C119  1.570576 S    
C132  H163  1.111147 S    
C27   H7    1.105856 S    
C33   C41   1.578664 S    
H125  C111  1.082053 S    
Cr9   O49   2.062136 S    
C77   H81   1.111889 S    
C35   C43   1.578668 S    
C18   O42   1.297060 A    
Cr11  O51   2.062136 S    
O26   C22   1.298243 A    
O20   Cr12  2.123434 S    
C130  H168  1.074509 S    
C40   C56   1.509434 S    
C86   C90   1.530710 S    
C68   C72   1.504907 S    
C45   C53   1.556316 S    
C74   C90   1.550042 S    
C29   H13   1.090457 S    
C109  C117  1.570576 S    
C80   H84   1.112180 S    
C83   C91   1.566676 S    
O30   C14   1.308187 A    
C101  H101  1.082634 S    
C103  H103  1.082645 S    
H129  C116  1.106293 S    
C115  H135  1.111116 S    
C84   H112  1.104932 S    
C26   H2    1.098066 S    
C23   C120  1.495711 S    
C40   C44   1.542237 S    
O42   Cr10  2.110095 S    
C73   H73   1.112164 S    
O18   Cr10  2.123434 S    
C77   H77   1.089882 S    
C19   C95   1.501714 S    
O34   Cr6   2.104533 S    
C126  H149  1.111169 S    
O6    Cr2   2.013515 S    
H132  C113  1.106706 S    
O24   Cr12  1.987752 S    
O30   Cr2   1.978862 S    
C110  C113  1.550054 S    
C109  H138  1.105588 S    
C40   H28   1.100332 S    
O1    C9    1.304171 A    
C78   C94   1.555466 S    
C58   C70   1.561322 S    
C46   C50   1.528205 S    
C129  H155  1.111285 S    
O37   C17   1.316783 A    
C15   O35   1.295959 A    
C4    C41   1.489095 S    
Cr10  O50   2.059559 S    
C88   C92   1.530709 S    
C62   H65   1.110867 S    
O43   Cr11  2.114445 S    
O48   Cr12  2.002700 S    
C33   C49   1.559383 S    
O21   Cr9   1.991116 S    
C105  C106  1.510964 S    
O39   Cr7   2.012055 S    
O45   Cr9   1.996944 S    
C107  C108  1.510966 S    
C13   O33   1.295959 A    
C82   C90   1.566323 S    
C75   H75   1.112164 S    
C85   H93   1.111235 S    
O15   Cr7   1.979083 S    
C10   C69   1.490599 S    
H92   C100  1.105918 S    
C87   C91   1.533371 S    
C100  H116  1.110189 S    
O23   C11   1.302856 A    
C82   C98   1.553332 S    
H58   C67   1.092586 S    
H59   C66   1.091462 S    
C32   H12   1.081604 S    
C66   H62   1.106468 S    
H128  C110  1.081838 S    
C45   C49   1.529763 S    
C29   C45   1.568591 S    
C39   H23   1.112061 S    
C48   C52   1.528215 S    
C37   H21   1.112060 S    
C50   H42   1.114153 S    
C36   C44   1.589229 S    
C128  H159  1.104664 S    
H55   C61   1.094468 S    
C6    C46   1.447541 S    
C131  H166  1.108588 S    
H53   C63   1.094468 S    
C127  H161  1.086773 S    
O1    Cr1   2.098106 S    
C62   C65   1.526597 S    
O19   Cr11  2.116547 S    
C86   H94   1.111243 S    
C123  H141  1.111261 S    
C98   H114  1.110188 S    
C102  H106  1.104830 S    
O45   C21   1.304834 A    
O47   C23   1.304834 A    
C121  C122  1.542719 S    
C95   C103  1.567594 S    
C79   H79   1.089878 S    
O40   C20   1.314334 A    
C60   H48   1.085651 S    
C6    O18   1.284984 A    
C84   C92   1.566320 S    
C56   H36   1.099588 S    
C79   H83   1.111888 S    
O36   Cr8   2.104533 S    
C15   C90   1.494654 S    
C53   H29   1.088578 S    
H126  C112  1.081838 S    
O38   Cr6   2.004036 S    
C76   C80   1.496855 S    
C49   H41   1.116723 S    
C57   C58   1.547356 S    
O15   C7    1.293004 A    
O8    Cr4   2.013515 S    
C48   C56   1.544080 S    
C128  C129  1.526509 S    
O23   Cr11  1.991116 S    
C74   C78   1.496854 S    
O7    C3    1.346886 A    
C47   C55   1.556320 S    
C16   C89   1.498887 S    
C85   C89   1.533369 S    
C7    C47   1.456035 S    
C67   H63   1.109287 S    
C14   C91   1.498887 S    
C57   H49   1.109599 S    
C99   H115  1.110180 S    
H87   C83   1.084231 S    
C30   C46   1.558786 S    
C112  C120  1.571037 S    
C113  H133  1.111116 S    
C26   C30   1.520569 S    
O16   C8    1.296807 A    
C7    O19   1.292504 A    
Cr4   O52   2.059044 S    
O2    Cr2   2.100114 S    
C76   H72   1.092026 S    
C53   H33   1.095116 S    
Cr6   O50   2.060645 S    
C59   C60   1.547358 S    
O27   C23   1.299056 A    
O5    Cr1   2.017387 S    
C28   C44   1.545795 S    
O13   Cr5   1.979083 S    
C124  H154  1.074509 S    
C40   H24   1.116759 S    
C78   H78   1.090518 S    
O35   Cr7   2.096960 S    
C29   H9    1.104029 S    
O9    Cr5   2.136522 S    
C33   H37   1.101637 S    
C102  H102  1.082233 S    
O7    Cr3   2.017387 S    
C114  H134  1.111328 S    
C27   H3    1.078372 S    
C116  C120  1.529722 S    
C25   H5    1.105854 S    
C88   C104  1.553922 S    
C38   C42   1.542231 S    
C125  H151  1.107712 S    
C31   C47   1.568590 S    
C129  H156  1.107637 S    
C73   H69   1.091190 S    
Cr2   O50   2.059044 S    
H18   C34   1.052010 S    
C112  H139  1.105206 S    
H131  C114  1.106292 S    
O14   Cr6   1.986601 S    
C39   C55   1.531106 S    
O37   Cr5   2.012055 S    
C86   H98   1.106581 S    
C107  H119  1.087458 S    
H86   C82   1.085072 S    
C79   C95   1.557039 S    
C108  C120  1.549716 S    
C2    C43   1.489096 S    
C80   H80   1.090521 S    
O3    Cr3   2.098106 S    
C28   H8    1.099261 S    
O38   C18   1.314333 A    
O25   Cr1   2.137596 S    
C88   H96   1.111243 S    
C63   C71   1.559282 S    
C21   C118  1.495712 S    
C61   C69   1.559278 S    
C34   C50   1.558461 S    
C57   C69   1.551299 S    
C123  H143  1.107541 S    
C130  H167  1.109945 S    
C14   O34   1.298420 A    
C64   H67   1.110868 S    
C75   C79   1.497557 S    
C12   C71   1.490597 S    
C121  H146  1.102885 S    
C123  H142  1.107607 S    
C131  C132  1.521855 S    
C38   H22   1.116758 S    
C30   H10   1.081608 S    
O10   Cr6   2.127954 S    
C110  H137  1.105205 S    
O4    Cr4   2.100114 S    
C30   H14   1.106529 S    
C66   C70   1.504907 S    
C64   C72   1.551410 S    
C76   H76   1.112444 S    
C60   C72   1.561322 S    
C105  H121  1.110611 S    
C122  H144  1.110003 S    
H88   C84   1.085069 S    
H60   C65   1.092602 S    
C34   C42   1.589230 S    
C37   H25   1.086126 S    
C127  C128  1.542721 S    
C26   H6    1.099265 S    
