data_mof_unit_34139.cif
_audit_creation_date              2012-12-10T16:42:58-0500
_audit_creation_method            fapswitch 2.2
_symmetry_space_group_name_H-M    P1
_symmetry_Int_Tables_number       1
_space_group_crystal_system       triclinic
_cell_length_a                    7.483949
_cell_length_b                    8.721738
_cell_length_c                    12.967269
_cell_angle_alpha                 87.465203
_cell_angle_beta                  79.0549
_cell_angle_gamma                 102.836152
_cell_volume                      806.941261428

loop_
_atom_site_label
_atom_site_type_symbol
_atom_type_description
_atom_site_fract_x
_atom_site_fract_y
_atom_site_fract_z
_atom_type_partial_charge
C1    C     C_R   0.452924 0.199996 0.506671 0.798228
C2    C     C_R   0.547072 0.800005 0.493385 0.798060
C3    C     C_R   0.466161 0.493214 0.700925 0.907744
C4    C     C_R   0.534062 0.507684 0.298847 0.899974
C5    C     C_R   0.552166 0.523730 0.185129 -0.161860
C6    C     C_R   0.447184 0.477258 0.814355 -0.131644
C7    C     C_R   0.315274 0.321592 0.982591 0.418777
C8    C     C_R   0.672945 0.682959 0.018270 0.411930
C9    C     C_R   0.319536 0.346664 0.873824 -0.038493
C10   C     C_R   0.682335 0.652585 0.124290 -0.022064
C11   C     C_R   0.571999 0.583236 0.859658 0.353498
C12   C     C_R   0.421739 0.420876 0.140809 0.359970
C13   C     C_R   0.560726 0.567612 0.969255 -0.134893
C14   C     C_R   0.431386 0.435615 0.031116 -0.124455
C15   C     C_2   0.428984 0.031796 0.521703 0.201836
C16   C     C_2   0.571038 0.968209 0.478413 0.207252
Cu1   Cu    Cu3+1 0.686350 0.517570 0.488220 1.098212
Cu2   Cu    Cu3+1 0.313650 0.482430 0.511780 1.105605
N1    N     N_2   0.033570 0.455950 0.529530 0.156853
N2    N     N_2   0.966430 0.544050 0.470470 0.154719
O1    O     O_R   0.621060 0.286250 0.492350 -0.501762
O2    O     O_R   0.378940 0.713750 0.507650 -0.501812
O3    O     O_R   0.306310 0.256580 0.512240 -0.608471
O4    O     O_R   0.693690 0.743420 0.487760 -0.610044
O5    O     O_R   0.631800 0.512400 0.642670 -0.530554
O6    O     O_R   0.368200 0.487600 0.357330 -0.526872
O7    O     O_R   0.317060 0.482730 0.662570 -0.591116
O8    O     O_R   0.682940 0.517270 0.337430 -0.611399
O9    O     O_3   0.286854 0.306268 0.206997 -0.650914
H1    H     H_    0.164077 0.321548 0.196023 0.363956
O10   O     O_3   0.706026 0.699448 0.794084 -0.658718
H2    H     H_    0.828924 0.691980 0.809386 0.368635
N3    N     N_3   0.819405 0.752684 0.171887 -0.577048
H3    H     H_    0.906923 0.844118 0.118827 0.249338
H4    H     H_    0.909825 0.684526 0.189862 0.238682
N4    N     N_3   0.203988 0.235973 0.820755 -0.593947
H5    H     H_    0.236494 0.125956 0.828017 0.240668
H6    H     H_    0.063240 0.226638 0.854795 0.238362
O11   O     O_3   0.207227 0.184906 0.041952 -0.703672
H7    H     H_    0.125233 0.119791 0.001184 0.326805
O12   O     O_3   0.765928 0.826353 0.963023 -0.713661
H8    H     H_    0.749795 0.910610 0.010376 0.331893
O13   O     O_3   0.906426 0.349150 0.599000 -0.589143
H9    H     H_    0.980859 0.293407 0.636122 0.338942
O14   O     O_3   0.093662 0.651574 0.401550 -0.592634
H10   H     H_    0.019332 0.708573 0.365288 0.332097
O15   O     O_3   0.266541 0.939384 0.585054 -0.710055
H11   H     H_    0.185965 0.007969 0.617213 0.343060
O16   O     O_3   0.733522 0.060633 0.415103 -0.706552
H12   H     H_    0.814111 0.992064 0.382933 0.346689

loop_
_geom_bond_atom_site_label_1
_geom_bond_atom_site_label_2
_ccdc_geom_bond_type
C2    O2    A    
C9    N4    S    
C4    O6    A    
O13   H9    S    
C1    O1    A    
C8    C13   A    
C1    C15   S    
C13   C14   A    
C12   O9    S    
C10   N3    S    
C2    C16   S    
O12   H8    S    
N2    O14   S    
Cu2   O6    S    
C15   O15   S    
C3    C6    S    
Cu1   O5    S    
C6    C9    A    
N4    H6    S    
Cu1   Cu2   S    
C11   O10   S    
C5    C10   A    
O14   H10   S    
C16   O16   S    
C11   C13   A    
O9    H1    S    
Cu2   O3    S    
C3    O7    A    
N4    H5    S    
C4    O8    A    
C12   C14   A    
N3    H3    S    
C1    O3    A    
C6    C11   A    
C2    O4    A    
Cu1   O1    S    
Cu1   O4    S    
C15   C16   D    
O15   H11   S    
C3    O5    A    
Cu1   N2    S    
C8    O12   S    
C5    C12   A    
C8    C10   A    
O16   H12   S    
O11   H7    S    
C7    C9    A    
C7    O11   S    
Cu2   N1    S    
N3    H4    S    
Cu2   O2    S    
Cu1   O8    S    
O10   H2    S    
C7    C14   A    
Cu2   O7    S    
N1    N2    D    
N1    O13   S    
C4    C5    S    
