data_mof_unit_35200.cif
_audit_creation_date              2012-12-11T15:35:25-0500
_audit_creation_method            fapswitch 2.2
_symmetry_space_group_name_H-M    P1
_symmetry_Int_Tables_number       1
_space_group_crystal_system       triclinic
_cell_length_a                    17.337979
_cell_length_b                    24.253567
_cell_length_c                    14.935203
_cell_angle_alpha                 90.187397
_cell_angle_beta                  125.120995
_cell_angle_gamma                 89.341332
_cell_volume                      5136.57688458

loop_
_atom_site_label
_atom_site_type_symbol
_atom_type_description
_atom_site_fract_x
_atom_site_fract_y
_atom_site_fract_z
_atom_type_partial_charge
C1    C     C_R   0.306648 0.121346 0.907887 -0.105426
C2    C     C_R   0.309432 0.875667 0.907653 -0.140588
C3    C     C_R   0.807710 0.623359 0.906075 -0.104845
C4    C     C_R   0.811384 0.373508 0.906247 -0.130687
C5    C     C_R   0.648350 0.150987 0.091395 -0.135982
C6    C     C_R   0.649256 0.848603 0.093246 -0.124439
C7    C     C_R   0.149141 0.651050 0.092018 -0.164136
C8    C     C_R   0.150933 0.349166 0.093623 -0.111948
C9    C     C_R   0.558561 0.846942 0.911969 -0.162639
C10   C     C_R   0.556955 0.151827 0.909296 -0.146573
C11   C     C_R   0.061530 0.347458 0.912172 -0.138540
C12   C     C_R   0.057751 0.652612 0.910489 -0.116020
C13   C     C_R   0.550000 0.999350 0.725141 0.045152
C14   C     C_R   0.931892 0.500447 0.632858 0.041932
C15   C     C_R   0.824117 0.000266 0.270880 0.097838
C16   C     C_R   0.324588 0.498066 0.276169 0.096990
C17   C     C_R   0.617687 0.181879 0.000114 0.092333
C18   C     C_R   0.619824 0.815081 0.004167 0.143934
C19   C     C_R   0.118331 0.684464 0.002008 0.121273
C20   C     C_R   0.124096 0.315800 0.005044 0.135807
C21   C     C_3   0.041756 0.986159 0.565233 0.337068
C22   C     C_3   0.076607 0.056313 0.464313 0.305506
C23   C     C_3   0.575347 0.439032 0.479349 0.306790
C24   C     C_3   0.543129 0.519060 0.566839 0.338967
C25   C     C_3   0.937910 0.995198 0.471481 -0.255232
C26   C     C_3   0.974388 0.054206 0.359243 -0.268068
C27   C     C_3   0.473165 0.440399 0.374933 -0.272244
C28   C     C_3   0.438834 0.510127 0.475939 -0.259375
C29   C     C_3   0.086549 0.952181 0.438558 -0.023988
C30   C     C_3   0.587044 0.539352 0.433217 -0.022170
C31   C     C_3   0.105671 0.998590 0.525681 0.006555
C32   C     C_3   0.605725 0.499191 0.528624 0.006511
C33   C     C_3   0.926633 0.999666 0.359163 0.123356
C34   C     C_3   0.426678 0.498113 0.364644 0.120608
C35   C     C_R   0.401453 0.874609 0.091379 -0.078653
C36   C     C_R   0.399883 0.123588 0.091414 -0.139551
C37   C     C_R   0.907856 0.366995 0.090580 -0.097287
C38   C     C_R   0.901078 0.629233 0.088380 -0.148888
C39   C     C_3   0.978272 0.950578 0.346892 -0.477824
C40   C     C_3   0.478521 0.542575 0.343593 -0.475013
C41   C     C_R   0.152382 0.815072 0.899878 -0.000419
C42   C     C_R   0.148434 0.180023 0.904094 0.014694
C43   C     C_R   0.765887 0.261471 0.953553 -0.017250
C44   C     C_R   0.647810 0.683166 0.898797 0.047419
C45   C     C_R   0.714213 0.219968 0.954103 -0.243291
C46   C     C_R   0.605849 0.730596 0.904049 -0.314723
C47   C     C_R   0.109611 0.767866 0.902177 -0.266061
C48   C     C_R   0.110155 0.229667 0.907731 -0.304942
C49   C     C_R   0.662713 0.228955 0.997747 -0.090891
C50   C     C_R   0.641944 0.756202 0.004656 -0.039161
C51   C     C_R   0.140022 0.743126 0.001718 -0.092107
C52   C     C_R   0.148026 0.256735 0.007465 -0.032332
C53   C     C_R   0.660704 0.279864 0.042077 0.353009
C54   C     C_R   0.702718 0.725585 0.101902 0.468632
C55   C     C_R   0.196950 0.774185 0.098684 0.353778
C56   C     C_R   0.209116 0.226605 0.105889 0.471494
C57   C     C_R   0.247142 0.819370 0.097845 0.451989
C58   C     C_R   0.246409 0.175551 0.101194 0.348400
C59   C     C_R   0.713379 0.322746 0.041217 0.469198
C60   C     C_R   0.743649 0.676437 0.096061 0.347979
C61   C     C_R   0.233808 0.834625 0.998421 -0.085003
C62   C     C_R   0.229351 0.158660 0.000739 -0.137009
C63   C     C_R   0.764038 0.312715 0.995902 -0.139373
C64   C     C_R   0.729447 0.662306 0.995713 -0.140339
C65   C     C_R   0.603282 0.949107 0.625177 -0.160487
C66   C     C_R   0.604219 0.048912 0.626631 -0.156853
C67   C     C_R   0.892518 0.451378 0.467801 -0.165074
C68   C     C_R   0.896945 0.551260 0.472036 -0.137877
C69   C     C_R   0.603991 0.949204 0.533015 -0.149195
C70   C     C_R   0.604737 0.049064 0.534318 -0.152688
C71   C     C_R   0.908377 0.451348 0.387356 -0.125149
C72   C     C_R   0.914516 0.551219 0.393309 -0.149615
C73   C     C_R   0.595094 0.999286 0.480991 0.129879
C74   C     C_R   0.930540 0.501014 0.359907 0.125123
C75   C     C_R   0.547017 0.045376 0.303012 -0.131754
C76   C     C_R   0.546821 0.954233 0.302538 -0.103363
C77   C     C_R   0.001455 0.545833 0.271585 -0.137477
C78   C     C_R   0.998913 0.454436 0.268986 -0.093146
C79   C     C_R   0.592634 0.999050 0.664589 0.134249
C80   C     C_R   0.899014 0.501104 0.519390 0.122805
C81   C     C_R   0.248909 0.953851 0.694772 -0.152544
C82   C     C_R   0.250140 0.045100 0.691577 0.014238
C83   C     C_R   0.751470 0.454312 0.693014 0.024453
C84   C     C_R   0.747693 0.545705 0.693756 -0.142582
C85   C     C_R   0.307375 0.133266 0.999877 0.098866
C86   C     C_R   0.310383 0.862549 0.999278 0.125044
C87   C     C_R   0.808501 0.637776 0.996424 0.101097
C88   C     C_R   0.820214 0.354820 0.998359 0.204239
C89   C     C_R   0.562194 0.999670 0.366352 0.053865
C90   C     C_R   0.975541 0.500421 0.303213 0.044055
C91   C     C_R   0.204443 0.999032 0.627312 0.077568
C92   C     C_R   0.704390 0.499907 0.628438 0.067327
C93   C     C_R   0.518769 0.045559 0.751193 -0.127025
C94   C     C_R   0.518935 0.953649 0.751261 -0.115355
C95   C     C_R   0.950053 0.545991 0.697152 -0.119230
C96   C     C_R   0.950137 0.454485 0.696596 -0.136855
C97   C     C_R   0.767600 0.953943 0.241729 -0.115325
C98   C     C_R   0.767373 0.046404 0.247140 -0.149525
C99   C     C_R   0.267938 0.452544 0.250372 -0.152070
C100  C     C_R   0.267780 0.545063 0.243814 -0.108775
H1    H     H_    0.248948 0.124745 0.822967 0.130854
H2    H     H_    0.254496 0.870080 0.822779 0.118602
H3    H     H_    0.751147 0.626603 0.821158 0.111319
H4    H     H_    0.754533 0.366477 0.821491 0.138904
H5    H     H_    0.912481 0.034756 0.484431 0.148710
H6    H     H_    0.936067 0.090662 0.360418 0.135025
H7    H     H_    0.434759 0.407292 0.384119 0.141261
H8    H     H_    0.413272 0.473518 0.496055 0.152293
H9    H     H_    0.947321 0.911578 0.351232 0.171537
H10   H     H_    0.963347 0.950725 0.263705 0.182958
H11   H     H_    0.461547 0.537896 0.259807 0.185414
H12   H     H_    0.449719 0.583848 0.343573 0.171913
H13   H     H_    0.716131 0.179669 0.923247 0.157721
H14   H     H_    0.548485 0.748714 0.827930 0.155538
H15   H     H_    0.054815 0.749739 0.825099 0.150424
H16   H     H_    0.052830 0.247600 0.831307 0.151968
H17   H     H_    0.600984 0.909775 0.657323 0.113221
H18   H     H_    0.602847 0.088196 0.660079 0.112977
H19   H     H_    0.886384 0.412127 0.497126 0.112403
H20   H     H_    0.894356 0.590603 0.504376 0.115068
H21   H     H_    0.430136 0.868126 0.176396 0.162702
H22   H     H_    0.427940 0.130149 0.176279 0.151220
H23   H     H_    0.939436 0.350364 0.171549 0.097154
H24   H     H_    0.929440 0.643252 0.169851 0.140912
H25   H     H_    0.602397 0.909888 0.497821 0.116735
H26   H     H_    0.603702 0.088467 0.500080 0.117284
H27   H     H_    0.911748 0.412119 0.355137 0.122590
H28   H     H_    0.924292 0.590494 0.367618 0.154400
H29   H     H_    0.564954 0.087505 0.330415 0.094919
H30   H     H_    0.564695 0.911832 0.329277 0.090603
H31   H     H_    0.007417 0.587592 0.298918 0.100954
H32   H     H_    0.000613 0.412354 0.292222 0.086352
H33   H     H_    0.238383 0.910986 0.674730 0.109655
H34   H     H_    0.243897 0.087047 0.664333 0.139766
H35   H     H_    0.747160 0.412253 0.666819 0.121938
H36   H     H_    0.733111 0.588460 0.671143 0.101991
H37   H     H_    0.528369 0.088294 0.740770 0.096424
H38   H     H_    0.528960 0.910681 0.741307 0.096585
H39   H     H_    0.933104 0.588622 0.671823 0.088938
H40   H     H_    0.933566 0.412113 0.670330 0.088605
H41   H     H_    0.789779 0.911297 0.254351 0.101116
H42   H     H_    0.786935 0.089079 0.262794 0.095933
H43   H     H_    0.287479 0.409609 0.265560 0.102704
H44   H     H_    0.289834 0.587417 0.255898 0.105764
H45   H     H_    0.690984 0.164803 0.175431 0.107526
H46   H     H_    0.687566 0.836812 0.178069 0.172142
H47   H     H_    0.190318 0.662888 0.176929 0.146970
H48   H     H_    0.188097 0.337457 0.178226 0.172780
H49   H     H_    0.512158 0.833161 0.828445 0.098326
H50   H     H_    0.515515 0.165805 0.825086 0.109018
H51   H     H_    0.017166 0.333699 0.828366 0.095539
H52   H     H_    0.011609 0.666273 0.826488 0.089022
H53   H     H_    0.054848 0.942177 0.591553 0.084720
H54   H     H_    0.126646 0.065343 0.442430 0.110576
H55   H     H_    0.624492 0.424368 0.458824 0.101066
H56   H     H_    0.556910 0.563873 0.584436 0.081028
N1    N     N_R   0.392140 0.102630 0.941800 -0.051645
N2    N     N_R   0.392140 0.897370 0.941800 -0.045396
N3    N     N_R   0.892140 0.602630 0.941800 -0.047974
N4    N     N_R   0.892140 0.397370 0.941800 -0.056201
N5    N     N_R   0.450890 0.896450 0.057150 -0.057480
N6    N     N_R   0.450890 0.103550 0.057150 -0.047191
N7    N     N_R   0.950890 0.396450 0.057150 -0.052542
N8    N     N_R   0.950890 0.603550 0.057150 -0.044121
N9    N     N_R   0.525160 0.027960 0.206160 -0.041147
N10   N     N_R   0.525160 0.972040 0.206160 -0.042961
N11   N     N_R   0.025160 0.527960 0.206160 -0.037747
N12   N     N_R   0.025160 0.472040 0.206160 -0.041623
N13   N     N_R   0.317870 0.971120 0.792790 -0.040477
N14   N     N_R   0.317870 0.028880 0.792790 -0.060512
N15   N     N_R   0.817870 0.471120 0.792790 -0.052566
N16   N     N_R   0.817870 0.528880 0.792790 -0.040835
N17   N     N_R   0.473480 0.027920 0.793480 -0.048214
N18   N     N_R   0.473480 0.972080 0.793480 -0.042566
N19   N     N_R   0.973480 0.527920 0.793480 -0.040354
N20   N     N_R   0.973480 0.472080 0.793480 -0.042118
N21   N     N_R   0.681610 0.971120 0.207570 -0.045004
N22   N     N_R   0.681610 0.028880 0.207570 -0.041715
N23   N     N_R   0.181610 0.471120 0.207570 -0.044644
N24   N     N_R   0.181610 0.528880 0.207570 -0.044235
N25   N     N_R   0.605410 0.102620 0.056870 -0.039227
N26   N     N_R   0.605410 0.897380 0.056870 -0.054304
N27   N     N_R   0.105410 0.602620 0.056870 -0.045455
N28   N     N_R   0.105410 0.397380 0.056870 -0.054889
N29   N     N_R   0.549680 0.896430 0.944180 -0.041663
N30   N     N_R   0.549680 0.103570 0.944180 -0.042280
N31   N     N_R   0.049680 0.396430 0.944180 -0.043921
N32   N     N_R   0.049680 0.603570 0.944180 -0.043305
Ni1   Ni    Ni4+2 0.433410 0.064680 0.868830 0.212775
Ni2   Ni    Ni4+2 0.433410 0.935320 0.868830 0.217560
Ni3   Ni    Ni4+2 0.933410 0.564680 0.868830 0.212546
Ni4   Ni    Ni4+2 0.933410 0.435320 0.868830 0.213485
Ni5   Ni    Ni4+2 0.565650 0.934380 0.131170 0.223006
Ni6   Ni    Ni4+2 0.565650 0.065620 0.131170 0.213001
Ni7   Ni    Ni4+2 0.065650 0.434380 0.131170 0.224933
Ni8   Ni    Ni4+2 0.065650 0.565620 0.131170 0.223132
O1    O     O_3   0.065216 0.018438 0.655972 -0.745693
H57   H     H_    0.036666 0.000554 0.689953 0.322846
O2    O     O_3   0.084703 0.100630 0.530521 -0.755190
H58   H     H_    0.031992 0.099369 0.538584 0.356142
O3    O     O_3   0.583502 0.399961 0.554550 -0.750685
H59   H     H_    0.532346 0.406027 0.564561 0.360252
O4    O     O_3   0.567411 0.492269 0.663594 -0.735965
H60   H     H_    0.539910 0.514626 0.694760 0.327094
C101  C     C_1   0.882128 0.951519 0.477901 0.054244
N33   N     N_1   0.838851 0.917484 0.483614 -0.082035
C102  C     C_1   0.971864 0.060849 0.259151 0.094069
N34   N     N_1   0.969792 0.066083 0.180801 -0.071099
C103  C     C_1   0.469525 0.425960 0.276230 0.098466
N35   N     N_1   0.466589 0.414641 0.198997 -0.058854
C104  C     C_1   0.384542 0.557724 0.476081 0.054186
N36   N     N_1   0.342570 0.594892 0.477112 -0.075540
C105  C     C_1   0.114440 0.895310 0.481990 0.039889
N37   N     N_1   0.134542 0.850274 0.513463 -0.086383
C106  C     C_1   0.139167 0.964116 0.390671 0.069139
N38   N     N_1   0.180413 0.973459 0.353238 -0.063604
C107  C     C_1   0.635779 0.518855 0.384508 0.063511
N39   N     N_1   0.673247 0.502778 0.345589 -0.064043
C108  C     C_1   0.619837 0.596493 0.467586 0.040296
N40   N     N_1   0.644271 0.641613 0.492250 -0.089028
C109  C     C_1   0.107763 0.842205 0.795374 0.068861
N41   N     N_1   0.070294 0.863388 0.710699 -0.106008
C110  C     C_1   0.099522 0.151269 0.801474 0.108625
N42   N     N_1   0.058490 0.128585 0.718527 -0.047795
C111  C     C_1   0.823823 0.249618 0.914357 0.090123
N43   N     N_1   0.870187 0.240181 0.883227 -0.087323
C112  C     C_1   0.603524 0.657815 0.793064 0.066086
N44   N     N_1   0.566277 0.638169 0.707315 -0.107880
O5    O     O_3   0.609209 0.288971 0.085191 -0.769385
H61   H     H_    0.569124 0.256856 0.071285 0.328446
O6    O     O_3   0.719613 0.743585 0.199465 -0.786672
H62   H     H_    0.766455 0.719229 0.260443 0.364276
O7    O     O_3   0.202962 0.762524 0.192746 -0.778879
H63   H     H_    0.140471 0.748965 0.170272 0.318081
O8    O     O_3   0.229869 0.246782 0.203922 -0.788959
H64   H     H_    0.277346 0.222957 0.265528 0.368306
O9    O     O_3   0.305595 0.850485 0.190582 -0.773097
H65   H     H_    0.311455 0.833616 0.254506 0.366100
O10   O     O_3   0.298443 0.143427 0.194460 -0.777459
H66   H     H_    0.297198 0.104736 0.171911 0.329949
O11   O     O_3   0.717284 0.374481 0.083082 -0.749058
H67   H     H_    0.679414 0.375216 0.113452 0.366436
O12   O     O_3   0.796757 0.643638 0.188027 -0.797221
H68   H     H_    0.798485 0.605714 0.164104 0.329197

loop_
_geom_bond_atom_site_label_1
_geom_bond_atom_site_label_2
_ccdc_geom_bond_type
C68   C80   A    
C38   C87   A    
C3    N3    A    
O4    H60   S    
C13   C79   S    
C24   O4    S    
C58   C62   A    
N9    N10   A    
C65   C79   A    
C23   H55   S    
C63   C88   S    
N13   N14   A    
C14   C95   A    
C37   C88   A    
O10   H66   S    
N10   Ni5   S    
C41   C61   A    
N15   N16   A    
N9    Ni6   S    
C26   H6    S    
C82   N14   A    
C53   C59   A    
C43   C63   A    
N29   Ni2   S    
C40   H12   S    
N23   Ni7   S    
N17   N18   A    
C44   C64   A    
C28   C104  S    
C47   H15   S    
C83   C92   A    
C21   C31   S    
N14   Ni1   S    
C9    H49   S    
C35   N5    A    
N21   Ni5   S    
C72   H28   S    
N32   Ni3   S    
C34   C40   S    
C99   H43   S    
C55   O7    S    
C48   C52   A    
C9    N29   A    
N2    Ni2   S    
N19   Ni3   S    
C6    H46   S    
C35   C86   A    
C49   C53   A    
N20   Ni4   S    
C5    C17   A    
C2    H2    S    
C10   C17   A    
C45   C49   A    
O12   H68   S    
C12   N32   A    
C27   C103  S    
O11   H67   S    
C77   H31   S    
C14   C96   A    
C57   C61   A    
C112  N44   T    
C78   H32   S    
C95   N19   A    
N2    N5    A    
C16   C34   S    
C37   H23   S    
C76   H30   S    
C33   C39   S    
C39   H10   S    
C61   C86   S    
C26   C102  S    
N12   Ni7   S    
C83   N15   A    
N17   Ni1   S    
O8    H64   S    
C56   O8    S    
C76   N10   A    
C4    N4    A    
C23   C27   S    
C98   N22   A    
O7    H63   S    
C42   C62   A    
C64   C87   S    
C83   H35   S    
N24   Ni8   S    
C68   C72   A    
C76   C89   A    
C37   N7    A    
C8    N28   A    
C38   N8    A    
N7    Ni7   S    
C69   H25   S    
O2    H58   S    
C27   C34   S    
O9    H65   S    
C98   H42   S    
C36   N6    A    
C71   H27   S    
C8    H48   S    
N13   Ni2   S    
C15   C97   A    
C25   C101  S    
C59   O11   S    
C5    N25   A    
C44   C46   A    
C103  N35   T    
C40   H11   S    
C7    H47   S    
N16   Ni3   S    
C1    C85   A    
C6    C18   A    
C62   C85   S    
C77   C90   A    
C5    H45   S    
C22   C31   S    
C46   H14   S    
C3    C87   A    
C102  N34   T    
N4    N7    A    
N3    Ni3   S    
C22   O2    S    
C35   H21   S    
N4    Ni4   S    
C110  N42   T    
C72   C74   A    
C100  H44   S    
C17   C49   S    
N11   N12   A    
C16   C100  A    
C42   C48   A    
C51   C55   A    
C107  N39   T    
C101  N33   T    
C75   H29   S    
C11   C20   A    
C78   C90   A    
C82   C91   A    
C13   C93   A    
C97   N21   A    
N26   N29   A    
C82   H34   S    
C36   H22   S    
C106  N38   T    
C24   C32   S    
C99   N23   A    
O5    H61   S    
C66   C79   A    
C19   C51   S    
C109  N41   T    
N22   Ni6   S    
C29   C106  S    
C26   C33   S    
C29   C105  S    
C104  N36   T    
C32   C92   S    
C27   H7    S    
C2    N2    A    
N6    Ni6   S    
C70   C73   A    
N27   Ni8   S    
C41   C47   A    
C30   C40   S    
C75   N9    A    
N26   Ni5   S    
C50   C54   A    
C45   H13   S    
C54   C60   A    
C69   C73   A    
N25   Ni6   S    
C43   C45   A    
C97   H41   S    
N31   Ni4   S    
C105  N37   T    
N18   Ni2   S    
C30   C107  S    
C57   O9    S    
C11   H51   S    
C8    C20   A    
C23   O3    S    
C7    C19   A    
C14   C80   S    
C55   C57   A    
C66   H18   S    
C94   H38   S    
C11   N31   A    
C59   C63   A    
C15   C98   A    
C42   C110  S    
C100  N24   A    
C1    H1    S    
C54   O6    S    
C108  N40   T    
C18   C50   S    
C22   H54   S    
C3    H3    S    
C29   C39   S    
C21   C25   S    
C84   H36   S    
C60   O12   S    
C21   H53   S    
C25   C33   S    
C96   N20   A    
C111  N43   T    
C58   O10   S    
C95   H39   S    
C94   N18   A    
C67   C80   A    
C24   C28   S    
C31   C91   S    
C21   O1    S    
C84   N16   A    
C96   H40   S    
C71   C74   A    
C47   C51   A    
N25   N30   A    
N8    Ni8   S    
C16   C99   A    
C81   H33   S    
C4    C88   A    
C7    N27   A    
C36   C85   A    
C77   N11   A    
N28   Ni7   S    
C46   C50   A    
C78   N12   A    
C81   N13   A    
N28   N31   A    
C48   H16   S    
C13   C94   A    
C60   C64   A    
C23   C32   S    
C74   C90   S    
N30   Ni1   S    
C1    N1    A    
C73   C89   S    
C20   C52   S    
N19   N20   A    
N27   N32   A    
C10   H50   S    
C30   C32   S    
C70   H26   S    
C66   C70   A    
C52   C56   A    
C28   H8    S    
C65   C69   A    
C4    H4    S    
C12   C19   A    
C93   N17   A    
C10   N30   A    
C56   C58   A    
N15   Ni4   S    
C2    C86   A    
C67   C71   A    
O1    H57   S    
C44   C112  S    
N1    Ni1   S    
C25   H5    S    
C6    N26   A    
C93   H37   S    
N5    Ni5   S    
C75   C89   A    
C28   C34   S    
N23   N24   A    
C81   C91   A    
N11   Ni8   S    
C24   H56   S    
C9    C18   A    
C39   H9    S    
O3    H59   S    
C68   H20   S    
C29   C31   S    
N21   N22   A    
C22   C26   S    
C41   C109  S    
C12   H52   S    
O6    H62   S    
C65   H17   S    
N3    N8    A    
C84   C92   A    
C67   H19   S    
N1    N6    A    
C15   C33   S    
C38   H24   S    
C43   C111  S    
C53   O5    S    
C30   C108  S    
