data_mof_unit_41907.cif
_audit_creation_date              2012-12-10T19:07:35-0500
_audit_creation_method            fapswitch 2.2
_symmetry_space_group_name_H-M    P1
_symmetry_Int_Tables_number       1
_space_group_crystal_system       triclinic
_cell_length_a                    10.814254
_cell_length_b                    10.842539
_cell_length_c                    9.562927
_cell_angle_alpha                 89.606591
_cell_angle_beta                  90.853138
_cell_angle_gamma                 90.581821
_cell_volume                      1121.08377157

loop_
_atom_site_label
_atom_site_type_symbol
_atom_type_description
_atom_site_fract_x
_atom_site_fract_y
_atom_site_fract_z
_atom_type_partial_charge
C1    C     C_R   0.501762 0.262456 0.500340 0.858114
C2    C     C_R   0.939913 0.549445 0.610053 0.100219
C3    C     C_3   0.941450 0.681219 0.656745 0.506732
C4    C     C_3   0.081121 0.677348 0.655940 -0.418800
C5    C     C_R   0.523617 0.062633 0.624483 -0.013798
C6    C     C_R   0.512897 0.129566 0.499823 -0.231754
C7    C     C_R   0.518544 0.066337 0.372342 -0.183682
C8    C     C_R   0.517624 0.937977 0.370661 0.673388
C9    C     C_R   0.512194 0.871085 0.497610 -0.174171
C10   C     C_R   0.522801 0.935523 0.623277 -0.063609
C11   C     C_3   0.447306 0.926967 0.752782 0.388000
C12   C     C_R   0.262605 0.497543 0.499163 0.856808
C13   C     C_3   0.448235 0.066947 0.753950 0.485593
C14   C     C_R   0.557748 0.592625 0.074322 -0.017345
C15   C     C_R   0.430166 0.417680 0.073748 0.641705
C16   C     C_R   0.429720 0.418086 0.925005 0.658036
C17   C     C_R   0.557950 0.592383 0.927110 -0.052332
C18   C     C_3   0.691443 0.627511 0.925973 0.949008
C19   C     C_3   0.690853 0.628315 0.084375 0.449259
C20   C     C_R   0.501557 0.737683 0.499345 0.888401
C21   C     C_R   0.737644 0.500711 0.500687 0.868373
C22   C     C_R   0.067526 0.547291 0.608366 -0.061415
C23   C     C_R   0.129409 0.491522 0.499445 -0.185581
C24   C     C_R   0.061383 0.427648 0.396112 0.651223
C25   C     C_R   0.932297 0.429518 0.397619 -0.268105
C26   C     C_R   0.871045 0.494871 0.502055 -0.121085
Cu1   Cu    Cu3+1 0.499990 0.499980 0.640670 1.111331
Cu2   Cu    Cu3+1 0.500010 0.500020 0.359330 1.098406
H1    H     H_    0.750637 0.557228 0.134111 0.079235
H2    H     H_    0.123895 0.683211 0.762151 0.219549
H3    H     H_    0.517119 0.115480 0.273324 0.237985
N1    N     N_R   0.500790 0.500930 0.147930 -0.311108
N2    N     N_R   0.500790 0.500890 0.852020 -0.275559
O1    O     O_R   0.500000 0.319640 0.618810 -0.527431
O2    O     O_R   0.500010 0.319680 0.381230 -0.548503
O3    O     O_R   0.319650 0.499970 0.618810 -0.548334
O4    O     O_R   0.319660 0.500010 0.381230 -0.513130
O5    O     O_R   0.499990 0.680320 0.618770 -0.559210
O6    O     O_R   0.500000 0.680360 0.381190 -0.514585
O7    O     O_R   0.680340 0.499990 0.618770 -0.522124
O8    O     O_R   0.680350 0.500030 0.381190 -0.609740
F1    F     F_    0.119039 0.366077 0.293015 -0.576573
H4    H     H_    0.496926 0.883240 0.842539 0.202890
H5    H     H_    0.356070 0.109819 0.738144 0.163877
F2    F     F_    0.516105 0.114021 0.865612 -0.587716
F3    F     F_    0.360758 0.332691 0.142369 -0.547062
F4    F     F_    0.358388 0.334886 0.855185 -0.593800
F5    F     F_    0.766370 0.536334 0.874344 -0.700853
F6    F     F_    0.710353 0.742621 0.866181 -0.622532
F7    F     F_    0.707082 0.745190 0.139261 -0.532038
H6    H     H_    0.880444 0.382116 0.316029 0.194420
F8    F     F_    0.893429 0.760465 0.555954 -0.601702
H7    H     H_    0.905012 0.695274 0.762674 0.192888
H8    H     H_    0.123697 0.738803 0.575978 0.248730
F9    F     F_    0.513679 0.881020 0.244728 -0.568598
F10   F     F_    0.330290 0.878477 0.726740 -0.671901

loop_
_geom_bond_atom_site_label_1
_geom_bond_atom_site_label_2
_ccdc_geom_bond_type
C2    C22   A    
C3    F8    S    
C25   H6    S    
C11   H4    S    
C6    C7    A    
C15   F3    S    
Cu1   O3    S    
C12   O3    A    
C20   O5    A    
C9    C10   A    
C9    C20   S    
C5    C13   S    
C19   F7    S    
Cu1   O7    S    
C21   C26   S    
C17   C18   S    
C3    C4    S    
C15   N1    A    
C2    C26   A    
Cu1   N2    S    
C13   F2    S    
C3    H7    S    
C14   C17   A    
C21   O7    A    
C17   N2    A    
Cu2   O4    S    
C21   O8    A    
C16   F4    S    
C5    C10   A    
C7    H3    S    
C8    F9    S    
C1    O1    A    
C2    C3    S    
C18   F6    S    
Cu1   O1    S    
C5    C6    A    
C16   N2    A    
C11   C13   S    
C7    C8    A    
C10   C11   S    
C23   C24   A    
C15   C16   A    
C19   H1    S    
Cu2   O8    S    
Cu2   N1    S    
C24   F1    S    
C24   C25   A    
C1    O2    A    
C18   C19   S    
C12   O4    A    
Cu1   Cu2   S    
C20   O6    A    
C4    C22   S    
C22   C23   A    
C12   C23   S    
Cu1   O5    S    
Cu2   O6    S    
C4    H8    S    
C25   C26   A    
C14   C19   S    
C13   H5    S    
C4    H2    S    
C11   F10   S    
C1    C6    S    
Cu2   O2    S    
C14   N1    A    
C8    C9    A    
C18   F5    S    
