data_mof_unit_57430.cif
_audit_creation_date              2012-12-10T16:35:54-0500
_audit_creation_method            fapswitch 2.2
_symmetry_space_group_name_H-M    P1
_symmetry_Int_Tables_number       1
_space_group_crystal_system       triclinic
_cell_length_a                    14.256528
_cell_length_b                    16.411016
_cell_length_c                    13.118231
_cell_angle_alpha                 89.76828
_cell_angle_beta                  106.977379
_cell_angle_gamma                 90.021088
_cell_volume                      2935.4149813

loop_
_atom_site_label
_atom_site_type_symbol
_atom_type_description
_atom_site_fract_x
_atom_site_fract_y
_atom_site_fract_z
_atom_type_partial_charge
C1    C     C_R   0.315639 0.844096 0.476921 0.733646
C2    C     C_R   0.685288 0.843630 0.522939 0.916502
C3    C     C_R   0.185161 0.656538 0.522901 0.913999
C4    C     C_R   0.185288 0.343629 0.522940 0.916497
C5    C     C_R   0.546833 0.998758 0.785819 0.737785
C6    C     C_R   0.046832 0.498756 0.785818 0.737866
C7    C     C_R   0.451516 0.000398 0.214565 0.692898
C8    C     C_R   0.951517 0.500398 0.214566 0.692893
C9    C     C_2   0.429418 0.002712 0.098051 0.369790
C10   C     C_2   0.929421 0.502712 0.098052 0.369827
C11   C     C_2   0.499891 0.977421 0.056624 -0.225897
C12   C     C_R   0.315381 0.155846 0.476711 0.736704
C13   C     C_2   0.999895 0.477426 0.056626 -0.225975
C14   C     C_2   0.565484 0.990348 0.902172 0.285966
C15   C     C_2   0.065486 0.490343 0.902169 0.285974
C16   C     C_2   0.488898 0.988779 0.942357 -0.190481
C17   C     C_2   0.988903 0.488787 0.942359 -0.190553
C18   C     C_2   0.755779 0.222204 0.532975 -0.444647
C19   C     C_2   0.759113 0.781318 0.528050 -0.456785
C20   C     C_2   0.255777 0.722207 0.532979 -0.444641
C21   C     C_2   0.259112 0.281317 0.528053 -0.456794
C22   C     C_3   0.711545 0.048251 0.989983 0.096059
C23   C     C_R   0.815639 0.344096 0.476921 0.733644
C24   C     C_3   0.817931 0.029282 0.051414 -0.306260
C25   C     C_3   0.879608 0.106596 0.076487 -0.990293
C26   C     C_3   0.211525 0.548238 0.990066 0.096126
C27   C     C_3   0.317963 0.529256 0.051287 -0.306208
C28   C     C_3   0.379588 0.606588 0.076566 -0.990337
C29   C     C_3   0.266494 0.046952 0.071349 0.081074
C30   C     C_3   0.214935 0.963979 0.059674 -0.375633
C31   C     C_3   0.115102 0.971057 0.079872 -0.990481
C32   C     C_3   0.766489 0.546931 0.071347 0.081070
C33   C     C_3   0.714949 0.463950 0.059671 -0.375616
C34   C     C_R   0.815381 0.655846 0.476710 0.736700
C35   C     C_3   0.615109 0.471010 0.079856 -0.990490
C36   C     C_3   0.626296 0.357765 0.327684 0.098302
C37   C     C_3   0.565597 0.396030 0.394432 -0.369985
C38   C     C_3   0.527186 0.479829 0.351173 -0.933436
C39   C     C_3   0.643769 0.686728 0.292325 0.076955
C40   C     C_3   0.646270 0.768046 0.234907 -0.333425
C41   C     C_3   0.643842 0.754766 0.119159 -0.951415
C42   C     C_3   0.126307 0.857748 0.327656 0.098301
C43   C     C_3   0.065596 0.896019 0.394389 -0.369960
C44   C     C_3   0.027158 0.979802 0.351093 -0.933484
C45   C     C_2   0.239508 0.783564 0.461815 0.372969
C46   C     C_3   0.143786 0.186744 0.292314 0.076987
C47   C     C_3   0.146302 0.268066 0.234912 -0.333457
C48   C     C_3   0.143885 0.254796 0.119165 -0.951406
C49   C     C_2   0.239575 0.216226 0.463450 0.377788
C50   C     C_2   0.739507 0.283566 0.461817 0.372984
C51   C     C_2   0.739574 0.716225 0.463450 0.377784
C52   C     C_R   0.685161 0.156538 0.522901 0.913994
H1    H     H_    0.415370 0.999138 0.889707 0.200958
H2    H     H_    0.710788 0.081945 0.915784 0.146252
H3    H     H_    0.820241 0.997529 0.127112 0.220930
H4    H     H_    0.849869 0.988140 0.003135 0.237013
H5    H     H_    0.877395 0.139924 0.001950 0.267966
H6    H     H_    0.956743 0.089759 0.117299 0.259583
H7    H     H_    0.852425 0.146940 0.129518 0.280452
H8    H     H_    0.179152 0.587326 0.040406 0.144792
H9    H     H_    0.210645 0.582063 0.915918 0.146047
H10   H     H_    0.320399 0.497312 0.126893 0.220957
H11   H     H_    0.349855 0.488282 0.002781 0.236980
H12   H     H_    0.915376 0.499157 0.889712 0.200982
H13   H     H_    0.377230 0.640117 0.002128 0.267987
H14   H     H_    0.456764 0.589751 0.117186 0.259568
H15   H     H_    0.352470 0.646748 0.129838 0.280464
H16   H     H_    0.214346 0.091787 0.021562 0.182681
H17   H     H_    0.283809 0.069887 0.154318 0.127199
H18   H     H_    0.204366 0.940469 0.977741 0.242514
H19   H     H_    0.260849 0.919765 0.117366 0.213862
H20   H     H_    0.123590 0.995460 0.160908 0.251041
H21   H     H_    0.080203 0.910071 0.073128 0.269584
H22   H     H_    0.066307 0.012201 0.019986 0.277404
H23   H     H_    0.567864 0.952245 0.108298 0.151685
H24   H     H_    0.714333 0.591759 0.021559 0.182683
H25   H     H_    0.783797 0.569865 0.154316 0.127186
H26   H     H_    0.704393 0.440439 0.977739 0.242511
H27   H     H_    0.760869 0.419742 0.117368 0.213867
H28   H     H_    0.623583 0.495420 0.160886 0.251036
H29   H     H_    0.580228 0.410017 0.073121 0.269593
H30   H     H_    0.566306 0.512142 0.019959 0.277379
H31   H     H_    0.577036 0.348970 0.245628 0.172767
H32   H     H_    0.685229 0.399453 0.319491 0.115464
H33   H     H_    0.502625 0.355599 0.392939 0.234845
H34   H     H_    0.067870 0.452252 0.108300 0.151664
H35   H     H_    0.611101 0.402758 0.478543 0.229278
H36   H     H_    0.589476 0.521745 0.356060 0.271754
H37   H     H_    0.481779 0.505416 0.399193 0.278763
H38   H     H_    0.481405 0.475147 0.266958 0.258267
H39   H     H_    0.573810 0.655839 0.251759 0.165855
H40   H     H_    0.702788 0.645036 0.284482 0.107360
H41   H     H_    0.581884 0.805444 0.236829 0.253730
H42   H     H_    0.713996 0.802188 0.275989 0.209489
H43   H     H_    0.710666 0.721589 0.115733 0.264483
H44   H     H_    0.641876 0.814568 0.078734 0.293806
H45   H     H_    0.321337 0.721475 0.601090 0.112535
H46   H     H_    0.577709 0.719425 0.076265 0.263279
H47   H     H_    0.077055 0.848943 0.245599 0.172775
H48   H     H_    0.185239 0.899437 0.319464 0.115468
H49   H     H_    0.002637 0.855578 0.392915 0.234859
H50   H     H_    0.111099 0.902773 0.478497 0.229269
H51   H     H_    0.089434 0.021729 0.355954 0.271729
H52   H     H_    0.981747 0.005396 0.399105 0.278764
H53   H     H_    0.981374 0.975093 0.266882 0.258270
H54   H     H_    0.073826 0.155862 0.251736 0.165830
H55   H     H_    0.202804 0.145050 0.284473 0.107366
H56   H     H_    0.331758 0.289592 0.583759 0.111822
H57   H     H_    0.081918 0.305467 0.236831 0.253725
H58   H     H_    0.214029 0.302202 0.276005 0.209488
H59   H     H_    0.210709 0.221619 0.115742 0.264482
H60   H     H_    0.141926 0.314601 0.078748 0.293821
H61   H     H_    0.077752 0.219460 0.076260 0.263287
H62   H     H_    0.821345 0.221468 0.601080 0.112530
H63   H     H_    0.831760 0.789596 0.583750 0.111822
H64   H     H_    0.679105 0.087458 0.040144 0.144708
O1    O     O_3   0.500010 0.000000 0.500000 -0.487752
O2    O     O_R   0.103010 0.337110 0.452470 -0.588372
O3    O     O_R   0.316670 0.095240 0.537470 -0.623847
O4    O     O_R   0.316670 0.904760 0.537470 -0.657618
O5    O     O_R   0.816670 0.595240 0.537470 -0.623847
O6    O     O_R   0.816670 0.404760 0.537470 -0.657617
O7    O     O_R   0.703490 0.904800 0.585920 -0.648681
O8    O     O_R   0.703490 0.095200 0.585920 -0.659269
O9    O     O_R   0.203490 0.404800 0.585920 -0.648688
O10   O     O_R   0.203490 0.595200 0.585920 -0.659259
O11   O     O_R   0.458050 0.000000 0.725250 -0.662133
O12   O     O_3   0.000010 0.500000 0.500000 -0.487758
O13   O     O_R   0.958050 0.500000 0.725250 -0.662158
O14   O     O_R   0.461630 0.932310 0.264690 -0.673437
O15   O     O_R   0.461630 0.067690 0.264690 -0.623871
O16   O     O_R   0.961630 0.432310 0.264690 -0.673435
O17   O     O_R   0.961630 0.567690 0.264690 -0.623873
O18   O     O_R   0.618750 0.000000 0.745380 -0.619778
O19   O     O_R   0.118750 0.500000 0.745380 -0.619717
O20   O     O_3   0.659425 0.974242 0.966816 -0.637958
O21   O     O_3   0.159427 0.474224 0.966799 -0.637962
O22   O     O_3   0.349165 0.045171 0.032314 -0.647572
O23   O     O_R   0.376880 0.837120 0.424150 -0.626073
O24   O     O_3   0.849163 0.545166 0.032315 -0.647573
O25   O     O_3   0.662233 0.279901 0.367375 -0.612565
O26   O     O_3   0.645049 0.699426 0.399449 -0.612191
O27   O     O_3   0.162247 0.779888 0.367364 -0.612577
O28   O     O_3   0.145054 0.199432 0.399437 -0.612185
O29   O     O_R   0.376880 0.162880 0.424150 -0.671707
O30   O     O_R   0.876880 0.337120 0.424150 -0.626071
O31   O     O_R   0.876880 0.662880 0.424150 -0.671704
O32   O     O_R   0.603010 0.162890 0.452470 -0.578211
O33   O     O_R   0.603010 0.837110 0.452470 -0.588377
O34   O     O_R   0.103010 0.662890 0.452470 -0.578221
Zn1   Zn    Zn3+2 0.485630 0.096680 0.411850 0.977611
Zn2   Zn    Zn3+2 0.485630 0.903320 0.411850 0.975948
Zn3   Zn    Zn3+2 0.985630 0.596680 0.411850 0.977602
Zn4   Zn    Zn3+2 0.985630 0.403320 0.411850 0.975950
Zn5   Zn    Zn3+2 0.399590 0.000000 0.573760 0.964790
Zn6   Zn    Zn3+2 0.899590 0.500000 0.573760 0.964782
Zn7   Zn    Zn3+2 0.629190 0.000000 0.602520 0.973711
Zn8   Zn    Zn3+2 0.129190 0.500000 0.602520 0.973730

loop_
_geom_bond_atom_site_label_1
_geom_bond_atom_site_label_2
_ccdc_geom_bond_type
O5    Zn6   S    
C35   H28   S    
O15   Zn1   S    
O32   Zn1   S    
C40   H41   S    
C43   C44   S    
C26   O21   S    
C18   H62   S    
C21   C49   D    
C30   H19   S    
C44   H52   S    
C3    O10   A    
C18   C52   S    
C22   H2    S    
C44   H53   S    
C24   H3    S    
C29   O22   S    
C38   H37   S    
C34   C51   S    
C29   C30   S    
C10   O24   S    
C4    O9    A    
O17   Zn3   S    
C37   H33   S    
C36   C37   S    
C26   H9    S    
C32   O24   S    
C17   H12   S    
C30   C31   S    
C33   H26   S    
C31   H21   S    
C41   H44   S    
O18   Zn7   S    
C36   H31   S    
C29   H16   S    
C49   O28   S    
O23   Zn2   S    
C15   C17   D    
C9    O22   S    
C16   H1    S    
C7    O14   A    
C6    C15   S    
C44   H51   S    
C20   H45   S    
O34   Zn3   S    
C13   H34   S    
O1    Zn5   S    
O16   Zn4   S    
C7    O15   A    
C20   C45   D    
C1    O23   A    
C50   O25   S    
O12   Zn4   S    
C2    O33   A    
C22   H64   S    
C32   H25   S    
C52   O32   A    
O19   Zn8   S    
O8    Zn7   S    
C4    O2    A    
C25   H5    S    
C6    O13   A    
C39   H39   S    
C30   H18   S    
C35   H30   S    
C12   C49   S    
C23   O6    A    
C29   H17   S    
O10   Zn8   S    
C35   H29   S    
C5    O18   A    
C23   O30   A    
O1    Zn7   S    
C28   H15   S    
C24   C25   S    
O33   Zn2   S    
O11   Zn5   S    
C39   C40   S    
O12   Zn6   S    
O9    Zn8   S    
C33   H27   S    
C31   H22   S    
C46   O28   S    
O7    Zn7   S    
C47   H57   S    
O4    Zn5   S    
C22   O20   S    
C1    O4    A    
C12   O29   A    
C28   H14   S    
C36   O25   S    
C43   H49   S    
C8    O16   A    
C37   C38   S    
C27   H10   S    
C42   H48   S    
C12   O3    A    
C11   C16   S    
C47   C48   S    
O30   Zn4   S    
C39   O26   S    
C19   H63   S    
C46   H55   S    
C5    O11   A    
C26   C27   S    
C3    C20   S    
O1    Zn1   S    
C9    C11   D    
C5    C14   S    
O29   Zn1   S    
C27   H11   S    
O12   Zn3   S    
C31   H20   S    
C48   H60   S    
C34   O5    A    
O14   Zn2   S    
C14   C16   D    
C6    O19   A    
C34   O31   A    
C25   H6    S    
C39   H40   S    
C42   O27   S    
C18   C50   D    
C51   O26   S    
C2    C19   S    
C7    C9    S    
C46   C47   S    
C40   C41   S    
C3    O34   A    
O3    Zn5   S    
C8    O17   A    
O6    Zn6   S    
C37   H35   S    
C40   H42   S    
C23   C50   S    
C10   C13   D    
C32   H24   S    
O13   Zn6   S    
C24   H4    S    
C47   H58   S    
C38   H38   S    
C13   C17   S    
C32   C33   S    
C28   H13   S    
C43   H50   S    
C11   H23   S    
C42   H47   S    
C4    C21   S    
C52   O8    A    
C1    C45   S    
C41   H43   S    
C14   O20   S    
C36   H32   S    
C46   H54   S    
C33   C35   S    
O2    Zn4   S    
O1    Zn2   S    
C22   C24   S    
O31   Zn3   S    
C21   H56   S    
O12   Zn8   S    
C19   C51   D    
C48   H59   S    
C8    C10   S    
C42   C43   S    
C38   H36   S    
C27   C28   S    
C45   O27   S    
C41   H46   S    
C25   H7    S    
C26   H8    S    
C2    O7    A    
C48   H61   S    
C15   O21   S    
