data_mof_unit_24969.cif
_audit_creation_date              2012-12-11T18:06:56-0500
_audit_creation_method            fapswitch 2.2
_symmetry_space_group_name_H-M    P1
_symmetry_Int_Tables_number       1
_space_group_crystal_system       triclinic
_cell_length_a                    8.240121
_cell_length_b                    13.227216
_cell_length_c                    26.633476
_cell_angle_alpha                 96.72564
_cell_angle_beta                  91.974528
_cell_angle_gamma                 82.507624
_cell_volume                      2857.75249894

loop_
_atom_site_label
_atom_site_type_symbol
_atom_type_description
_atom_site_fract_x
_atom_site_fract_y
_atom_site_fract_z
_atom_type_partial_charge
Ba1   Ba    Ba6+2 0.859560 0.448380 0.523550 1.646738
Ba2   Ba    Ba6+2 0.330270 0.551530 0.476440 1.652159
C1    C     C_3   0.774483 0.114579 0.688657 -0.276201
C2    C     C_3   0.716233 0.193594 0.652673 0.309094
C3    C     C_3   0.568506 0.705425 0.639946 0.231137
C4    C     C_3   0.677779 0.760745 0.678843 -0.239297
C5    C     C_3   0.020499 0.764063 0.338521 0.339202
C6    C     C_3   0.996402 0.782796 0.281342 -0.100836
C7    C     C_3   0.501081 0.765229 0.304446 0.354009
C8    C     C_3   0.490538 0.772860 0.247418 -0.329688
C9    C     C_R   0.015455 0.374892 0.176808 0.602580
C10   C     C_R   0.820574 0.525282 0.174132 0.601163
C11   C     C_2   0.717134 0.464242 0.273884 -0.042852
C12   C     C_3   0.195270 0.250067 0.667336 0.282907
C13   C     C_3   0.687513 0.481195 0.331047 -0.052735
C14   C     C_1   0.981385 0.461550 0.341514 0.030778
C15   C     C_2   0.012079 0.449353 0.292583 -0.123120
C16   C     C_2   0.871305 0.451165 0.255146 0.206807
C17   C     C_R   0.987046 0.462261 0.100237 -0.085925
C18   C     C_R   0.060497 0.380823 0.126358 -0.033056
C19   C     C_R   0.177398 0.307125 0.101350 -0.032937
C20   C     C_R   0.863032 0.533001 0.123787 -0.099712
C21   C     C_2   0.840887 0.505874 0.359358 -0.224466
C22   C     C_2   0.352652 0.484468 0.640108 -0.254158
C23   C     C_3   0.147184 0.259883 0.722800 0.375566
C24   C     C_R   0.234285 0.422278 0.981259 -0.048708
C25   C     C_R   0.995630 0.551890 0.971825 0.096049
C26   C     C_R   0.135981 0.489102 0.951100 0.019181
C27   C     C_R   0.389887 0.376208 0.962102 0.389531
C28   C     C_R   0.423134 0.376227 0.910729 -0.035500
C29   C     C_R   0.317806 0.433542 0.879002 -0.085236
C30   C     C_R   0.178104 0.493662 0.899845 -0.080985
C31   C     C_R   0.080227 0.558539 0.869488 -0.009455
C32   C     C_R   0.129035 0.567369 0.819901 0.601505
C33   C     C_R   0.353667 0.435290 0.827389 0.626478
C34   C     C_3   0.189278 0.238819 0.427393 0.310717
C35   C     C_2   0.460194 0.496531 0.729389 -0.070800
C36   C     C_3   0.501108 0.495339 0.674012 -0.065747
C37   C     C_1   0.208143 0.526199 0.656743 0.059011
C38   C     C_2   0.169860 0.523815 0.704700 -0.146324
C39   C     C_2   0.302353 0.508409 0.744855 0.180783
C40   C     C_R   0.171302 0.405078 0.028563 0.079490
C41   C     C_R   0.039134 0.473646 0.050774 0.041410
C42   C     C_R   0.960731 0.554226 0.024190 -0.018857
C43   C     C_R   0.228619 0.317964 0.053028 0.020967
C44   C     C_R   0.795443 0.616621 0.098746 -0.053593
C45   C     C_3   0.153665 0.129324 0.420458 0.409965
C46   C     C_R   0.889602 0.605441 0.938532 0.016258
C47   C     C_R   0.934042 0.612481 0.889172 -0.045772
C48   C     C_R   0.851034 0.632438 0.051544 0.384191
C49   C     C_R   0.757647 0.830915 0.493710 -0.276469
C50   C     C_R   0.435321 0.188733 0.524995 -0.281449
C51   C     C_R   0.414368 0.023204 0.553946 -0.019336
C52   C     C_R   0.348812 0.125303 0.549261 -0.000986
C53   C     C_R   0.580336 0.152713 0.499501 0.106103
C54   C     C_R   0.644618 0.044337 0.499742 -0.027602
C55   C     C_R   0.558088 0.977352 0.526238 -0.021976
C56   C     C_3   0.986743 0.767998 0.581800 0.304992
C57   C     C_R   0.618601 0.867848 0.521892 0.025129
C58   C     C_R   0.849531 0.893949 0.472363 -0.019622
C59   C     C_R   0.792074 0.000241 0.474499 -0.060276
C60   C     C_3   0.962874 0.884083 0.595284 -0.414732
C61   C     C_3   0.652889 0.284276 0.367286 0.307934
C62   C     C_3   0.579623 0.244298 0.316635 -0.281642
H1    H     H_    0.823554 0.208832 0.632334 0.121322
H2    H     H_    0.022630 0.126676 0.410471 0.028531
H3    H     H_    0.185774 0.091989 0.455244 -0.041358
H4    H     H_    0.867797 0.740949 0.571100 -0.030079
H5    H     H_    0.071705 0.747888 0.549791 0.086142
H6    H     H_    0.832769 0.911409 0.603239 0.066630
H7    H     H_    0.999930 0.922838 0.563627 0.098778
H8    H     H_    0.036872 0.906479 0.629414 0.168561
H9    H     H_    0.776867 0.304033 0.361339 -0.016341
H10   H     H_    0.570374 0.352280 0.383406 0.035240
H11   H     H_    0.845910 0.046904 0.667992 0.093740
H12   H     H_    0.655264 0.173212 0.300234 0.123833
H13   H     H_    0.572867 0.301933 0.289519 0.034873
H14   H     H_    0.453330 0.227615 0.321914 0.189374
H15   H     H_    0.628930 0.161934 0.624312 -0.025695
H16   H     H_    0.669774 0.089884 0.706734 0.151050
H17   H     H_    0.473698 0.678377 0.661335 0.037045
H18   H     H_    0.635698 0.638884 0.617389 0.070575
H19   H     H_    0.608635 0.832159 0.697214 0.130605
H20   H     H_    0.778761 0.784762 0.659098 0.119516
H21   H     H_    0.852437 0.148027 0.719174 0.191752
H22   H     H_    0.143925 0.722999 0.344733 0.073052
H23   H     H_    0.930046 0.713357 0.347135 -0.011616
H24   H     H_    0.867013 0.778818 0.270218 0.123147
H25   H     H_    0.376864 0.763377 0.318388 0.056428
H26   H     H_    0.609680 0.786117 0.232935 0.148708
H27   H     H_    0.397404 0.837233 0.238768 0.050031
H28   H     H_    0.156719 0.326072 0.654299 -0.012785
H29   H     H_    0.456247 0.700779 0.226814 0.169370
H30   H     H_    0.136993 0.443366 0.279819 0.114307
H31   H     H_    0.230291 0.240518 0.119121 0.135192
H32   H     H_    0.561081 0.491686 0.756583 0.116219
H33   H     H_    0.538813 0.336911 0.896366 0.176989
H34   H     H_    0.311222 0.255983 0.034629 0.149297
H35   H     H_    0.611957 0.463590 0.248194 0.107684
H36   H     H_    0.708139 0.675541 0.118057 0.160373
H37   H     H_    0.769718 0.641251 0.949975 0.141492
H38   H     H_    0.329971 0.232028 0.664024 0.007353
H39   H     H_    0.851461 0.659141 0.866147 0.114112
H40   H     H_    0.043180 0.525209 0.714282 0.130633
H41   H     H_    0.835550 0.557980 0.394229 0.060656
H42   H     H_    0.365224 0.444101 0.602215 0.069354
H43   H     H_    0.859288 0.046596 0.454461 0.098889
H44   H     H_    0.796954 0.749125 0.487725 0.044663
H45   H     H_    0.384748 0.268279 0.524468 0.048922
H46   H     H_    0.202385 0.324192 0.743812 -0.009241
H47   H     H_    0.012613 0.278238 0.725927 0.031338
H48   H     H_    0.319960 0.242722 0.436705 -0.029960
H49   H     H_    0.114896 0.277772 0.459445 0.022091
N1    N     N_R   0.899733 0.448624 0.200890 -0.425378
N2    N     N_R   0.262172 0.503979 0.798142 -0.429297
O1    O     O_2   0.907040 0.557650 0.617910 -0.503701
O2    O     O_3   0.670464 0.205479 0.397903 -0.590771
O3    O     O_3   0.114719 0.174498 0.638897 -0.600958
O4    O     O_2   0.282660 0.442310 0.382060 -0.484990
O5    O     O_3   0.050670 0.442340 0.442260 -0.502045
O6    O     O_3   0.504750 0.639360 0.411530 -0.470831
O7    O     O_3   0.153172 0.277870 0.381147 -0.582718
O8    O     O_3   0.618400 0.630290 0.524520 -0.482560
O9    O     O_3   0.090070 0.694820 0.435810 -0.502539
O10   O     O_2   0.185118 0.880448 0.453960 -0.445946
O11   O     O_3   0.001022 0.855566 0.371944 -0.582337
O12   O     O_3   0.139040 0.557570 0.557730 -0.484903
O13   O     O_3   0.571310 0.369620 0.475470 -0.505968
O14   O     O_2   0.348200 0.764910 0.523260 -0.464125
O15   O     O_3   0.482916 0.776397 0.610980 -0.648279
O16   O     O_2   0.363639 0.575038 0.321215 -0.543813
O17   O     O_3   0.612674 0.680225 0.313764 -0.605275
O18   O     O_2   0.079728 0.304182 0.199267 -0.576965
O19   O     O_2   0.464979 0.374117 0.808500 -0.544245
O20   O     O_2   0.717586 0.589880 0.194837 -0.610582
O21   O     O_2   0.054186 0.633341 0.796599 -0.616303
O22   O     O_3   0.684960 0.360550 0.588460 -0.484652
O23   O     O_2   0.837800 0.415509 0.674477 -0.523065
O24   O     O_3   0.049040 0.722861 0.624195 -0.628797
O25   O     O_3   0.637316 0.281460 0.680869 -0.583483
O26   O     O_2   0.841490 0.235060 0.476710 -0.507465
O27   O     O_3   0.099640 0.305100 0.564190 -0.485431
O28   O     O_2   0.005252 0.125014 0.546471 -0.508912
P1    P     P_3+3 0.072810 0.589830 0.610360 0.991977
P2    P     P_3+3 0.661990 0.251250 0.462170 0.995341
P3    P     P_3+3 0.143400 0.179711 0.574216 0.911546
P4    P     P_3+3 0.116900 0.410080 0.389630 1.001018
P5    P     P_3+3 0.031840 0.829205 0.435409 0.967264
P6    P     P_3+3 0.667464 0.391852 0.653787 0.958017
P7    P     P_3+3 0.528161 0.759337 0.546353 0.924911
P8    P     P_3+3 0.531322 0.591528 0.346774 0.956086
S1    S     S_3+6 0.268683 0.063413 0.369745 -0.145921
O29   O     O_2   0.444211 0.079447 0.379234 -0.376137
O30   O     O_2   0.249644 0.952761 0.368190 -0.341665
O31   O     O_3   0.202912 0.106108 0.314634 -0.518050
H50   H     H_    0.284050 0.071822 0.289513 0.338951
C63   C     C_3   0.747278 0.694613 0.720017 -0.233263
C64   C     C_3   0.636981 0.710015 0.765979 -0.379065
H51   H     H_    0.640272 0.787964 0.786365 0.170806
H52   H     H_    0.508538 0.701062 0.754364 0.128001
H53   H     H_    0.680626 0.652392 0.792094 0.136395
H54   H     H_    0.765327 0.612336 0.705076 0.134647
H55   H     H_    0.868696 0.717161 0.732384 0.193734
S2    S     S_3+6 0.214966 0.147831 0.752959 -0.059078
O32   O     O_2   0.398599 0.133091 0.756716 -0.278044
O33   O     O_2   0.146550 0.162514 0.805267 -0.252574
O34   O     O_3   0.148846 0.043970 0.720276 -0.552064
H56   H     H_    0.178376 0.987858 0.741785 0.362006
C65   C     C_3   0.090019 0.691427 0.248012 -0.276451
C66   C     C_3   0.082899 0.699658 0.191143 -0.358734
H57   H     H_    0.956782 0.727711 0.178776 0.171550
H58   H     H_    0.169042 0.751466 0.180968 0.145853
H59   H     H_    0.122727 0.623106 0.170524 0.126285
H60   H     H_    0.219149 0.679539 0.259894 0.136594
H61   H     H_    0.037004 0.621499 0.254134 0.132150
C67   C     C_3   0.039511 0.888092 0.268937 -0.137136
C68   C     C_3   0.907282 0.978420 0.283751 -0.286073
H62   H     H_    0.788450 0.963828 0.265268 0.085597
H63   H     H_    0.892471 0.994294 0.325187 0.194106
H64   H     H_    0.941065 0.048749 0.270011 0.164721
H65   H     H_    0.159282 0.902464 0.285744 0.175380
H66   H     H_    0.052031 0.888203 0.227747 0.114478
C69   C     C_3   0.568076 0.858718 0.331385 -0.174485
C70   C     C_3   0.574565 0.853704 0.388054 -0.200180
H67   H     H_    0.598040 0.928493 0.407156 0.146926
H68   H     H_    0.459497 0.834078 0.402386 0.181344
H69   H     H_    0.675041 0.793972 0.397002 0.059969
H70   H     H_    0.693181 0.862625 0.320084 0.086758
H71   H     H_    0.496395 0.928481 0.319855 0.170479
S3    S     S_3+6 0.562752 0.342753 0.001517 -0.087342
O35   O     O_2   0.590970 0.228277 0.001982 -0.261434
O36   O     O_2   0.711652 0.376291 0.980547 -0.305304
O37   O     O_3   0.536414 0.400918 0.060847 -0.535981
H72   H     H_    0.635690 0.375265 0.079901 0.360116
S4    S     S_3+6 0.813877 0.761459 0.036940 -0.070469
O38   O     O_2   0.648137 0.779607 0.011803 -0.273728
O39   O     O_2   0.815259 0.833066 0.085130 -0.273644
O40   O     O_3   0.959073 0.787450 0.999206 -0.507367
H73   H     H_    0.920254 0.856908 0.989795 0.386773
C71   C     C_3   0.341813 0.974937 0.595342 -0.193615
C72   C     C_3   0.445978 0.983436 0.643389 -0.298712
H74   H     H_    0.575234 0.952665 0.635835 0.090589
H75   H     H_    0.440145 0.064853 0.658809 0.152215
H76   H     H_    0.396496 0.941845 0.671982 0.181148
H77   H     H_    0.220001 0.009590 0.606832 0.139925
H78   H     H_    0.303893 0.901275 0.582842 0.156619

loop_
_geom_bond_atom_site_label_1
_geom_bond_atom_site_label_2
_ccdc_geom_bond_type
C25   C46   A    
C56   O24   S    
O28   P3    D    
C53   C54   A    
C56   C60   S    
C63   C64   S    
C1    H21   S    
C62   H13   S    
O27   P3    S    
O16   P8    D    
C17   C18   A    
Ba1   O13   S    
C69   C70   S    
C16   N1    S    
C13   P8    S    
C5    C6    S    
C51   C52   A    
C54   C55   A    
C67   H66   S    
O9    P5    S    
C28   H33   S    
S3    O35   D    
C11   C16   D    
C14   P4    S    
C3    C4    S    
S2    O32   D    
C35   C36   S    
C43   H34   S    
C9    O18   D    
C2    H1    S    
C61   O2    S    
O13   P2    S    
C12   H38   S    
C5    H22   S    
C38   H40   S    
C66   H57   S    
C1    H16   S    
C23   S2    S    
O4    P4    D    
C21   H41   S    
C71   H77   S    
C10   C20   A    
Ba2   O14   S    
C70   H67   S    
C60   H6    S    
C34   C45   S    
O2    P2    S    
Ba1   Ba2   S    
C65   C66   S    
C9    N1    Am   
Ba1   O27   S    
C64   H53   S    
O1    P1    D    
Ba1   P2    S    
C25   C42   A    
C5    H23   S    
C50   C52   A    
C49   H44   S    
C12   O3    S    
C10   O20   D    
C34   H48   S    
C48   S4    S    
C22   C36   S    
C65   H60   S    
C33   N2    Am   
O40   H73   S    
Ba1   O1    S    
C32   O21   D    
C1    H11   S    
C7    C8    S    
C63   H55   S    
C45   H2    S    
C10   N1    Am   
S3    O37   S    
C50   C53   A    
O26   P2    D    
C52   P3    S    
S4    O40   S    
Ba2   O12   S    
C13   C21   S    
O8    P7    S    
C5    O11   S    
C64   H52   S    
C72   H75   S    
O22   P6    S    
C39   N2    S    
C34   H49   S    
C69   H71   S    
C33   O19   D    
C45   H3    S    
C17   C41   A    
C31   C32   A    
C19   C43   A    
O23   P6    D    
C65   H61   S    
C67   H65   S    
C9    C18   A    
O31   H50   S    
C4    H20   S    
C26   C30   A    
C17   C20   A    
Ba1   O26   S    
C2    H15   S    
C45   S1    S    
C7    H25   S    
O34   H56   S    
O11   P5    S    
C14   C15   D    
C19   H31   S    
C8    H29   S    
C68   H63   S    
C32   N2    Am   
Ba2   O8    S    
C61   C62   S    
C35   H32   S    
C58   C59   A    
C6    H24   S    
C40   C43   A    
C11   H35   S    
C34   O7    S    
C41   C42   A    
Ba1   O8    S    
O15   P7    S    
C27   C28   A    
C7    C69   S    
C2    O25   S    
C3    H17   S    
O24   P1    S    
C29   C30   A    
S1    O31   S    
O3    P3    S    
C68   H64   S    
C18   C19   A    
C15   C16   S    
C62   H12   S    
C60   H8    S    
O7    P4    S    
C37   P1    S    
C12   H28   S    
C23   H46   S    
O5    P4    S    
C70   H69   S    
C56   H4    S    
C3    O15   S    
C20   C44   A    
S1    O30   D    
C8    H27   S    
C68   H62   S    
C14   C21   D    
C11   C13   S    
C64   H51   S    
C72   H76   S    
C29   C33   A    
Ba2   O6    S    
C49   C57   A    
C40   C41   A    
C1    C2    S    
C37   C38   D    
C4    C63   S    
Ba1   O22   S    
C6    C65   S    
C24   C40   A    
C7    O17   S    
C42   C48   A    
C44   H36   S    
C67   C68   S    
C71   H78   S    
C4    H19   S    
C36   P6    S    
C53   P2    S    
C27   S3    S    
C51   C71   S    
C62   H14   S    
S3    O36   D    
S2    O34   S    
Ba1   O12   S    
C57   P7    S    
O10   P5    D    
C51   C55   A    
C47   H39   S    
Ba2   O4    S    
C6    C67   S    
C56   H5    S    
C15   H30   S    
C61   H10   S    
Ba2   O9    S    
C61   H9    S    
C44   C48   A    
C24   C26   A    
C72   H74   S    
C30   C31   A    
S2    O33   D    
Ba2   P4    S    
O14   P7    D    
Ba1   P1    S    
C69   H70   S    
C3    H18   S    
C28   C29   A    
C66   H58   S    
C50   H45   S    
C71   C72   S    
C46   C47   A    
C46   H37   S    
C63   H54   S    
O25   P6    S    
C70   H68   S    
C60   H7    S    
O12   P1    S    
C12   C23   S    
C35   C39   D    
C59   H43   S    
C55   C57   A    
C23   H47   S    
S4    O38   D    
O6    P8    S    
C22   H42   S    
S1    O29   D    
C8    H26   S    
C24   C27   A    
O37   H72   S    
C25   C26   A    
O17   P8    S    
C54   C59   A    
C38   C39   S    
C49   C58   A    
C58   P5    S    
Ba2   O5    S    
C31   C47   A    
C22   C37   D    
Ba1   O5    S    
S4    O39   D    
C66   H59   S    
Ba2   O13   S    
