data_mof_unit_41582.cif
_audit_creation_date              2013-03-05T15:51:26-0500
_audit_creation_method            fapswitch 2.2
_symmetry_space_group_name_H-M    P1
_symmetry_Int_Tables_number       1
_space_group_crystal_system       triclinic
_cell_length_a                    20.120051
_cell_length_b                    11.248982
_cell_length_c                    18.700521
_cell_angle_alpha                 90.67218
_cell_angle_beta                  89.436974
_cell_angle_gamma                 89.761871
_cell_volume                      4231.95641461

loop_
_atom_site_label
_atom_site_type_symbol
_atom_site_description
_atom_site_fract_x
_atom_site_fract_y
_atom_site_fract_z
_atom_type_partial_charge
O1    O     O_R   0.957020 0.451640 0.669920 -0.451993
O2    O     O_R   0.042980 0.451640 0.330080 -0.445203
O3    O     O_R   0.457020 0.951640 0.669920 -0.453553
O4    O     O_R   0.542980 0.951640 0.330080 -0.445352
O5    O     O_R   0.821450 0.543440 0.674610 -0.482333
O6    O     O_R   0.178550 0.543440 0.325390 -0.478537
O7    O     O_R   0.321450 0.043440 0.674610 -0.485991
O8    O     O_R   0.678550 0.043440 0.325390 -0.483893
C1    C     C_R   0.759681 0.537002 0.649179 0.529143
C2    C     C_R   0.239683 0.536999 0.351274 0.540282
C3    C     C_R   0.259680 0.037003 0.649179 0.522030
C4    C     C_R   0.739682 0.036998 0.351275 0.530577
O9    O     O_R   0.715320 0.458650 0.668100 -0.407061
O10   O     O_R   0.284680 0.458650 0.331900 -0.400499
O11   O     O_R   0.215320 0.958650 0.668100 -0.409327
O12   O     O_R   0.784680 0.958650 0.331900 -0.404064
O13   O     O_R   0.737170 0.209590 0.674530 -0.468349
O14   O     O_R   0.262830 0.209590 0.325470 -0.473321
O15   O     O_R   0.237170 0.709590 0.674530 -0.475722
O16   O     O_R   0.762830 0.709590 0.325470 -0.478736
C5    C     C_R   0.790013 0.163808 0.638872 0.535333
C6    C     C_R   0.210717 0.162041 0.361484 0.536479
C7    C     C_R   0.290014 0.663811 0.638872 0.530235
C8    C     C_R   0.710718 0.662036 0.361483 0.532669
O17   O     O_R   0.832710 0.092740 0.669580 -0.494484
O18   O     O_R   0.167290 0.092740 0.330420 -0.502227
O19   O     O_R   0.332710 0.592740 0.669580 -0.499441
O20   O     O_R   0.667290 0.592740 0.330420 -0.503464
O21   O     O_R   0.946290 0.250060 0.676040 -0.534799
O22   O     O_R   0.053710 0.250060 0.323960 -0.543258
O23   O     O_R   0.446290 0.750060 0.676040 -0.540009
O24   O     O_R   0.553710 0.750060 0.323960 -0.538716
C9    C     C_R   0.970167 0.351134 0.647844 0.539648
C10   C     C_R   0.031885 0.353687 0.353092 0.529479
C11   C     C_R   0.470166 0.851135 0.647843 0.536964
C12   C     C_R   0.531889 0.853690 0.353095 0.534292
O25   O     O_R   0.956270 0.452200 0.830470 -0.441860
O26   O     O_R   0.043730 0.452200 0.169530 -0.477746
O27   O     O_R   0.456270 0.952200 0.830470 -0.463473
O28   O     O_R   0.543730 0.952200 0.169530 -0.467739
O29   O     O_R   0.820760 0.543950 0.823440 -0.420433
O30   O     O_R   0.179240 0.543950 0.176560 -0.448786
O31   O     O_R   0.320760 0.043950 0.823440 -0.458229
O32   O     O_R   0.679240 0.043950 0.176560 -0.437907
C13   C     C_R   0.763103 0.523990 0.854187 0.573419
C14   C     C_R   0.238262 0.526629 0.147193 0.578865
C15   C     C_R   0.262217 0.027703 0.852394 0.603117
C16   C     C_R   0.738964 0.029663 0.148348 0.598389
O33   O     O_R   0.714570 0.459210 0.828640 -0.443971
O34   O     O_R   0.285430 0.459210 0.171360 -0.485992
O35   O     O_R   0.214570 0.959210 0.828640 -0.401706
O36   O     O_R   0.785430 0.959210 0.171360 -0.497046
O37   O     O_R   0.736470 0.210100 0.823360 -0.444665
O38   O     O_R   0.263530 0.210100 0.176640 -0.466684
O39   O     O_R   0.236470 0.710100 0.823360 -0.436291
O40   O     O_R   0.763530 0.710100 0.176640 -0.417211
C17   C     C_R   0.774649 0.132346 0.854082 0.594004
C18   C     C_R   0.226137 0.128500 0.147336 0.620097
C19   C     C_R   0.273603 0.629367 0.853026 0.592830
C20   C     C_R   0.726987 0.624508 0.148593 0.606496
O41   O     O_R   0.831960 0.093290 0.830130 -0.507174
O42   O     O_R   0.168040 0.093290 0.169870 -0.430781
O43   O     O_R   0.331960 0.593290 0.830130 -0.505174
O44   O     O_R   0.668040 0.593290 0.169870 -0.483647
O45   O     O_R   0.945600 0.250580 0.824860 -0.506443
O46   O     O_R   0.054400 0.250580 0.175140 -0.478181
O47   O     O_R   0.445600 0.750580 0.824860 -0.506971
O48   O     O_R   0.554400 0.750580 0.175140 -0.507566
C21   C     C_R   0.964576 0.347254 0.855655 0.556942
C22   C     C_R   0.030063 0.347333 0.147731 0.545490
C23   C     C_R   0.468079 0.846952 0.853398 0.600544
C24   C     C_R   0.532317 0.847164 0.146114 0.566705
Cr1   Cr    Cr6+3 0.885860 0.491680 0.749630 1.181116
Cr2   Cr    Cr6+3 0.114140 0.491680 0.250370 1.162753
Cr3   Cr    Cr6+3 0.385860 0.991680 0.749630 1.180392
Cr4   Cr    Cr6+3 0.614140 0.991680 0.250370 1.177966
Cr5   Cr    Cr6+3 0.730490 0.332970 0.748720 1.161135
Cr6   Cr    Cr6+3 0.269510 0.332970 0.251280 1.133995
Cr7   Cr    Cr6+3 0.230490 0.832970 0.748720 1.173982
Cr8   Cr    Cr6+3 0.769510 0.832970 0.251280 1.136435
Cr9   Cr    Cr6+3 0.887570 0.179310 0.750150 1.064645
Cr10  Cr    Cr6+3 0.112430 0.179310 0.249850 1.083441
Cr11  Cr    Cr6+3 0.387570 0.679310 0.750150 1.077467
Cr12  Cr    Cr6+3 0.612430 0.679310 0.249850 1.078150
O49   O     O_3   0.834640 0.334650 0.749500 -0.364967
O50   O     O_3   0.165360 0.334650 0.250500 -0.360367
O51   O     O_3   0.334640 0.834650 0.749500 -0.344273
O52   O     O_3   0.665360 0.834650 0.250500 -0.348579
C25   C     C_R   0.758936 0.110564 0.413552 0.009904
C26   C     C_R   0.238544 0.110632 0.587884 0.010486
C27   C     C_R   0.258940 0.610562 0.413550 0.012584
C28   C     C_R   0.738545 0.610627 0.587881 0.011711
C29   C     C_R   0.711402 0.164579 0.456885 -0.060452
C30   C     C_R   0.284744 0.169746 0.546497 -0.041315
C31   C     C_R   0.211409 0.664585 0.456881 -0.061778
C32   C     C_R   0.784745 0.669743 0.546495 -0.042170
C33   C     C_R   0.725875 0.179818 0.529235 0.046371
C34   C     C_R   0.271807 0.181968 0.473450 0.048766
C35   C     C_R   0.225882 0.679828 0.529231 0.045718
C36   C     C_R   0.771806 0.681963 0.473448 0.047836
C37   C     C_R   0.831587 0.094050 0.517579 -0.140240
C38   C     C_R   0.167700 0.091664 0.482016 -0.147493
C39   C     C_R   0.331591 0.594048 0.517579 -0.140519
C40   C     C_R   0.667703 0.591649 0.482012 -0.147148
C41   C     C_R   0.821541 0.088536 0.443261 0.359014
C42   C     C_R   0.176276 0.087327 0.556807 0.360235
C43   C     C_R   0.321545 0.588531 0.443260 0.359790
C44   C     C_R   0.676277 0.587316 0.556802 0.360052
C45   C     C_3   0.692343 0.294489 0.458361 -0.242176
C46   C     C_3   0.296841 0.302442 0.546000 -0.236378
C47   C     C_3   0.192352 0.794495 0.458351 -0.240931
C48   C     C_3   0.796840 0.802442 0.545994 -0.235033
C49   C     C_3   0.701788 0.299192 0.538772 0.160282
C50   C     C_3   0.292286 0.302729 0.465151 0.156296
C51   C     C_3   0.201795 0.799201 0.538762 0.160355
C52   C     C_3   0.792283 0.802725 0.465144 0.156934
C53   C     C_R   0.781229 0.137879 0.562289 -0.081841
C54   C     C_R   0.218605 0.135906 0.438373 -0.079840
C55   C     C_R   0.281234 0.637886 0.562288 -0.080863
C56   C     C_R   0.718608 0.635895 0.438370 -0.080092
H1    H     H_    0.877790 0.066039 0.540083 0.179603
H2    H     H_    0.121707 0.063748 0.458606 0.180861
H3    H     H_    0.377792 0.566032 0.540084 0.179703
H4    H     H_    0.621710 0.563729 0.458601 0.181140
H5    H     H_    0.141864 0.809982 0.439554 0.245590
H6    H     H_    0.844695 0.829004 0.568308 0.250413
H7    H     H_    0.641856 0.309977 0.439566 0.245609
H8    H     H_    0.344697 0.328997 0.568316 0.250285
H9    H     H_    0.729255 0.349890 0.429185 0.115841
H10   H     H_    0.255178 0.352755 0.572094 0.112046
H11   H     H_    0.229266 0.849893 0.429175 0.119688
H12   H     H_    0.755176 0.852754 0.572086 0.114877
H13   H     H_    0.740628 0.361987 0.556058 0.071251
H14   H     H_    0.253315 0.362139 0.444262 0.069243
H15   H     H_    0.240632 0.862000 0.556050 0.072288
H16   H     H_    0.753311 0.862131 0.444256 0.071005
C57   C     C_R   0.002193 0.375166 0.424524 0.021533
C58   C     C_R   0.996481 0.369093 0.574950 0.020214
C59   C     C_R   0.502197 0.875176 0.424527 0.022456
C60   C     C_R   0.496482 0.869098 0.574951 0.022162
C61   C     C_R   0.976385 0.169247 0.421778 -0.066340
C62   C     C_R   0.009064 0.154212 0.563149 -0.083946
C63   C     C_R   0.476380 0.669261 0.421778 -0.065240
C64   C     C_R   0.509065 0.654216 0.563146 -0.083727
C65   C     C_R   0.992679 0.062389 0.449081 -0.016171
C66   C     C_R   0.001962 0.054361 0.521550 -0.031487
C67   C     C_R   0.492679 0.562402 0.449075 -0.016523
C68   C     C_R   0.501967 0.554368 0.521543 -0.031826
C69   C     C_R   0.000713 0.266604 0.533250 -0.033594
C70   C     C_R   0.989280 0.272662 0.460538 -0.034962
C71   C     C_R   0.500713 0.766610 0.533250 -0.033333
C72   C     C_R   0.489278 0.772673 0.460540 -0.035689
H17   H     H_    0.993403 0.988664 0.412825 0.294173
H18   H     H_    0.996361 0.974280 0.547798 0.303192
H19   H     H_    0.493399 0.488677 0.412818 0.294662
H20   H     H_    0.496369 0.474284 0.547785 0.303175
H21   H     H_    0.958504 0.171394 0.367316 0.201940
H22   H     H_    0.021990 0.140856 0.618242 0.229882
H23   H     H_    0.458496 0.671414 0.367317 0.206301
H24   H     H_    0.521991 0.640855 0.618239 0.228625
C73   C     C_R   0.996826 0.488114 0.541179 -0.096287
C74   C     C_R   0.004672 0.490838 0.462483 -0.095783
C75   C     C_R   0.496828 0.988124 0.541184 -0.095746
C76   C     C_R   0.504677 0.990850 0.462488 -0.095741
C77   C     C_R   0.984794 0.605615 0.578790 0.256553
C78   C     C_R   0.016167 0.610016 0.429075 0.243351
C79   C     C_R   0.484795 0.105625 0.578801 0.255555
C80   C     C_R   0.516173 0.110030 0.429082 0.242760
C81   C     C_R   0.979876 0.701973 0.537058 0.478857
C82   C     C_R   0.014196 0.706372 0.474116 0.472413
C83   C     C_R   0.479879 0.201983 0.537070 0.478536
C84   C     C_R   0.514198 0.206385 0.474125 0.472150
C85   C     C_R   0.751921 0.076689 0.077450 -0.004994
C86   C     C_R   0.258812 0.063260 0.926472 0.071823
C87   C     C_R   0.245600 0.557185 0.072387 -0.075663
C88   C     C_R   0.758205 0.551849 0.930188 -0.043285
C89   C     C_R   0.800843 0.019570 0.035876 -0.118515
C90   C     C_R   0.217013 0.153957 0.950044 -0.044746
C91   C     C_R   0.277311 0.474306 0.027155 -0.095249
C92   C     C_R   0.701300 0.513819 0.965302 0.008045
C93   C     C_R   0.805610 0.036014 0.963566 -0.113964
C94   C     C_R   0.207957 0.173415 0.022308 -0.059391
C95   C     C_R   0.280806 0.490125 0.954449 -0.084601
C96   C     C_R   0.695141 0.522532 0.038074 0.013999
C97   C     C_R   0.713168 0.172998 0.969831 0.367884
C98   C     C_R   0.290786 0.026049 0.049948 0.440451
C99   C     C_R   0.210959 0.664429 0.967141 0.381530
C100  C     C_R   0.808112 0.591089 0.046979 0.402683
C101  C     C_R   0.709685 0.158867 0.044308 0.369265
C102  C     C_R   0.299467 0.004332 0.976432 0.403166
C103  C     C_R   0.208463 0.648579 0.041310 0.381968
C104  C     C_R   0.814143 0.582645 0.972073 0.397025
C105  C     C_3   0.814183 0.889170 0.027263 0.332459
C106  C     C_3   0.146072 0.179892 0.933579 0.311195
C107  C     C_3   0.345783 0.422534 0.029954 0.340353
C108  C     C_3   0.630933 0.548086 0.952077 0.342359
C109  C     C_3   0.822797 0.909218 0.948108 0.349167
C110  C     C_3   0.135841 0.198718 0.013455 0.305261
C111  C     C_3   0.349486 0.438470 0.949654 0.346027
C112  C     C_3   0.623513 0.558182 0.032283 0.340902
C113  C     C_R   0.759851 0.106368 0.928427 0.011541
C114  C     C_R   0.240605 0.104478 0.072939 0.082949
C115  C     C_R   0.251830 0.589686 0.923334 -0.075941
C116  C     C_R   0.745858 0.571948 0.079655 -0.029285
H25   H     H_    0.859809 0.858664 0.054676 0.158624
H26   H     H_    0.139287 0.261621 0.901555 0.067775
H27   H     H_    0.381495 0.478150 0.060481 0.106310
H28   H     H_    0.625378 0.633590 0.923438 0.073840
H29   H     H_    0.874561 0.896662 0.928035 0.128056
H30   H     H_    0.122204 0.291066 0.029195 0.029677
H31   H     H_    0.388750 0.501422 0.932836 0.107147
H32   H     H_    0.614061 0.650127 0.051875 0.073627
C117  C     C_R   0.996168 0.345151 0.079480 0.008262
C118  C     C_R   0.980203 0.340513 0.930847 -0.008905
C119  C     C_R   0.512510 0.842721 0.072016 0.052404
C120  C     C_R   0.498074 0.837109 0.923021 0.052154
C121  C     C_R   0.996192 0.450156 0.039674 0.067557
C122  C     C_R   0.988884 0.447022 0.967279 0.069995
C123  C     C_R   0.530276 0.939817 0.029960 0.015807
C124  C     C_R   0.522982 0.937936 0.957305 0.012824
C125  C     C_R   0.967784 0.237074 0.971162 -0.118135
C126  C     C_R   0.975747 0.239462 0.045775 -0.110644
C127  C     C_R   0.488133 0.733121 0.963413 -0.125137
C128  C     C_R   0.494303 0.736498 0.037840 -0.136624
C129  C     C_3   0.046977 0.547304 0.034000 -0.193548
C130  C     C_3   0.037955 0.543056 0.953932 -0.217486
C131  C     C_3   0.509606 0.067173 0.036783 -0.193655
C132  C     C_3   0.501503 0.065868 0.956483 -0.193147
H33   H     H_    0.954109 0.154267 0.945236 0.174800
H34   H     H_    0.971791 0.157694 0.075476 0.186058
H35   H     H_    0.470626 0.651987 0.938564 0.155217
H36   H     H_    0.484626 0.657090 0.068375 0.167885
H37   H     H_    0.097131 0.517230 0.050308 0.130972
H38   H     H_    0.014348 0.624659 0.932644 0.233541
H39   H     H_    0.550755 0.125103 0.055034 0.241920
H40   H     H_    0.448884 0.079211 0.940718 0.225890
H41   H     H_    0.029496 0.632078 0.059061 0.232156
H42   H     H_    0.082826 0.511015 0.924150 0.121375
H43   H     H_    0.461866 0.079005 0.066605 0.219346
H44   H     H_    0.538108 0.123067 0.928407 0.220116
F1    F     F_    0.953749 0.802093 0.565045 -0.600777
F2    F     F_    0.032527 0.813660 0.450807 -0.606531
F3    F     F_    0.453756 0.302104 0.565062 -0.600997
F4    F     F_    0.532524 0.313677 0.450818 -0.606603
F5    F     F_    0.669995 0.248905 0.938714 -0.534296
F6    F     F_    0.327499 0.965130 0.097920 -0.587320
F7    F     F_    0.178549 0.759724 0.940061 -0.538266
F8    F     F_    0.860611 0.629073 0.086011 -0.597368
F9    F     F_    0.663426 0.220745 0.082922 -0.558347
F10   F     F_    0.343336 0.919148 0.954380 -0.630363
F11   F     F_    0.172300 0.725524 0.082656 -0.549166
F12   F     F_    0.873197 0.610568 0.941115 -0.595873
F13   F     F_    0.757429 0.824762 0.042393 -0.623396
F14   F     F_    0.112689 0.081376 0.907330 -0.535272
F15   F     F_    0.345105 0.304364 0.049605 -0.586840
F16   F     F_    0.594768 0.455200 0.923055 -0.503321
F17   F     F_    0.775130 0.852350 0.907193 -0.574013
F18   F     F_    0.097217 0.110661 0.043790 -0.553220
F19   F     F_    0.350245 0.331579 0.912133 -0.573629
F20   F     F_    0.581618 0.473226 0.060837 -0.521151
F21   F     F_    0.869950 0.050099 0.399161 -0.603072
F22   F     F_    0.125866 0.054419 0.599715 -0.590158
F23   F     F_    0.369953 0.550090 0.399160 -0.600462
F24   F     F_    0.625867 0.554410 0.599710 -0.591094
S1    S     S_3+6 0.630272 0.280336 0.593711 0.108724
O53   O     O_2   0.580710 0.359750 0.563179 -0.176051
O54   O     O_2   0.610669 0.152235 0.586856 -0.354970
O55   O     O_3   0.631340 0.314708 0.681642 -0.369023
H45   H     H_    0.625433 0.239925 0.708075 0.384241
S2    S     S_3+6 0.367656 0.286330 0.416553 0.110575
O56   O     O_2   0.413002 0.367715 0.453859 -0.189048
O57   O     O_2   0.389215 0.159047 0.422864 -0.345988
O58   O     O_3   0.371002 0.319327 0.329098 -0.372508
H46   H     H_    0.375428 0.243619 0.302244 0.385887
S3    S     S_3+6 0.130276 0.780341 0.593689 0.108463
O59   O     O_2   0.080718 0.859763 0.563155 -0.175260
O60   O     O_2   0.110669 0.652243 0.586825 -0.355742
O61   O     O_3   0.131341 0.814700 0.681620 -0.371718
H47   H     H_    0.125437 0.739910 0.708047 0.379619
S4    S     S_3+6 0.867651 0.786322 0.416542 0.110030
O62   O     O_2   0.913000 0.867708 0.453844 -0.188345
O63   O     O_2   0.889210 0.659039 0.422855 -0.347747
O64   O     O_3   0.870994 0.819314 0.329086 -0.375512
H48   H     H_    0.875421 0.743605 0.302231 0.385439
S5    S     S_3+6 0.012691 0.670452 0.336385 0.126292
O65   O     O_2   0.079716 0.664432 0.301764 -0.236120
O66   O     O_2   0.963481 0.603391 0.291291 -0.264894
O67   O     O_3   0.994425 0.815821 0.330386 -0.428419
H49   H     H_    0.000028 0.835241 0.279126 0.356544
S6    S     S_3+6 0.989197 0.666855 0.672861 0.136138
O68   O     O_2   0.921864 0.663327 0.707065 -0.228900
O69   O     O_2   0.037809 0.598376 0.717389 -0.289015
O70   O     O_3   0.007473 0.812359 0.679746 -0.397245
H50   H     H_    0.001863 0.832942 0.731136 0.358188
S7    S     S_3+6 0.512703 0.170468 0.336390 0.126898
O71   O     O_2   0.579729 0.164446 0.301771 -0.238324
O72   O     O_2   0.463494 0.103411 0.291295 -0.263303
O73   O     O_3   0.494439 0.315838 0.330386 -0.427347
H51   H     H_    0.500064 0.335265 0.279129 0.361845
S8    S     S_3+6 0.489189 0.166863 0.672879 0.139680
O74   O     O_2   0.421853 0.163337 0.707076 -0.229737
O75   O     O_2   0.537795 0.098380 0.717411 -0.280745
O76   O     O_3   0.507466 0.312366 0.679780 -0.397120
H52   H     H_    0.501909 0.332908 0.731184 0.364674

loop_
_geom_bond_atom_site_label_1
_geom_bond_atom_site_label_2
_geom_bond_distance
_ccdc_geom_bond_type
O4    C12   1.208459 A    
C96   C116  1.401822 A    
O39   C19   1.305778 A    
S6    O70   1.682795 S    
C129  H41   1.111857 S    
C62   C66   1.367568 A    
C127  C128  1.398635 A    
C39   H3    1.071879 S    
Cr7   O51   2.095862 S    
C65   C66   1.373800 A    
C91   C107  1.495115 S    
C60   C75   1.487053 A    
C89   C105  1.496662 S    
C59   C76   1.476199 A    
C64   C71   1.398557 A    
O25   C21   1.286998 A    
C31   C35   1.395520 A    
C34   C50   1.430935 S    
C23   C120  1.445657 S    
O21   C9    1.347280 A    
C59   C72   1.366714 A    
C102  F10   1.357895 S    
C98   C114  1.399196 A    
C1    O9    1.306256 A    
O44   Cr12  2.085516 S    
C5    C53   1.470697 S    
C3    O11   1.306260 A    
C45   H7    1.092111 S    
C4    O12   1.306581 A    
C47   H5    1.092136 S    
C64   H24   1.077139 S    
C67   H19   1.064999 S    
C92   C108  1.489558 S    
C61   C65   1.351846 A    
O2    C10   1.208481 A    
C49   H13   1.103784 S    
O17   Cr9   2.108083 S    
C62   H22   1.077136 S    
C112  F20   1.385200 S    
C77   C81   1.346915 A    
C8    C56   1.480887 S    
O16   Cr8   1.977942 S    
C27   C43   1.403968 A    
C76   C80   1.503495 A    
C79   C83   1.346910 A    
O13   C5    1.346741 A    
O28   Cr4   2.126288 S    
O12   Cr8   2.080264 S    
C105  F13   1.383573 S    
C98   C102  1.402608 A    
O15   C7    1.346751 A    
O46   Cr10  2.002112 S    
C117  C126  1.403966 A    
O76   H52   0.991173 S    
C66   H18   1.036935 S    
O48   C24   1.298856 A    
C90   C94   1.376660 A    
C61   H21   1.083972 S    
C2    C27   1.476530 S    
C63   C67   1.351845 A    
C2    O10   1.306564 A    
S2    O57   1.500653 D    
O73   H51   0.991142 S    
C110  F18   1.384857 S    
S8    O74   1.493331 D    
C6    C54   1.480911 S    
O36   Cr8   2.096909 S    
C93   C113  1.387005 A    
C21   C118  1.446637 S    
Cr12  O52   2.050113 S    
C78   S5    1.871163 S    
C87   C91   1.399171 A    
C17   O41   1.305488 A    
C19   O43   1.307182 A    
C20   O44   1.298367 A    
C37   C53   1.392207 A    
S5    O66   1.506054 D    
O46   C22   1.304081 A    
C44   F24   1.343010 S    
C33   C53   1.364211 A    
C15   C86   1.438275 S    
C35   C55   1.364206 A    
C16   O36   1.302715 A    
C24   C119  1.445940 S    
C18   C114  1.440806 S    
Cr8   O52   2.095708 S    
O27   C23   1.285904 A    
C39   C43   1.407079 A    
O31   C15   1.305972 A    
C122  C130  1.488108 S    
C73   C77   1.507499 A    
C92   C96   1.367632 A    
C46   H8    1.094462 S    
C77   S6    1.884747 S    
C17   C113  1.452273 S    
O47   Cr11  1.992850 S    
C67   C68   1.373796 A    
C93   C109  1.490564 S    
S7    O72   1.506044 D    
C125  C126  1.405982 A    
O24   C12   1.350802 A    
C62   C69   1.398552 A    
C132  H44   1.111917 S    
C7    C55   1.470708 S    
O8    Cr4   2.002363 S    
O32   Cr4   1.989081 S    
C99   F7    1.358015 S    
C20   C116  1.458192 S    
O11   Cr7   2.102461 S    
C96   C112  1.499590 S    
C103  F11   1.358104 S    
C46   H10   1.114735 S    
O27   Cr3   2.131230 S    
O3    Cr3   2.100390 S    
C46   C50   1.515652 S    
S8    O76   1.682807 S    
Cr5   O49   2.095862 S    
C1    C28   1.486500 S    
C61   C70   1.390115 A    
C34   C54   1.361982 A    
C107  C111  1.515533 S    
C58   C69   1.386111 A    
C105  H25   1.110873 S    
O22   C10   1.350786 A    
C52   S4    1.768121 S    
S3    O61   1.685113 S    
S4    O62   1.470288 D    
C118  C122  1.383873 A    
C121  C122  1.363267 A    
C104  F12   1.356245 S    
C100  C116  1.406731 A    
C108  H28   1.112110 S    
O5    C1    1.336986 A    
O70   H50   0.991142 S    
O3    C11   1.225982 A    
O8    C4    1.328228 A    
C50   H14   1.105359 S    
S1    O54   1.499959 D    
Cr1   O49   2.048751 S    
Cr3   O51   2.048751 S    
C78   C82   1.365075 A    
C45   H9    1.114228 S    
C57   C70   1.366722 A    
C29   C33   1.395524 A    
C98   F6    1.357658 S    
S6    O69   1.506052 D    
O26   Cr2   2.126288 S    
C47   H11   1.114232 S    
C5    O17   1.312115 A    
C80   S7    1.871191 S    
O29   C13   1.311041 A    
O28   C24   1.277746 A    
C83   F3    1.339611 S    
O14   C6    1.355835 A    
C8    O20   1.309040 A    
C81   F1    1.339597 S    
C97   C101  1.404737 A    
C40   H4    1.074141 S    
C130  H38   1.111471 S    
C100  C104  1.406912 A    
S7    O71   1.491113 D    
O41   Cr9   2.106014 S    
C106  C110  1.518091 S    
C51   H15   1.103789 S    
C89   C93   1.369462 A    
C32   C36   1.401336 A    
O33   Cr5   2.071201 S    
C25   C29   1.381629 A    
C110  H30   1.109024 S    
C12   C59   1.474879 S    
O35   Cr7   2.071201 S    
C111  F19   1.384992 S    
C129  H37   1.109673 S    
O32   C16   1.316086 A    
C88   C92   1.385984 A    
O40   C20   1.320727 A    
C126  H34   1.082872 S    
C25   C41   1.403960 A    
O64   H48   0.986853 S    
O61   H47   0.987716 S    
C40   C56   1.400046 A    
Cr9   O49   2.042799 S    
C121  C129  1.503155 S    
C18   O42   1.303414 A    
Cr11  O51   2.042799 S    
O26   C22   1.275529 A    
C79   S8    1.884851 S    
C107  F15   1.383387 S    
O20   Cr12  2.120141 S    
S3    O59   1.460893 D    
C36   C52   1.430930 S    
S4    O64   1.682066 S    
C48   C52   1.515648 S    
C119  C128  1.400287 A    
C73   C74   1.479231 A    
C90   C106  1.491455 S    
C35   C51   1.434260 S    
C30   C34   1.401342 A    
C99   C115  1.420961 A    
C124  C132  1.501175 S    
C101  F9    1.357141 S    
S6    O68   1.493337 D    
O30   C14   1.316260 A    
C97   C113  1.417662 A    
C74   C78   1.503487 A    
C127  H35   1.081179 S    
C71   C72   1.383702 A    
O6    Cr2   2.002363 S    
C86   C90   1.384756 A    
C48   H6    1.094458 S    
C64   C68   1.367576 A    
O42   Cr10  2.085516 S    
O18   Cr10  2.120141 S    
O31   Cr3   1.976248 S    
S2    O58   1.682052 S    
O34   Cr6   2.096909 S    
S8    O75   1.506042 D    
C26   C30   1.381414 A    
O24   Cr12  1.970802 S    
O30   Cr2   1.989081 S    
O48   Cr12  2.002112 S    
C120  C124  1.393772 A    
C50   S2    1.768114 S    
C26   C42   1.410522 A    
C123  C124  1.367941 A    
O37   C17   1.303859 A    
C15   O35   1.310139 A    
Cr10  O50   2.050113 S    
C30   C46   1.513535 S    
C37   H1    1.071873 S    
C106  F14   1.385684 S    
O43   Cr11  2.106014 S    
O37   Cr5   1.979977 S    
O21   Cr9   1.987825 S    
S5    O65   1.491114 D    
C118  C125  1.415647 A    
C119  C123  1.398991 A    
C11   C60   1.473917 S    
O39   Cr7   1.979977 S    
O45   Cr9   1.992850 S    
C13   O33   1.311380 A    
C9    C58   1.473937 S    
C131  H43   1.112679 S    
O13   Cr5   1.954174 S    
C48   H12   1.114737 S    
O15   Cr7   1.954174 S    
C60   C71   1.386112 A    
C86   C102  1.416485 A    
C63   C72   1.390119 A    
O23   C11   1.347283 A    
C40   C44   1.412275 A    
C94   C114  1.398049 A    
C22   C117  1.453002 S    
O40   Cr8   1.957688 S    
O6    C2    1.328237 A    
C63   H23   1.083971 S    
C52   H16   1.105360 S    
C108  F16   1.384395 S    
O1    Cr1   2.100390 S    
O19   Cr11  2.108083 S    
C120  C127  1.413714 A    
C69   C70   1.383715 A    
O45   C21   1.285735 A    
C28   C32   1.381422 A    
C58   C73   1.487039 A    
O47   C23   1.288358 A    
C19   C115  1.457354 S    
C80   C84   1.365102 A    
C107  H27   1.112193 S    
O55   H45   0.987720 S    
C6    O18   1.309060 A    
C125  H33   1.082865 S    
S2    O56   1.470290 D    
C68   H20   1.036915 S    
C123  C131  1.493765 S    
C38   H2    1.074139 S    
O38   Cr6   1.957688 S    
C83   C84   1.360320 A    
O22   Cr10  1.970802 S    
C130  H42   1.112587 S    
C81   C82   1.360293 A    
C75   C76   1.479251 A    
C94   C110  1.488681 S    
C42   F22   1.343011 S    
C108  C112  1.508749 S    
O1    C9    1.225991 A    
O7    C3    1.336987 A    
C32   C48   1.513549 S    
C112  H32   1.108277 S    
S3    O60   1.499964 D    
S4    O63   1.500653 D    
S5    O67   1.679823 S    
C128  H36   1.083104 S    
C87   C103  1.403272 A    
C57   C74   1.476166 A    
C88   C104  1.419298 A    
O23   Cr11  1.987825 S    
C131  C132  1.511969 S    
C38   C42   1.412285 A    
C36   C56   1.361973 A    
C7    O19   1.312116 A    
S1    O53   1.460884 D    
Cr4   O52   2.041400 S    
C99   C103  1.400918 A    
C38   C54   1.400051 A    
O14   Cr6   1.977942 S    
C65   H17   1.064992 S    
Cr6   O50   2.095708 S    
O5    Cr1   2.008793 S    
C28   C44   1.410532 A    
S7    O73   1.679836 S    
C91   C95   1.374454 A    
C37   C41   1.407067 A    
C106  H26   1.111757 S    
O9    Cr5   2.102461 S    
C132  H40   1.111811 S    
O16   C8    1.355830 A    
C4    C25   1.476532 S    
C109  F17   1.386536 S    
C13   C88   1.454116 S    
C117  C121  1.403564 A    
O7    Cr3   2.008793 S    
O29   Cr1   1.976248 S    
C95   C111  1.498288 S    
C75   C79   1.507547 A    
C85   C89   1.397906 A    
C129  C130  1.510273 S    
Cr2   O50   2.041400 S    
C84   F4    1.339958 S    
C33   C49   1.434273 S    
C97   F5    1.355610 S    
C16   C85   1.454792 S    
O38   C18   1.308039 A    
O25   Cr1   2.131230 S    
C14   C87   1.450695 S    
C82   F2    1.339952 S    
C39   C55   1.392213 A    
O2    Cr2   2.110420 S    
C43   F23   1.337180 S    
C45   C49   1.517867 S    
C131  H39   1.109697 S    
C14   O34   1.300209 A    
C10   C57   1.474855 S    
C95   C115  1.396174 A    
O67   H49   0.991128 S    
C31   C47   1.509151 S    
C3    C26   1.486492 S    
C105  C109  1.508339 S    
C85   C101  1.406442 A    
C100  F8    1.357458 S    
C111  H31   1.108802 S    
O10   Cr6   2.080264 S    
S1    O55   1.685142 S    
C49   S1    1.774697 S    
O4    Cr4   2.110420 S    
C109  H29   1.111500 S    
C51   S3    1.774643 S    
C27   C31   1.381604 A    
C41   F21   1.337181 S    
C29   C45   1.509156 S    
C47   C51   1.517859 S    
O58   H46   0.986846 S    
