data_mof_unit_34673.cif
_audit_creation_date              2012-10-26T18:54:57-0400
_audit_creation_method            fapswitch 2.2
_symmetry_space_group_name_H-M    P1
_symmetry_Int_Tables_number       1
_space_group_crystal_system       triclinic
_cell_length_a                    10.943972
_cell_length_b                    9.74177
_cell_length_c                    11.092679
_cell_angle_alpha                 91.249508
_cell_angle_beta                  95.619834
_cell_angle_gamma                 90.256583
_cell_volume                      1176.64098464

loop_
_atom_site_label
_atom_site_type_symbol
_atom_type_description
_atom_site_fract_x
_atom_site_fract_y
_atom_site_fract_z
_atom_type_partial_charge
C1    C     C_R   0.263009 0.499657 0.503872 0.579513
C2    C     C_R   0.543486 0.613830 0.949150 -0.147600
C3    C     C_R   0.504696 0.495276 0.131078 -0.041219
C4    C     C_R   0.495173 0.505520 0.871269 -0.066048
C5    C     C_R   0.481078 0.376495 0.056920 0.013265
C6    C     C_R   0.444489 0.393620 0.931143 0.026651
C7    C     C_3   0.621615 0.745593 0.961813 0.275812
C8    C     C_3   0.621577 0.730180 0.101749 0.262166
C9    C     C_R   0.061581 0.376771 0.497634 -0.184934
C10   C     C_R   0.934404 0.378413 0.490642 -0.173816
C11   C     C_R   0.871282 0.502975 0.495080 -0.023698
C12   C     C_R   0.737133 0.500663 0.497402 0.554398
C13   C     C_R   0.129019 0.499501 0.508796 -0.027945
C14   C     C_R   0.938765 0.627492 0.502399 0.248981
C15   C     C_R   0.066208 0.623134 0.524609 0.267829
C16   C     C_2   0.548695 0.249008 0.091335 0.651682
C17   C     C_2   0.331619 0.320146 0.877285 0.573767
C18   C     C_2   0.752785 0.737478 0.928200 0.677444
C19   C     C_2   0.562227 0.848368 0.166118 0.741581
C20   C     C_3   0.457166 0.857255 0.842389 -0.001067
C21   C     C_3   0.381658 0.987218 0.839365 -0.306836
C22   C     C_3   0.778525 0.561166 0.164457 0.004261
C23   C     C_R   0.415280 0.071768 0.427042 0.157175
C24   C     C_3   0.917942 0.552117 0.170498 -0.344051
C25   C     C_3   0.908151 0.830592 0.400339 0.057320
C26   C     C_3   0.928939 0.981384 0.435765 -0.275624
C27   C     C_3   0.160537 0.728436 0.694134 -0.013596
C28   C     C_3   0.083962 0.824611 0.765712 -0.314219
C29   C     C_2   0.328537 0.141142 0.338651 0.643030
C30   C     C_2   0.663892 0.157552 0.668008 0.657286
C31   C     C_2   0.297993 0.855444 0.372687 0.660390
C32   C     C_2   0.698897 0.868871 0.638284 0.652399
C33   C     C_R   0.583258 0.078681 0.575152 0.106331
C34   C     C_R   0.409766 0.924582 0.432820 0.157201
C35   C     C_R   0.590136 0.931119 0.568766 0.081166
C36   C     C_R   0.502767 0.498295 0.263632 0.559287
C37   C     C_R   0.499938 0.502045 0.737517 0.578759
C38   C     C_R   0.536322 0.611537 0.072023 -0.118814
Cu1   Cu    Cu3+1 0.500000 0.640660 0.500000 1.058534
Cu2   Cu    Cu3+1 0.500000 0.359340 0.500000 1.078362
H1    H     H_    0.106200 0.278766 0.499101 0.210766
H2    H     H_    0.307909 0.982192 0.763525 0.078723
H3    H     H_    0.339105 0.999990 0.925524 0.233635
H4    H     H_    0.742484 0.500117 0.083367 0.153689
H5    H     H_    0.748440 0.512583 0.245937 0.166716
H6    H     H_    0.953695 0.615782 0.099849 0.211542
H7    H     H_    0.960587 0.587166 0.260153 0.108781
H8    H     H_    0.945289 0.443764 0.156220 0.140468
H9    H     H_    0.827969 0.825212 0.332740 0.226792
H10   H     H_    0.988810 0.794114 0.355421 0.164197
H11   H     H_    0.996678 0.992176 0.516716 0.222668
H12   H     H_    0.885832 0.281488 0.481158 0.193345
H13   H     H_    0.964325 0.036637 0.359701 0.143819
H14   H     H_    0.840967 0.029576 0.454567 0.174416
H15   H     H_    0.257738 0.758189 0.709813 0.145118
H16   H     H_    0.154189 0.622546 0.730090 0.133635
H17   H     H_    0.987531 0.787669 0.758043 0.230391
H18   H     H_    0.120407 0.826460 0.862757 0.117557
H19   H     H_    0.086686 0.930313 0.730588 0.185686
H20   H     H_    0.288165 0.199885 0.167533 0.359895
H21   H     H_    0.694954 0.223981 0.841852 0.346168
H22   H     H_    0.220149 0.713893 0.253535 0.311097
H23   H     H_    0.691434 0.162099 0.190792 0.369037
H24   H     H_    0.777554 0.699085 0.700238 0.362284
H25   H     H_    0.204442 0.288724 0.734847 0.335960
H26   H     H_    0.748573 0.533840 0.880533 0.292711
H27   H     H_    0.391930 0.820081 0.077977 0.302020
H28   H     H_    0.394628 0.775517 0.867768 0.096301
H29   H     H_    0.483266 0.840492 0.750587 0.189642
H30   H     H_    0.439066 0.076785 0.823883 0.252671
N1    N     N_R   0.500000 0.852070 0.500000 -0.303085
N2    N     N_R   0.500000 0.147940 0.500000 -0.314813
O1    O     O_R   0.319640 0.618740 0.499990 -0.471310
O2    O     O_R   0.649066 0.253841 0.179823 -0.706488
O3    O     O_2   0.275530 0.246042 0.940576 -0.537758
O4    O     O_R   0.282507 0.343349 0.758540 -0.697162
O5    O     O_2   0.815517 0.841874 0.935970 -0.412746
O6    O     O_R   0.807419 0.613952 0.895560 -0.736405
O7    O     O_2   0.623145 0.914587 0.245220 -0.488157
O8    O     O_R   0.439743 0.885379 0.137136 -0.599845
O9    O     O_3   0.564290 0.872235 0.924318 -0.507161
O10   O     O_3   0.741189 0.700913 0.161890 -0.592770
O11   O     O_3   0.881213 0.753690 0.501715 -0.524111
O12   O     O_R   0.680360 0.618740 0.500010 -0.444606
O13   O     O_3   0.126765 0.740777 0.568544 -0.506979
O14   O     O_2   0.226449 0.171161 0.364848 -0.542510
O15   O     O_R   0.357333 0.156211 0.220498 -0.616746
O16   O     O_2   0.764172 0.198805 0.644743 -0.505390
O17   O     O_R   0.631166 0.171753 0.786009 -0.678169
O18   O     O_2   0.197658 0.897670 0.394667 -0.521957
O19   O     O_R   0.304129 0.749130 0.287594 -0.650047
O20   O     O_2   0.796501 0.931097 0.653865 -0.483039
O21   O     O_R   0.693166 0.741708 0.688358 -0.642834
O22   O     O_R   0.319620 0.381170 0.499990 -0.476716
O23   O     O_R   0.680380 0.381170 0.500010 -0.487257
O24   O     O_R   0.499990 0.618810 0.319660 -0.459536
O25   O     O_R   0.500010 0.618810 0.680340 -0.507995
O26   O     O_R   0.499960 0.381240 0.319650 -0.462965
O27   O     O_R   0.500040 0.381240 0.680350 -0.455656
O28   O     O_2   0.522187 0.141103 0.037367 -0.410640

loop_
_geom_bond_atom_site_label_1
_geom_bond_atom_site_label_2
_ccdc_geom_bond_type
C2    C7    S    
C10   H12   S    
Cu2   O27   S    
C37   O25   A    
C7    C8    S    
C28   H17   S    
H25   O4    S    
C16   O2    S    
C23   C29   S    
Cu1   O12   S    
Cu2   O26   S    
C5    C6    A    
C11   C14   A    
C27   H15   S    
Cu1   O25   S    
C12   O12   A    
C31   O18   D    
C27   O13   S    
C9    C13   A    
C25   H10   S    
C5    C16   S    
C33   N2    A    
C21   H3    S    
C22   H4    S    
C3    C38   A    
C1    O22   A    
C17   O4    S    
C12   O23   A    
C9    C10   A    
C15   O13   S    
C23   C34   A    
C32   O21   S    
C35   N1    A    
C20   O9    S    
C8    C38   S    
C14   O11   S    
C30   O17   S    
C26   H14   S    
H20   O15   S    
H21   O17   S    
H26   O6    S    
C8    C19   S    
C24   H8    S    
C32   C35   S    
C4    C6    A    
Cu1   Cu2   S    
C27   H16   S    
C16   O28   D    
C25   C26   S    
C2    C4    A    
C36   O24   A    
C18   O6    S    
C7    C18   S    
H22   O19   S    
C31   C34   S    
C20   C21   S    
C19   O7    D    
C29   O14   D    
C7    O9    S    
C31   O19   S    
C13   C15   A    
C8    O10   S    
C20   H29   S    
C1    C13   S    
Cu2   O23   S    
C30   O16   D    
C26   H13   S    
C22   O10   S    
C37   O27   A    
C25   O11   S    
C28   H19   S    
C6    C17   S    
Cu2   N2    S    
C30   C33   S    
C24   H7    S    
C23   N2    A    
C20   H28   S    
H27   O8    S    
Cu2   O22   S    
C3    C5    A    
H24   O21   S    
C11   C12   S    
H23   O2    S    
C28   H18   S    
C9    H1    S    
C21   H30   S    
C24   H6    S    
C2    C38   A    
C1    O1    A    
C26   H11   S    
C32   O20   D    
C3    C36   S    
C18   O5    D    
C33   C35   A    
C22   C24   S    
Cu1   O1    S    
C19   O8    S    
C25   H9    S    
Cu1   O24   S    
C29   O15   S    
C10   C11   A    
C21   H2    S    
C22   H5    S    
C4    C37   S    
C27   C28   S    
C17   O3    D    
Cu1   N1    S    
C14   C15   A    
C36   O26   A    
C34   N1    A    
