data_mof_unit_9084.cif
_audit_creation_date              2012-12-10T21:28:50-0500
_audit_creation_method            fapswitch 2.2
_symmetry_space_group_name_H-M    P1
_symmetry_Int_Tables_number       1
_space_group_crystal_system       triclinic
_cell_length_a                    10.77083
_cell_length_b                    16.130424
_cell_length_c                    16.681684
_cell_angle_alpha                 87.793895
_cell_angle_beta                  90.979891
_cell_angle_gamma                 90.731719
_cell_volume                      2895.45888837

loop_
_atom_site_label
_atom_site_type_symbol
_atom_type_description
_atom_site_fract_x
_atom_site_fract_y
_atom_site_fract_z
_atom_type_partial_charge
C1    C     C_R   0.499993 0.488749 0.653218 0.981756
C2    C     C_R   0.939040 0.421176 0.453859 -0.057489
C3    C     C_R   0.870428 0.495897 0.467212 -0.177014
C4    C     C_R   0.933449 0.573300 0.462624 0.013076
C5    C     C_R   0.059247 0.575894 0.480422 0.418234
C6    C     C_R   0.128064 0.503944 0.470778 -0.247106
C7    C     C_R   0.489421 0.479268 0.739752 -0.339769
C8    C     C_R   0.398301 0.524156 0.778656 0.319429
C9    C     C_R   0.370794 0.503270 0.858355 0.314251
C10   C     C_R   0.450494 0.450020 0.902852 0.002020
C11   C     C_R   0.539612 0.403988 0.864665 0.462230
C12   C     C_R   0.739517 0.498632 0.489955 0.914634
C13   C     C_R   0.560924 0.419177 0.782965 -0.094968
C14   C     C_R   0.580576 0.488161 0.131545 0.032112
C15   C     C_R   0.590258 0.485141 0.215537 -0.015452
C16   C     C_R   0.475934 0.524759 0.093934 0.223148
C17   C     C_R   0.495698 0.519380 0.260223 -0.078433
C18   C     C_R   0.395797 0.561177 0.222089 0.019803
C19   C     C_R   0.386413 0.564145 0.138442 0.019087
C20   C     C_R   0.431388 0.767738 0.469082 0.056356
C21   C     C_R   0.424702 0.852851 0.485111 0.383953
C22   C     C_R   0.513644 0.889450 0.536487 0.083576
C23   C     C_R   0.500729 0.511196 0.346962 0.928040
C24   C     C_R   0.598336 0.836665 0.577479 -0.113286
C25   C     C_R   0.595884 0.750274 0.564492 0.200173
C26   C     C_R   0.456288 0.151077 0.562511 -0.036064
C27   C     C_R   0.457781 0.238710 0.559375 -0.227169
C28   C     C_R   0.490799 0.108328 0.494386 0.126387
C29   C     C_R   0.506337 0.242165 0.420961 0.468907
C30   C     C_R   0.522703 0.154969 0.424605 0.255545
C31   C     C_R   0.259862 0.501688 0.492253 0.889580
C32   C     C_R   0.892815 0.336801 0.449587 -0.034445
C33   C     C_R   0.976561 0.270666 0.449352 0.469984
C34   C     C_R   0.092697 0.285930 0.416826 0.027307
C35   C     C_R   0.132593 0.367690 0.405326 0.114939
C36   C     C_R   0.067847 0.431664 0.442574 -0.058778
H1    H     H_    0.435121 0.271211 0.612544 0.181757
N1    N     N_2   0.454796 0.450742 0.986995 -0.109466
N2    N     N_2   0.460728 0.523048 0.010469 -0.127630
N3    N     N_R   0.515300 0.716920 0.509720 -0.141898
N4    N     N_2   0.520391 0.977497 0.548018 -0.153193
N5    N     N_2   0.481519 0.020137 0.488831 -0.083418
N6    N     N_R   0.484690 0.283070 0.490290 -0.161924
O1    O     O_R   0.494530 0.422540 0.612660 -0.637591
O2    O     O_R   0.504350 0.561840 0.618900 -0.595201
O3    O     O_R   0.678320 0.430330 0.496880 -0.647216
O4    O     O_R   0.688140 0.569640 0.503120 -0.574653
O5    O     O_R   0.495650 0.438160 0.381100 -0.590630
O6    O     O_R   0.505470 0.577460 0.387340 -0.626264
O7    O     O_R   0.311860 0.430360 0.496880 -0.624813
O8    O     O_R   0.321680 0.569670 0.503120 -0.610486
Zn1   Zn    Zn3+2 0.493440 0.406980 0.495830 0.927675
Zn2   Zn    Zn3+2 0.506560 0.593020 0.504170 0.956729
N7    N     N_3   0.870078 0.648667 0.439715 -0.406600
H2    H     H_    0.911043 0.673655 0.387650 0.194164
H3    H     H_    0.882517 0.691591 0.484309 0.201767
N8    N     N_3   0.661435 0.377445 0.746758 -0.426129
H4    H     H_    0.625526 0.337530 0.704082 0.194555
H5    H     H_    0.719195 0.421664 0.718315 0.184713
N9    N     N_3   0.302273 0.598421 0.268676 -0.474494
H6    H     H_    0.216220 0.571903 0.253871 0.195521
H7    H     H_    0.299198 0.661604 0.252361 0.221675
O9    O     O_3   0.273300 0.540674 0.895391 -0.627215
C37   C     C_3   0.161897 0.499364 0.873702 0.096699
H8    H     H_    0.163925 0.433296 0.895914 0.124664
H9    H     H_    0.147578 0.501592 0.807312 0.162329
C38   C     C_3   0.052149 0.541676 0.911419 -0.364657
H10   H     H_    0.059816 0.534589 0.977792 0.218471
H11   H     H_    0.054067 0.609004 0.894525 0.230231
C39   C     C_3   0.928415 0.504208 0.883803 -0.913593
H12   H     H_    0.916620 0.512902 0.817723 0.257480
H13   H     H_    0.850898 0.535459 0.913077 0.274646
H14   H     H_    0.923978 0.436912 0.900512 0.277811
N10   N     N_3   0.282956 0.604644 0.099329 -0.463523
H15   H     H_    0.233827 0.560675 0.066612 0.214826
H16   H     H_    0.317219 0.650207 0.058956 0.208717
O10   O     O_3   0.332178 0.586524 0.738606 -0.651571
C40   C     C_3   0.398196 0.662817 0.744385 0.150658
H17   H     H_    0.375566 0.701422 0.689719 0.147819
H18   H     H_    0.500917 0.655400 0.745270 0.121367
C41   C     C_3   0.360784 0.709311 0.818536 -0.339059
H19   H     H_    0.258480 0.706965 0.825151 0.248684
H20   H     H_    0.403826 0.679321 0.873065 0.241106
C42   C     C_3   0.404107 0.799776 0.812601 -1.001371
H21   H     H_    0.506564 0.803490 0.806215 0.268382
H22   H     H_    0.378511 0.831372 0.867823 0.275798
H23   H     H_    0.359056 0.832416 0.760149 0.263180
N11   N     N_3   0.417899 0.106512 0.633870 -0.433343
H24   H     H_    0.475953 0.124519 0.681141 0.178344
H25   H     H_    0.327677 0.124693 0.646420 0.183548
N12   N     N_3   0.687654 0.869683 0.632810 -0.471477
H26   H     H_    0.639745 0.899416 0.677275 0.204245
H27   H     H_    0.742067 0.914096 0.601921 0.204645
N13   N     N_3   0.678590 0.696905 0.609183 -0.379848
H28   H     H_    0.663744 0.704101 0.670189 0.165787
H29   H     H_    0.768448 0.718104 0.597657 0.174385
O11   O     O_3   0.530328 0.287761 0.350378 -0.629261
C43   C     C_3   0.455669 0.261329 0.284748 0.165313
H30   H     H_    0.398109 0.314126 0.262494 0.131205
H31   H     H_    0.388601 0.210223 0.300661 0.154033
C44   C     C_3   0.537983 0.238708 0.214867 -0.315338
H32   H     H_    0.551218 0.293948 0.173932 0.181266
H33   H     H_    0.631067 0.220095 0.237433 0.247231
C45   C     C_3   0.481345 0.168393 0.167107 -0.935783
H34   H     H_    0.468195 0.111857 0.206293 0.300136
H35   H     H_    0.544842 0.153134 0.118252 0.259217
H36   H     H_    0.390283 0.187315 0.140555 0.258184
N14   N     N_3   0.771873 0.314562 0.422188 -0.400599
H37   H     H_    0.733325 0.361410 0.385354 0.266940
H38   H     H_    0.719946 0.294971 0.471642 0.220879
O12   O     O_3   0.329109 0.899199 0.450514 -0.608161
C46   C     C_3   0.232079 0.902056 0.506455 0.074077
H39   H     H_    0.262363 0.937281 0.559686 0.152575
H40   H     H_    0.202538 0.838351 0.527036 0.133764
C47   C     C_3   0.120302 0.945633 0.467024 -0.291443
H41   H     H_    0.144405 0.011952 0.454046 0.219191
H42   H     H_    0.096426 0.916455 0.409372 0.237129
C48   C     C_3   0.007357 0.939768 0.521228 -1.004427
H43   H     H_    0.974378 0.874461 0.527674 0.265582
H44   H     H_    0.930639 0.977458 0.494559 0.269440
H45   H     H_    0.030886 0.962922 0.581502 0.271381
O13   O     O_3   0.566824 0.116498 0.357848 -0.634324
C49   C     C_3   0.679461 0.074661 0.376269 0.135653
H46   H     H_    0.658704 0.007502 0.386845 0.165402
H47   H     H_    0.729023 0.098063 0.430231 0.143883
C50   C     C_3   0.766659 0.084908 0.305086 -0.318906
H48   H     H_    0.717416 0.065655 0.249593 0.227206
H49   H     H_    0.795047 0.151145 0.297383 0.231630
C51   C     C_3   0.883498 0.033187 0.317574 -0.962767
H50   H     H_    0.938991 0.055771 0.369088 0.297693
H51   H     H_    0.941314 0.039192 0.263145 0.263123
H52   H     H_    0.858962 0.966678 0.328630 0.263908
N15   N     N_3   0.348800 0.736991 0.408527 -0.414005
H53   H     H_    0.356792 0.673731 0.404658 0.265787
H54   H     H_    0.257647 0.747067 0.425480 0.229667
O14   O     O_3   0.935891 0.189408 0.460725 -0.665909
C52   C     C_3   0.912748 0.173138 0.543227 0.057148
H55   H     H_    0.856487 0.115090 0.548501 0.160256
H56   H     H_    0.856395 0.222354 0.569765 0.130100
C53   C     C_3   0.034297 0.160295 0.591430 -0.375715
H57   H     H_    0.090446 0.112279 0.563501 0.234435
H58   H     H_    0.089384 0.219038 0.590944 0.209569
C54   C     C_3   0.008892 0.133227 0.678289 -0.961447
H59   H     H_    0.954981 0.181344 0.707883 0.266947
H60   H     H_    0.098292 0.124421 0.711466 0.260309
H61   H     H_    0.955974 0.073648 0.680818 0.263936
N16   N     N_3   0.167982 0.219371 0.391662 -0.476840
H62   H     H_    0.116531 0.185058 0.350503 0.212946
H63   H     H_    0.188140 0.180578 0.441681 0.189981
N17   N     N_3   0.229609 0.385165 0.349455 -0.453417
H64   H     H_    0.245146 0.448866 0.341717 0.179003
H65   H     H_    0.309237 0.357636 0.373541 0.251668
O15   O     O_3   0.113787 0.650582 0.500734 -0.675472
C55   C     C_3   0.132726 0.652264 0.585084 0.141997
H66   H     H_    0.211205 0.695809 0.595966 0.162329
H67   H     H_    0.159778 0.591048 0.612998 0.160087
C56   C     C_3   0.018160 0.683709 0.626719 -0.436344
H68   H     H_    0.988051 0.742813 0.596751 0.224299
H69   H     H_    0.942557 0.636521 0.622711 0.217954
C57   C     C_3   0.044805 0.699129 0.714866 -0.931186
H70   H     H_    0.079398 0.641754 0.746038 0.286305
H71   H     H_    0.958168 0.717974 0.743967 0.263307
H72   H     H_    0.114879 0.749774 0.720336 0.263481
N18   N     N_3   0.696779 0.449814 0.255979 -0.463165
H73   H     H_    0.775866 0.483268 0.237933 0.182382
H74   H     H_    0.705684 0.388480 0.239207 0.193939
N19   N     N_3   0.676283 0.455528 0.083340 -0.408631
H75   H     H_    0.759821 0.486369 0.096027 0.179897
H76   H     H_    0.686537 0.392462 0.098238 0.190308
O16   O     O_3   0.615415 0.350928 0.909935 -0.606543
C58   C     C_3   0.576942 0.267766 0.899056 0.099910
H77   H     H_    0.655556 0.227341 0.918330 0.166270
H78   H     H_    0.556564 0.254556 0.835008 0.126728
C59   C     C_3   0.464375 0.244554 0.950768 -0.385582
H79   H     H_    0.484583 0.260711 0.013787 0.248307
H80   H     H_    0.382144 0.280243 0.928959 0.207288
C60   C     C_3   0.433120 0.152199 0.947503 -0.966912
H81   H     H_    0.410024 0.135648 0.884909 0.262605
H82   H     H_    0.351688 0.137337 0.985610 0.272157
H83   H     H_    0.512871 0.114539 0.970102 0.265158

loop_
_geom_bond_atom_site_label_1
_geom_bond_atom_site_label_2
_ccdc_geom_bond_type
C54   H61   S    
C58   H77   S    
O6    Zn2   S    
C50   H48   S    
N4    N5    D    
C35   C36   A    
C33   O14   S    
C42   H23   S    
C58   C59   S    
C46   H40   S    
O11   C43   S    
C49   H46   S    
N19   H76   S    
O10   C40   S    
C51   H51   S    
C52   H56   S    
C26   C27   A    
C17   C23   S    
N10   H16   S    
C22   C24   A    
C2    C32   A    
N18   H73   S    
N16   H63   S    
C53   H58   S    
C18   C19   A    
C25   N3    A    
C5    C6    A    
C20   N3    A    
C40   H18   S    
N6    Zn1   S    
C49   H47   S    
C22   N4    S    
C13   N8    S    
O16   C58   S    
C47   H41   S    
O3    Zn1   S    
N14   H37   S    
N9    H7    S    
C34   C35   A    
C28   N5    S    
C47   C48   S    
C48   H43   S    
C45   H34   S    
C3    C12   S    
N16   H62   S    
C41   H20   S    
C59   H79   S    
C56   H68   S    
C30   O13   S    
C6    C36   A    
C8    C9    A    
C47   H42   S    
C17   C18   A    
O7    Zn1   S    
C53   C54   S    
C39   H12   S    
C35   N17   S    
C20   N15   S    
C9    C10   A    
C55   H67   S    
O4    Zn2   S    
C51   H52   S    
O1    Zn1   S    
C6    C31   S    
O2    Zn2   S    
C25   N13   S    
C56   H69   S    
C1    C7    S    
C21   C22   A    
C29   N6    A    
C12   O4    A    
C45   H35   S    
C46   H39   S    
C21   O12   S    
C44   H32   S    
C41   H19   S    
C59   H80   S    
C53   H57   S    
C52   C53   S    
N7    H3    S    
N10   H15   S    
C38   H10   S    
C57   H72   S    
C15   N18   S    
C7    C8    A    
C24   C25   A    
C55   C56   S    
C12   O3    A    
N12   H26   S    
C40   H17   S    
O14   C52   S    
C49   C50   S    
C8    O10   S    
C50   C51   S    
C60   H82   S    
N9    H6    S    
C38   H11   S    
C48   H45   S    
C57   H71   S    
C37   C38   S    
C29   C30   A    
N12   H27   S    
C58   H78   S    
C34   N16   S    
C1    O1    A    
C7    C13   A    
C60   H83   S    
C20   C21   A    
C39   H14   S    
C33   C34   A    
C42   H21   S    
N13   H29   S    
C59   C60   S    
C55   H66   S    
C18   N9    S    
N11   H25   S    
C60   H81   S    
C56   C57   S    
C43   H31   S    
N15   H53   S    
N17   H65   S    
C31   O7    A    
C3    C4    A    
C24   N12   S    
N19   H75   S    
C41   C42   S    
C51   H50   S    
C2    C36   A    
C54   H60   S    
N7    H2    S    
C50   H49   S    
C23   O5    A    
O12   C46   S    
C4    N7    S    
C9    O9    S    
C19   N10   S    
C31   O8    A    
C4    C5    A    
N3    Zn2   S    
C15   C17   A    
C44   C45   S    
C43   C44   S    
C52   H55   S    
C26   C28   A    
N17   H64   S    
C29   O11   S    
C10   N1    S    
C38   C39   S    
C32   C33   A    
N18   H74   S    
C2    C3    A    
O13   C49   S    
C37   H8    S    
C11   C13   A    
C40   C41   S    
C1    O2    A    
N8    H4    S    
N1    N2    D    
C27   H1    S    
C16   C19   A    
C5    O15   S    
C28   C30   A    
N14   H38   S    
C14   C16   A    
C45   H36   S    
N13   H28   S    
C57   H70   S    
C48   H44   S    
N8    H5    S    
C10   C11   A    
C16   N2    S    
O9    C37   S    
C26   N11   S    
C27   N6    A    
O5    Zn1   S    
C23   O6    A    
N11   H24   S    
C11   O16   S    
C44   H33   S    
C43   H30   S    
C32   N14   S    
N15   H54   S    
C14   C15   A    
C42   H22   S    
C39   H13   S    
O8    Zn2   S    
C14   N19   S    
C46   C47   S    
C54   H59   S    
C37   H9    S    
O15   C55   S    
