data_mof_unit_44520.cif
_audit_creation_date              2012-12-10T22:11:04-0500
_audit_creation_method            fapswitch 2.2
_symmetry_space_group_name_H-M    P1
_symmetry_Int_Tables_number       1
_space_group_crystal_system       triclinic
_cell_length_a                    12.118919
_cell_length_b                    12.331623
_cell_length_c                    23.059569
_cell_angle_alpha                 91.111371
_cell_angle_beta                  90.348828
_cell_angle_gamma                 90.582458
_cell_volume                      3445.2645664

loop_
_atom_site_label
_atom_site_type_symbol
_atom_type_description
_atom_site_fract_x
_atom_site_fract_y
_atom_site_fract_z
_atom_type_partial_charge
C1    C     C_R   0.655557 0.998259 0.579872 0.971695
C2    C     C_R   0.345797 0.001780 0.419628 0.950158
C3    C     C_R   0.900760 0.770752 0.149784 -0.333198
C4    C     C_R   0.099115 0.231623 0.849653 -0.323150
C5    C     C_R   0.083425 0.911627 0.159864 0.379515
C6    C     C_R   0.918157 0.088453 0.839744 0.379401
C7    C     C_R   0.082516 0.828188 0.117472 0.350755
C8    C     C_R   0.918230 0.171749 0.882234 0.350659
C9    C     C_R   0.896122 0.129170 0.174237 0.454242
C10   C     C_R   0.102544 0.874015 0.828464 0.428182
C11   C     C_R   0.900546 0.210526 0.132755 -0.300992
C12   C     C_R   0.096557 0.794733 0.870503 -0.275408
C13   C     C_R   0.171652 0.917469 0.291660 0.423337
C14   C     C_R   0.831540 0.082590 0.707306 0.413935
C15   C     C_R   0.259620 0.920323 0.331695 0.298512
C16   C     C_R   0.743343 0.079272 0.667493 0.293058
C17   C     C_R   0.836241 0.095622 0.302588 -0.091108
C18   C     C_R   0.174377 0.909575 0.701832 -0.131299
C19   C     C_R   0.757715 0.093546 0.345300 -0.334272
C20   C     C_R   0.254306 0.912225 0.659874 -0.334548
C21   C     C_3   0.997712 0.010625 0.246874 0.046516
C22   C     C_3   0.005439 0.990618 0.753080 0.047887
C23   C     C_R   0.654408 0.000795 0.420461 0.915660
C24   C     C_R   0.344036 0.998676 0.578387 0.926938
C25   C     C_R   0.100800 0.009442 0.287049 -0.007219
C26   C     C_R   0.903467 0.991447 0.711634 -0.010159
C27   C     C_R   0.264995 0.003648 0.373335 -0.176047
C28   C     C_R   0.738677 0.996860 0.625369 -0.181178
C29   C     C_R   0.901024 0.003843 0.289764 0.076820
C30   C     C_R   0.103448 0.998310 0.711149 0.059074
C31   C     C_R   0.737339 0.998675 0.375228 -0.155613
C32   C     C_R   0.259821 0.998908 0.622396 -0.155332
C33   C     C_R   0.991676 0.112370 0.209358 0.045322
C34   C     C_R   0.010487 0.888575 0.790642 0.053831
C35   C     C_R   0.995803 0.273483 0.126032 -0.073012
C36   C     C_R   0.004165 0.727163 0.874242 -0.080384
C37   C     C_R   0.995809 0.919080 0.200519 0.192585
C38   C     C_R   0.005748 0.082368 0.799083 0.191744
C39   C     C_R   0.990991 0.757337 0.113425 -0.121533
C40   C     C_R   0.009163 0.243383 0.886319 -0.125440
C41   C     C_R   0.992656 0.664688 0.073711 0.943732
C42   C     C_R   0.007330 0.335395 0.926306 0.947296
C43   C     C_R   0.998626 0.353533 0.081228 0.896849
C44   C     C_R   0.001304 0.646654 0.918835 0.897548
C45   C     C_R   0.116350 0.098503 0.326945 0.394836
C46   C     C_R   0.892262 0.904102 0.670047 0.411802
C47   C     C_R   0.194693 0.091363 0.370798 -0.406406
C48   C     C_R   0.811753 0.910960 0.626449 -0.433617
C49   C     C_R   0.885197 0.909432 0.322973 0.272986
C50   C     C_R   0.112745 0.088899 0.674246 0.279800
C51   C     C_R   0.795829 0.903315 0.361488 0.367710
C52   C     C_R   0.183977 0.083754 0.626461 0.395769
C53   C     C_R   0.085868 0.179168 0.202014 -0.125867
C54   C     C_R   0.918321 0.817858 0.795181 -0.082415
C55   C     C_R   0.087475 0.258943 0.161179 -0.251526
C56   C     C_R   0.915851 0.737651 0.836131 -0.250806
C57   C     C_R   0.902883 0.850262 0.192646 -0.091664
C58   C     C_R   0.097542 0.152716 0.806585 -0.066511
H1    H     H_    0.199378 0.154355 0.404078 0.202411
H2    H     H_    0.803968 0.850093 0.592454 0.198496
H3    H     H_    0.162326 0.166483 0.225032 0.169345
H4    H     H_    0.843941 0.827684 0.769944 0.167897
H5    H     H_    0.829431 0.858057 0.218553 0.166659
H6    H     H_    0.170641 0.146348 0.780247 0.175390
H7    H     H_    0.849025 0.172577 0.281964 0.177255
H8    H     H_    0.167494 0.835073 0.725329 0.170996
H9    H     H_    0.161736 0.307451 0.156153 0.169061
H10   H     H_    0.843515 0.685702 0.838968 0.165574
H11   H     H_    0.829269 0.717485 0.146201 0.183633
H12   H     H_    0.169928 0.285782 0.853148 0.185794
H13   H     H_    0.831984 0.224151 0.103955 0.174191
H14   H     H_    0.162805 0.788552 0.901896 0.178582
H15   H     H_    0.712314 0.167029 0.354634 0.185995
H16   H     H_    0.309965 0.844324 0.655645 0.187354
O1    O     O_R   0.621380 0.090460 0.561410 -0.567515
O2    O     O_R   0.378620 0.909540 0.438590 -0.575618
O3    O     O_R   0.617150 0.909540 0.438590 -0.588832
O4    O     O_R   0.382850 0.090460 0.561410 -0.567136
O5    O     O_R   0.619720 0.093230 0.440890 -0.646403
O6    O     O_R   0.380280 0.906770 0.559110 -0.648511
O7    O     O_R   0.618800 0.906770 0.559110 -0.646393
O8    O     O_R   0.381200 0.093230 0.440890 -0.647886
O9    O     O_R   0.087590 0.627480 0.058790 -0.564468
O10   O     O_R   0.912410 0.372520 0.941210 -0.564207
O11   O     O_R   0.905660 0.383870 0.059980 -0.628130
O12   O     O_R   0.094340 0.616130 0.940020 -0.627329
O13   O     O_R   0.092570 0.390420 0.063230 -0.632625
O14   O     O_R   0.907430 0.609580 0.936770 -0.630859
O15   O     O_R   0.900680 0.620930 0.055550 -0.646469
O16   O     O_R   0.099320 0.379070 0.944450 -0.646108
Zn1   Zn    Zn3+2 0.501730 0.123520 0.501540 0.998668
Zn2   Zn    Zn3+2 0.498270 0.876480 0.498460 0.969774
Zn3   Zn    Zn3+2 0.125690 0.504390 0.002180 0.977599
Zn4   Zn    Zn3+2 0.874310 0.495610 0.997820 0.977752
O17   O     O_3   0.956697 0.823686 0.316302 -0.774502
H17   H     H_    0.951202 0.775653 0.350108 0.356588
O18   O     O_3   0.049212 0.179485 0.684598 -0.776998
H18   H     H_    0.079101 0.241355 0.662620 0.356995
O19   O     O_3   0.171500 0.983113 0.164363 -0.809593
H19   H     H_    0.197440 0.999553 0.124788 0.338174
O20   O     O_3   0.831523 0.015168 0.835348 -0.808099
H20   H     H_    0.805368 0.998987 0.874911 0.338917
O21   O     O_3   0.806055 0.058151 0.180384 -0.687447
C59   C     C_3   0.704062 0.090664 0.156431 0.095161
H21   H     H_    0.646277 0.020752 0.160527 0.170522
H22   H     H_    0.708659 0.103663 0.109031 0.141394
C60   C     C_3   0.654013 0.186602 0.190306 -0.393036
H23   H     H_    0.642472 0.163747 0.236243 0.231591
H24   H     H_    0.709782 0.258477 0.189508 0.217854
C61   C     C_3   0.542431 0.217600 0.164898 -0.934603
H25   H     H_    0.551929 0.242435 0.119133 0.266302
H26   H     H_    0.508037 0.286633 0.190328 0.263450
H27   H     H_    0.483596 0.148083 0.166734 0.269136
O22   O     O_3   0.190071 0.947990 0.828717 -0.672139
C62   C     C_3   0.294737 0.897554 0.828660 0.051372
H28   H     H_    0.340609 0.926821 0.790343 0.173789
H29   H     H_    0.291723 0.807298 0.824267 0.123776
C63   C     C_3   0.359286 0.932565 0.883208 -0.318429
H30   H     H_    0.365860 0.022554 0.885208 0.233913
H31   H     H_    0.314863 0.905532 0.922434 0.227618
C64   C     C_3   0.475107 0.885095 0.883316 -0.946718
H32   H     H_    0.470576 0.795060 0.882379 0.263551
H33   H     H_    0.519788 0.912233 0.923286 0.268792
H34   H     H_    0.522068 0.913101 0.845080 0.271635
O23   O     O_3   0.150152 0.822688 0.260537 -0.745899
H35   H     H_    0.175759 0.759747 0.282890 0.349157
O24   O     O_3   0.852030 0.177277 0.738674 -0.745248
H36   H     H_    0.826313 0.240167 0.716305 0.351667
O25   O     O_3   0.772135 0.807280 0.389614 -0.635259
C65   C     C_3   0.730875 0.727408 0.349642 0.040056
H37   H     H_    0.756769 0.646937 0.365406 0.164953
H38   H     H_    0.764706 0.734320 0.304998 0.147889
C66   C     C_3   0.604616 0.729306 0.346868 -0.268042
H39   H     H_    0.570565 0.716141 0.390843 0.247086
H40   H     H_    0.577119 0.809606 0.331558 0.235457
C67   C     C_3   0.559434 0.641105 0.305605 -0.981252
H41   H     H_    0.589306 0.654586 0.260841 0.261879
H42   H     H_    0.467880 0.643085 0.305291 0.284187
H43   H     H_    0.585864 0.559829 0.319916 0.259861
O26   O     O_3   0.178340 0.159038 0.582575 -0.638690
C68   C     C_3   0.078800 0.144548 0.550288 0.060375
H44   H     H_    0.072596 0.213735 0.520397 0.166606
H45   H     H_    0.004278 0.148111 0.578169 0.164108
C69   C     C_3   0.077411 0.038545 0.514032 -0.397441
H46   H     H_    0.154737 0.032603 0.488849 0.228500
H47   H     H_    0.072550 0.967844 0.543106 0.219463
C70   C     C_3   0.978723 0.033150 0.472579 -0.889388
H48   H     H_    0.900349 0.034742 0.497325 0.257217
H49   H     H_    0.981496 0.956614 0.446498 0.272867
H50   H     H_    0.980728 0.102448 0.442543 0.282147
O27   O     O_3   0.169955 0.814050 0.079911 -0.765153
H51   H     H_    0.239271 0.835940 0.100103 0.345998
O28   O     O_3   0.830776 0.184960 0.919869 -0.763874
H52   H     H_    0.761698 0.161833 0.899827 0.346477
O29   O     O_3   0.340505 0.842065 0.331230 -0.775659
H53   H     H_    0.347477 0.812186 0.291224 0.337524
O30   O     O_3   0.661051 0.156181 0.668798 -0.755607
H54   H     H_    0.654809 0.186025 0.708851 0.342634
O31   O     O_3   0.042911 0.184534 0.327432 -0.657019
C71   C     C_3   0.095927 0.287564 0.330957 0.071177
H55   H     H_    0.068419 0.334666 0.293018 0.165814
H56   H     H_    0.187814 0.285100 0.328744 0.131357
C72   C     C_3   0.059110 0.347918 0.385981 -0.344945
H57   H     H_    0.967594 0.353374 0.386064 0.228531
H58   H     H_    0.084879 0.302588 0.424800 0.212958
C73   C     C_3   0.108586 0.462158 0.389684 -0.941021
H59   H     H_    0.200134 0.458585 0.390653 0.267485
H60   H     H_    0.080233 0.503675 0.429989 0.266311
H61   H     H_    0.081751 0.510075 0.351901 0.266788
O32   O     O_3   0.967707 0.818864 0.673083 -0.661631
C74   C     C_3   0.944046 0.723999 0.639600 0.113998
H62   H     H_    0.018270 0.672155 0.642267 0.165509
H63   H     H_    0.935358 0.740381 0.592655 0.134608
C75   C     C_3   0.847072 0.658946 0.664488 -0.392002
H64   H     H_    0.866509 0.637464 0.709974 0.230000
H65   H     H_    0.770646 0.707732 0.664748 0.225524
C76   C     C_3   0.825713 0.554919 0.629129 -0.921440
H66   H     H_    0.804346 0.574421 0.583615 0.264137
H67   H     H_    0.755744 0.509339 0.648215 0.272364
H68   H     H_    0.899878 0.502711 0.629522 0.264554

loop_
_geom_bond_atom_site_label_1
_geom_bond_atom_site_label_2
_ccdc_geom_bond_type
C16   C28   A    
C41   O15   A    
C74   H62   S    
O3    Zn2   S    
O30   H54   S    
C5    C37   A    
C17   C29   A    
O17   H17   S    
C45   O31   S    
C19   C31   A    
C49   C51   A    
C4    H12   S    
O22   C62   S    
C51   O25   S    
C39   C41   S    
C29   C49   A    
C74   H63   S    
O20   H20   S    
C72   H58   S    
C69   C70   S    
O31   C71   S    
C11   H13   S    
C6    O20   S    
C21   C33   S    
O32   C74   S    
C1    O7    A    
C62   H28   S    
C41   O9    A    
O18   H18   S    
C45   C47   A    
O15   Zn4   S    
C63   H30   S    
C32   C52   A    
C64   H34   S    
C70   H48   S    
C17   C19   A    
C75   H64   S    
O7    Zn2   S    
C53   H3    S    
C24   O6    A    
C4    C40   A    
C76   H67   S    
C66   C67   S    
C50   C52   A    
O27   H51   S    
C6    C38   A    
C57   H5    S    
C2    C27   S    
C18   C30   A    
C12   C36   A    
C35   C43   S    
C15   O29   S    
C10   O22   S    
O1    Zn1   S    
C13   O23   S    
C62   C63   S    
C40   C42   S    
C12   H14   S    
C3    C39   A    
C38   C58   A    
C73   H60   S    
C60   H24   S    
C13   C25   A    
C67   H43   S    
C44   O12   A    
C59   H22   S    
C59   H21   S    
C48   H2    S    
C46   C48   A    
C53   C55   A    
C33   C53   A    
C22   C34   S    
C74   C75   S    
O14   Zn4   S    
C70   H49   S    
C35   C55   A    
C43   O11   A    
C71   C72   S    
C5    O19   S    
C19   H15   S    
C72   C73   S    
C42   O10   A    
O26   C68   S    
C67   H42   S    
C68   C69   S    
C5    C7    A    
C26   C46   A    
C69   H46   S    
C6    C8    A    
C54   H4    S    
C58   H6    S    
C62   H29   S    
C56   H10   S    
C21   C29   S    
C23   O3    A    
C14   O24   S    
C61   H25   S    
C42   O16   A    
C63   C64   S    
C71   H56   S    
O6    Zn2   S    
C65   H38   S    
C14   C26   A    
C24   C32   S    
C36   C56   A    
O12   Zn3   S    
C1    C28   S    
C66   H39   S    
O11   Zn4   S    
C15   C27   A    
O19   H19   S    
C61   H27   S    
C61   H26   S    
C9    O21   S    
C76   H68   S    
C70   H50   S    
C20   H16   S    
C10   C34   A    
O10   Zn4   S    
C49   O17   S    
C8    O28   S    
C9    C11   A    
C75   C76   S    
C64   H32   S    
C1    O1    A    
C10   C12   A    
C9    C33   A    
C7    O27   S    
C3    C57   A    
C69   H47   S    
O2    Zn2   S    
C34   C54   A    
C13   C15   A    
O23   H35   S    
C60   C61   S    
C14   C16   A    
C36   C44   S    
C65   C66   S    
C60   H23   S    
O24   H36   S    
C25   C45   A    
O21   C59   S    
C2    O2    A    
O16   Zn3   S    
O25   C65   S    
C20   C32   A    
C24   O4    A    
C21   C25   S    
C28   C48   A    
C50   O18   S    
C22   C30   S    
C3    H11   S    
C16   O30   S    
O5    Zn1   S    
C31   C51   A    
C67   H41   S    
C55   H9    S    
C54   C56   A    
O4    Zn1   S    
C18   H8    S    
C17   H7    S    
C27   C47   A    
C43   O13   A    
C71   H55   S    
C11   C35   A    
C65   H37   S    
C68   H45   S    
C68   H44   S    
C73   H59   S    
O13   Zn3   S    
C52   O26   S    
C75   H65   S    
C18   C20   A    
C30   C50   A    
C63   H31   S    
C64   H33   S    
C72   H57   S    
C2    O8    A    
O8    Zn1   S    
C47   H1    S    
C46   O32   S    
C21   C37   S    
C73   H61   S    
C76   H66   S    
C22   C26   S    
C4    C58   A    
O29   H53   S    
C66   H40   S    
C7    C39   A    
C8    C40   A    
C23   O5    A    
O28   H52   S    
C44   O14   A    
C59   C60   S    
C37   C57   A    
C23   C31   S    
C22   C38   S    
O9    Zn3   S    
