data_mof_unit_34270.cif
_audit_creation_date              2012-12-10T20:01:36-0500
_audit_creation_method            fapswitch 2.2
_symmetry_space_group_name_H-M    P1
_symmetry_Int_Tables_number       1
_space_group_crystal_system       triclinic
_cell_length_a                    14.136666
_cell_length_b                    14.994078
_cell_length_c                    16.600866
_cell_angle_alpha                 89.685361
_cell_angle_beta                  93.716952
_cell_angle_gamma                 87.58731
_cell_volume                      3508.18975794

loop_
_atom_site_label
_atom_site_type_symbol
_atom_type_description
_atom_site_fract_x
_atom_site_fract_y
_atom_site_fract_z
_atom_type_partial_charge
C1    C     C_R   0.502052 0.326677 0.501572 0.992332
C2    C     C_R   0.497244 0.672879 0.500193 0.947959
C3    C     C_R   0.583408 0.178799 0.476745 0.315520
C4    C     C_R   0.450180 0.814321 0.566897 0.209336
C5    C     C_R   0.508906 0.229155 0.511298 -0.411884
C6    C     C_R   0.490296 0.769909 0.501297 -0.337228
C7    C     C_R   0.446646 0.184842 0.560329 0.318568
C8    C     C_R   0.536239 0.819502 0.444238 0.340748
C9    C     C_R   0.455570 0.092879 0.567500 -0.226541
C10   C     C_R   0.547788 0.909451 0.457316 -0.260360
C11   C     C_R   0.533614 0.045022 0.539534 -0.098148
C12   C     C_R   0.527293 0.947910 0.531115 -0.088397
C13   C     C_R   0.112693 0.472645 0.571572 0.348874
C14   C     C_R   0.888595 0.585074 0.491410 0.392135
C15   C     C_R   0.211921 0.468248 0.566060 -0.006662
C16   C     C_R   0.789164 0.578901 0.487123 -0.120458
C17   C     C_R   0.196644 0.538091 0.437602 0.577492
C18   C     C_R   0.802732 0.424764 0.518301 0.673990
C19   C     C_R   0.097035 0.536289 0.437408 -0.353088
C20   C     C_R   0.902158 0.426107 0.514403 -0.309549
C21   C     C_R   0.053367 0.505453 0.504970 0.015977
C22   C     C_R   0.946885 0.506449 0.503448 -0.010251
C23   C     C_R   0.512235 0.498404 0.654816 0.910129
C24   C     C_R   0.489053 0.494491 0.345410 1.043906
C25   C     C_R   0.520960 0.482228 0.742983 -0.326014
C26   C     C_R   0.485959 0.463888 0.260033 -0.329883
C27   C     C_R   0.444925 0.503460 0.791653 0.219002
C28   C     C_R   0.570995 0.448060 0.218114 0.263581
C29   C     C_R   0.441548 0.460588 0.866857 0.380471
C30   C     C_R   0.565276 0.401381 0.144895 0.374363
C31   C     C_R   0.522326 0.411109 0.900003 0.099517
C32   C     C_R   0.476056 0.390127 0.103794 0.091860
C33   C     C_R   0.601569 0.399769 0.855414 -0.377046
C34   C     C_R   0.394485 0.404506 0.144395 -0.357516
C35   C     C_R   0.602960 0.436418 0.778218 0.450540
C36   C     C_R   0.398828 0.433790 0.224234 0.417582
C37   C     C_R   0.604796 0.090876 0.502805 0.382108
C38   C     C_R   0.486187 0.896349 0.589611 0.359193
H1    H     H_    0.257195 0.441167 0.615878 0.249642
H2    H     H_    0.745125 0.638571 0.475939 0.241374
H3    H     H_    0.053950 0.559693 0.384602 0.216546
H4    H     H_    0.944885 0.364865 0.521519 0.202358
H5    H     H_    0.664842 0.365268 0.882439 0.193227
H6    H     H_    0.326351 0.393728 0.113150 0.184376
H7    H     H_    0.398375 0.058353 0.592251 0.249216
H8    H     H_    0.573543 0.949299 0.409490 0.250709
N1    N     N_2   0.536936 0.395140 0.983751 -0.061348
N2    N     N_2   0.464100 0.380399 0.018913 -0.103657
N3    N     N_R   0.252470 0.499980 0.500000 -0.164503
N4    N     N_R   0.747530 0.500020 0.500000 -0.155176
O1    O     O_R   0.579480 0.369070 0.499990 -0.534521
O2    O     O_R   0.420520 0.630930 0.500010 -0.578972
O3    O     O_R   0.420520 0.369060 0.499990 -0.577777
O4    O     O_R   0.579480 0.630940 0.500010 -0.622496
O5    O     O_R   0.588340 0.499180 0.616130 -0.596425
O6    O     O_R   0.411660 0.500820 0.383870 -0.548813
O7    O     O_R   0.429390 0.499170 0.616130 -0.565936
O8    O     O_R   0.570610 0.500830 0.383870 -0.506263
Zn1   Zn    Zn3+2 0.606140 0.500010 0.500000 1.095378
Zn2   Zn    Zn3+2 0.393860 0.499990 0.500000 1.085791
S1    S     S_3+6 0.686259 0.482712 0.253430 0.110150
O9    O     O_2   0.725671 0.421874 0.320731 -0.196676
O10   O     O_2   0.754827 0.479970 0.187833 -0.243342
O11   O     O_3   0.679783 0.587683 0.287395 -0.440414
H9    H     H_    0.665139 0.624959 0.238355 0.394123
S2    S     S_3+6 0.369482 0.599385 0.769846 0.132094
O12   O     O_2   0.294195 0.579222 0.705542 -0.228351
O13   O     O_2   0.321674 0.630941 0.843408 -0.169535
O14   O     O_3   0.435785 0.682328 0.739560 -0.501840
H10   H     H_    0.458049 0.663962 0.686700 0.325948
O15   O     O_3   0.238099 0.571638 0.371519 -0.557715
C39   C     C_3   0.223930 0.665408 0.369088 0.103055
H11   H     H_    0.257813 0.695918 0.424066 0.210578
H12   H     H_    0.147179 0.685917 0.363676 0.174111
C40   C     C_3   0.269025 0.701724 0.295717 -0.666793
H13   H     H_    0.232721 0.676337 0.239630 0.256490
H14   H     H_    0.262858 0.775804 0.295181 0.219705
H15   H     H_    0.345050 0.680051 0.297480 0.285610
O16   O     O_3   0.759433 0.346642 0.535300 -0.557614
C41   C     C_3   0.794610 0.308949 0.610286 0.103545
H16   H     H_    0.732641 0.295762 0.645666 0.195983
H17   H     H_    0.841499 0.352478 0.647900 0.186055
C42   C     C_3   0.845977 0.219688 0.596865 -0.798663
H18   H     H_    0.915261 0.228859 0.571054 0.272391
H19   H     H_    0.858430 0.182825 0.655039 0.221244
H20   H     H_    0.801741 0.180034 0.554336 0.284761
O17   O     O_3   0.647403 0.371501 0.110835 -0.553744
C43   C     C_3   0.663338 0.280032 0.129835 0.147954
H21   H     H_    0.603935 0.240194 0.104173 0.130305
H22   H     H_    0.671830 0.269385 0.196458 0.218253
C44   C     C_3   0.754140 0.246368 0.093717 -0.716827
H23   H     H_    0.815060 0.284039 0.119017 0.277476
H24   H     H_    0.767521 0.174375 0.108228 0.217646
H25   H     H_    0.747546 0.255290 0.027086 0.239044
O18   O     O_3   0.363536 0.475566 0.911732 -0.555132
C45   C     C_3   0.296141 0.411851 0.889152 0.138835
H26   H     H_    0.321380 0.344189 0.911191 0.133904
H27   H     H_    0.282079 0.409369 0.822447 0.206756
C46   C     C_3   0.203341 0.436380 0.926669 -0.640559
H28   H     H_    0.175945 0.503266 0.904714 0.291105
H29   H     H_    0.149942 0.386438 0.909597 0.218520
H30   H     H_    0.214602 0.437565 0.993452 0.224455
O19   O     O_3   0.684540 0.425812 0.736861 -0.628915
C47   C     C_3   0.755988 0.480234 0.771410 0.101055
H31   H     H_    0.825786 0.445318 0.765041 0.206878
H32   H     H_    0.751581 0.492371 0.837317 0.145988
C48   C     C_3   0.754932 0.569624 0.727062 -0.730190
H33   H     H_    0.686288 0.606930 0.733247 0.231616
H34   H     H_    0.813122 0.610196 0.753106 0.228320
H35   H     H_    0.765489 0.558761 0.662175 0.257197
O20   O     O_3   0.317091 0.435953 0.266441 -0.534323
C49   C     C_3   0.281871 0.348984 0.270597 0.110716
H36   H     H_    0.339871 0.297206 0.283935 0.113871
H37   H     H_    0.242105 0.332677 0.212950 0.143146
C50   C     C_3   0.213852 0.344388 0.337525 -0.699824
H38   H     H_    0.153962 0.394054 0.326078 0.252563
H39   H     H_    0.185015 0.276732 0.339715 0.210560
H40   H     H_    0.251831 0.357623 0.396509 0.269817
O21   O     O_3   0.686215 0.047177 0.477280 -0.561493
C51   C     C_3   0.739431 0.004921 0.543038 0.037450
H41   H     H_    0.709303 0.940350 0.558385 0.163070
H42   H     H_    0.742512 0.047320 0.597994 0.116609
C52   C     C_3   0.840069 0.984520 0.518978 -0.629213
H43   H     H_    0.873953 0.046904 0.502500 0.249082
H44   H     H_    0.882901 0.951616 0.570072 0.227178
H45   H     H_    0.838761 0.939236 0.466233 0.283712
O22   O     O_3   0.467009 0.931518 0.663866 -0.565069
C53   C     C_3   0.550399 0.922853 0.715202 0.118107
H46   H     H_    0.608707 0.960605 0.690953 0.110267
H47   H     H_    0.573845 0.851253 0.723349 0.151926
C54   C     C_3   0.530329 0.960763 0.797395 -0.688262
H48   H     H_    0.473252 0.923704 0.823858 0.287915
H49   H     H_    0.595455 0.954391 0.838512 0.194558
H50   H     H_    0.507615 0.032444 0.791212 0.249520
S3    S     S_3+6 0.634865 0.213829 0.387543 0.080619
O23   O     O_2   0.733750 0.243375 0.406883 -0.177388
O24   O     O_2   0.640159 0.136804 0.330128 -0.280540
O25   O     O_3   0.569296 0.297209 0.341443 -0.594476
H51   H     H_    0.511543 0.268984 0.318611 0.315766
S4    S     S_3+6 0.331693 0.797471 0.593437 0.097525
O26   O     O_2   0.302993 0.702659 0.587014 -0.224171
O27   O     O_2   0.317889 0.828694 0.677944 -0.149099
O28   O     O_3   0.258300 0.859375 0.529588 -0.553420
H52   H     H_    0.274220 0.922013 0.540753 0.366055
S5    S     S_3+6 0.353983 0.238380 0.611779 0.038111
O29   O     O_2   0.276528 0.271103 0.551244 -0.276964
O30   O     O_2   0.312774 0.174699 0.668987 -0.263292
O31   O     O_3   0.395782 0.324712 0.665040 -0.572421
H53   H     H_    0.446527 0.298101 0.702776 0.328800
S6    S     S_3+6 0.573573 0.775499 0.352496 0.046574
O32   O     O_2   0.523620 0.691812 0.330891 -0.318382
O33   O     O_2   0.552404 0.842759 0.285572 -0.271044
O34   O     O_3   0.691335 0.753676 0.362433 -0.476315
H54   H     H_    0.718953 0.811247 0.377900 0.373684
S7    S     S_3+6 0.066962 0.441606 0.663899 0.036609
O35   O     O_2   0.045540 0.344349 0.661435 -0.277075
O36   O     O_2   0.138777 0.456193 0.732602 -0.279919
O37   O     O_3   0.967291 0.502090 0.680028 -0.595966
H55   H     H_    0.986815 0.564747 0.682463 0.387726
S8    S     S_3+6 0.935516 0.692354 0.485524 0.010694
O38   O     O_2   0.951558 0.712844 0.398870 -0.298152
O39   O     O_2   0.866055 0.761009 0.515672 -0.332222
O40   O     O_3   0.038653 0.696634 0.541701 -0.531946
H56   H     H_    0.068932 0.750436 0.522364 0.409019

loop_
_geom_bond_atom_site_label_1
_geom_bond_atom_site_label_2
_ccdc_geom_bond_type
S3    O25   S    
S2    O13   D    
O17   C43   S    
C16   H2    S    
C9    H7    S    
O5    Zn1   S    
S7    O36   D    
C32   N2    S    
O18   C45   S    
S4    O28   S    
C54   H50   S    
C53   H46   S    
C49   H37   S    
C38   O22   S    
S3    O23   D    
C19   H3    S    
N3    Zn2   S    
C1    C5    S    
N4    Zn1   S    
C19   C21   A    
S4    O27   D    
C35   O19   S    
O14   H10   S    
C41   C42   S    
C52   H44   S    
S2    O14   S    
C27   C29   A    
C50   H38   S    
C45   C46   S    
C49   C50   S    
C18   C20   A    
S1    O10   D    
C11   C37   A    
C1    O3    A    
C49   H36   S    
O2    Zn2   S    
C17   C19   A    
C13   S7    S    
C42   H18   S    
C18   O16   S    
C50   H39   S    
S6    O34   S    
C45   H27   S    
C10   H8    S    
C48   H33   S    
C31   C33   A    
C3    S3    S    
C51   C52   S    
C28   S1    S    
C23   C25   S    
S2    O12   D    
C24   O8    A    
C31   N1    S    
C21   C22   S    
S7    O37   S    
C48   H34   S    
C2    C6    S    
C39   C40   S    
C10   C12   A    
C47   H32   S    
C47   H31   S    
S5    O30   D    
O3    Zn2   S    
C51   H42   S    
S5    O29   D    
O4    Zn1   S    
C33   H5    S    
S8    O40   S    
C52   H43   S    
C34   H6    S    
S4    O26   D    
C39   H12   S    
C2    O4    A    
C17   N3    A    
C44   H23   S    
C5    C7    A    
C41   H16   S    
C52   H45   S    
C6    C8    A    
C3    C5    A    
O8    Zn1   S    
C44   H24   S    
O6    Zn2   S    
C14   S8    S    
S8    O39   D    
S1    O11   S    
C8    S6    S    
C40   H13   S    
S6    O33   D    
C4    S4    S    
C9    C11   A    
N1    N2    D    
C37   O21   S    
C43   C44   S    
O21   C51   S    
C50   H40   S    
C45   H26   S    
C46   H30   S    
C36   O20   S    
C13   C21   A    
O31   H53   S    
C40   H14   S    
C15   H1    S    
C2    O2    A    
C25   C35   A    
C23   O7    A    
C41   H17   S    
C46   H29   S    
C43   H22   S    
C17   O15   S    
C13   C15   A    
O37   H55   S    
C48   H35   S    
C14   C16   A    
C4    C6    A    
O1    Zn1   S    
C54   H48   S    
C53   C54   S    
O19   C47   S    
S5    O31   S    
C51   H41   S    
C18   N4    A    
C29   O18   S    
C26   C36   A    
S3    O24   D    
O20   C49   S    
C42   H19   S    
C24   C26   S    
C20   C22   A    
C39   H11   S    
C54   H49   S    
C53   H47   S    
C20   H4    S    
C11   C12   S    
C23   O5    A    
C24   O6    A    
C26   C28   A    
C1    O1    A    
C46   H28   S    
O11   H9    S    
C14   C22   A    
C28   C30   A    
O28   H52   S    
O34   H54   S    
O15   C39   S    
C29   C31   A    
C27   S2    S    
S8    O38   D    
C44   H25   S    
C30   C32   A    
C33   C35   A    
C34   C36   A    
C15   N3    A    
C12   C38   A    
S1    O9    D    
C16   N4    A    
C40   H15   S    
O40   H56   S    
O25   H51   S    
O16   C41   S    
C7    C9    A    
O7    Zn2   S    
C42   H20   S    
C43   H21   S    
C3    C37   A    
C8    C10   A    
S7    O35   D    
S6    O32   D    
C30   O17   S    
C4    C38   A    
C47   C48   S    
O22   C53   S    
C32   C34   A    
C7    S5    S    
C25   C27   A    
