data_mof_unit_58879.cif
_audit_creation_date              2012-10-26T18:54:55-0400
_audit_creation_method            fapswitch 2.2
_symmetry_space_group_name_H-M    P1
_symmetry_Int_Tables_number       1
_space_group_crystal_system       triclinic
_cell_length_a                    10.789659
_cell_length_b                    9.516622
_cell_length_c                    10.834072
_cell_angle_alpha                 89.856545
_cell_angle_beta                  90.237504
_cell_angle_gamma                 89.867284
_cell_volume                      1112.43844208

loop_
_atom_site_label
_atom_site_type_symbol
_atom_type_description
_atom_site_fract_x
_atom_site_fract_y
_atom_site_fract_z
_atom_type_partial_charge
C1    C     C_R   0.262384 0.500182 0.494432 0.526895
C2    C     C_R   0.500278 0.624309 0.936375 -0.073170
C3    C     C_R   0.517214 0.500352 0.129484 -0.062533
C4    C     C_R   0.514428 0.499400 0.870783 -0.054161
C5    C     C_R   0.548714 0.376825 0.064938 0.375453
C6    C     C_R   0.547796 0.376517 0.936080 0.375815
C7    C     C_3   0.403251 0.737900 0.930811 -0.008298
C8    C     C_3   0.408932 0.739843 0.071934 0.006444
C9    C     C_R   0.063482 0.409878 0.405210 0.101051
C10   C     C_R   0.933477 0.406160 0.412055 0.108947
C11   C     C_R   0.871482 0.499216 0.491584 0.038741
C12   C     C_R   0.737742 0.499722 0.498006 0.574901
C13   C     C_R   0.128579 0.501303 0.485641 0.023041
C14   C     C_R   0.936960 0.595442 0.563329 -0.167667
C15   C     C_R   0.064808 0.595435 0.561378 -0.161039
C16   C     C_R   0.421173 0.074811 0.424930 0.056400
C17   C     C_R   0.578752 0.074009 0.575155 0.048724
C18   C     C_R   0.420920 0.925980 0.425221 0.047026
C19   C     C_R   0.578762 0.925156 0.575151 0.022093
C20   C     C_R   0.503400 0.500058 0.262317 0.564837
C21   C     C_R   0.502422 0.499722 0.737729 0.568390
C22   C     C_R   0.504129 0.625460 0.063305 -0.029204
Cu1   Cu    Cu3+1 0.500000 0.640660 0.500000 0.950826
Cu2   Cu    Cu3+1 0.500000 0.359340 0.500000 1.037855
F1    F     F_    0.575398 0.255130 0.125317 -0.584452
F2    F     F_    0.574363 0.254773 0.876527 -0.604272
H1    H     H_    0.435663 0.835710 0.884721 0.180002
H2    H     H_    0.287341 0.682748 0.788787 0.252384
H3    H     H_    0.541644 0.897387 0.073696 0.278355
H4    H     H_    0.396685 0.949996 0.107834 0.250456
H5    H     H_    0.218446 0.350318 0.305919 0.236810
H6    H     H_    0.088005 0.346100 0.228792 0.218740
H7    H     H_    0.896179 0.209468 0.350488 0.260785
H8    H     H_    0.876554 0.338561 0.243341 0.243701
H9    H     H_    0.322773 0.706748 0.120041 0.158266
H10   H     H_    0.888999 0.667967 0.623680 0.132434
H11   H     H_    0.114267 0.667248 0.621321 0.138554
H12   H     H_    0.358165 0.131153 0.364622 0.132914
H13   H     H_    0.641853 0.129781 0.635327 0.160445
H14   H     H_    0.357378 0.870170 0.365547 0.130762
H15   H     H_    0.641806 0.868704 0.635398 0.117927
H16   H     H_    0.263449 0.588864 0.918566 0.228464
N1    N     N_R   0.500000 0.852070 0.500000 -0.230841
N2    N     N_R   0.500000 0.147940 0.500000 -0.228563
N3    N     N_3   0.282667 0.689659 0.884875 -0.638501
N4    N     N_3   0.461458 0.869618 0.121978 -0.595511
N5    N     N_3   0.125583 0.322818 0.315516 -0.628895
N6    N     N_3   0.863360 0.311656 0.335912 -0.565468
O1    O     O_R   0.319640 0.618740 0.499990 -0.524618
O2    O     O_R   0.680360 0.618740 0.500010 -0.515233
O3    O     O_R   0.319620 0.381170 0.499990 -0.505365
O4    O     O_R   0.680380 0.381170 0.500010 -0.470006
O5    O     O_R   0.499990 0.618810 0.319660 -0.488206
O6    O     O_R   0.500010 0.618810 0.680340 -0.523623
O7    O     O_R   0.499960 0.381240 0.319650 -0.445809
O8    O     O_R   0.500040 0.381240 0.680350 -0.443005

loop_
_geom_bond_atom_site_label_1
_geom_bond_atom_site_label_2
_ccdc_geom_bond_type
Cu2   O4    S    
C21   O8    A    
C8    C22   S    
C11   C12   S    
C2    C22   A    
Cu2   O8    S    
C9    C10   A    
C16   N2    A    
H8    N6    S    
C2    C4    A    
C2    C7    S    
H3    N4    S    
Cu1   Cu2   S    
Cu2   O3    S    
C17   N2    A    
Cu1   N1    S    
C7    C8    S    
H5    N5    S    
C18   N1    A    
Cu2   O7    S    
C14   H10   S    
C4    C21   S    
C1    O3    A    
C20   O5    A    
C6    F2    S    
C20   O7    A    
C5    F1    S    
C5    C6    A    
C7    N3    S    
Cu1   O5    S    
C4    C6    A    
C17   C19   A    
C19   N1    A    
C9    N5    S    
C13   C15   A    
C10   N6    S    
C21   O6    A    
Cu2   N2    S    
H6    N5    S    
C8    N4    S    
H2    N3    S    
Cu1   O1    S    
C1    C13   S    
C10   C11   A    
H16   N3    S    
C3    C5    A    
C3    C20   S    
C7    H1    S    
Cu1   O6    S    
C16   C18   A    
C17   H13   S    
C11   C14   A    
H7    N6    S    
C18   H14   S    
C14   C15   A    
C15   H11   S    
Cu1   O2    S    
C9    C13   A    
C12   O4    A    
C1    O1    A    
H4    N4    S    
C19   H15   S    
C16   H12   S    
C12   O2    A    
C3    C22   A    
C8    H9    S    
