data_mof_unit_17039.cif
_audit_creation_date              2012-12-11T16:10:43-0500
_audit_creation_method            fapswitch 2.2
_symmetry_space_group_name_H-M    P1
_symmetry_Int_Tables_number       1
_space_group_crystal_system       monoclinic
_cell_length_a                    26.002453
_cell_length_b                    7.076562
_cell_length_c                    24.02159
_cell_angle_alpha                 90.0
_cell_angle_beta                  101.183064
_cell_angle_gamma                 90.0
_cell_volume                      4336.23628193

loop_
_atom_site_label
_atom_site_type_symbol
_atom_type_description
_atom_site_fract_x
_atom_site_fract_y
_atom_site_fract_z
_atom_type_partial_charge
O1    O     O_R   0.442540 0.494320 0.443520 -0.531479
O2    O     O_R   0.557460 0.994320 0.556480 -0.531479
O3    O     O_R   0.546640 0.821130 0.446490 -0.515745
O4    O     O_R   0.453360 0.321130 0.553510 -0.515745
C1    C     C_R   0.563059 0.655955 0.434004 0.708229
C2    C     C_R   0.436941 0.155955 0.565996 0.708230
O5    O     O_R   0.442270 0.823840 0.436770 -0.540983
O6    O     O_R   0.557730 0.323840 0.563230 -0.540983
O7    O     O_R   0.452340 0.997060 0.546690 -0.541734
O8    O     O_R   0.547660 0.497060 0.453310 -0.541734
C3    C     C_R   0.423452 0.655171 0.421457 0.717855
C4    C     C_R   0.576548 0.155171 0.578543 0.717855
O9    O     O_3   0.503430 0.661750 0.536080 -0.373501
O10   O     O_3   0.496570 0.161750 0.463920 -0.373501
V1    V     V_3+5 0.499360 0.935480 0.493310 1.432399
V2    V     V_3+5 0.500640 0.435480 0.506690 1.432399
C5    C     C_3   0.735919 0.926893 0.705974 -0.334898
C6    C     C_3   0.264081 0.426893 0.294026 -0.334898
C7    C     C_3   0.748524 0.277719 0.701415 -0.427593
C8    C     C_3   0.251476 0.777719 0.298585 -0.427593
C9    C     C_3   0.798406 0.261727 0.748924 -0.444469
C10   C     C_3   0.201594 0.761727 0.251075 -0.444468
H1    H     H_    0.820168 0.883512 0.735939 0.051606
H2    H     H_    0.179832 0.383513 0.264061 0.051606
H3    H     H_    0.748211 0.909858 0.664384 0.097344
H4    H     H_    0.251789 0.409858 0.335616 0.097344
H5    H     H_    0.730419 0.419475 0.703425 0.185236
H6    H     H_    0.269581 0.919475 0.296575 0.185236
H7    H     H_    0.759884 0.266144 0.659200 0.175012
H8    H     H_    0.240116 0.766144 0.340800 0.175012
H9    H     H_    0.833355 0.238947 0.729359 0.158661
H10   H     H_    0.166645 0.738947 0.270641 0.158661
H11   H     H_    0.804594 0.396891 0.772923 0.239894
H12   H     H_    0.195406 0.896891 0.227076 0.239894
C11   C     C_1   0.878879 0.074557 0.874345 -0.162432
C12   C     C_1   0.121121 0.574557 0.125655 -0.162431
C13   C     C_3   0.708265 0.120920 0.707815 0.143914
C14   C     C_3   0.291735 0.620920 0.292185 0.143914
C15   C     C_3   0.784967 0.911202 0.754672 0.512556
C16   C     C_3   0.215033 0.411202 0.245328 0.512556
C17   C     C_3   0.793135 0.096665 0.789945 0.121784
C18   C     C_3   0.206865 0.596665 0.210055 0.121784
C19   C     C_3   0.743205 0.132811 0.814888 -0.322289
C20   C     C_3   0.256794 0.632811 0.185112 -0.322288
C21   C     C_3   0.693119 0.144261 0.767172 0.342451
C22   C     C_3   0.306881 0.644261 0.232828 0.342452
C23   C     C_1   0.840618 0.084114 0.836140 0.000204
C24   C     C_1   0.159382 0.584114 0.163859 0.000204
C25   C     C_1   0.661108 0.134974 0.661389 -0.047532
C26   C     C_1   0.338892 0.634974 0.338611 -0.047533
C27   C     C_1   0.622485 0.145227 0.623756 -0.196627
C28   C     C_1   0.377515 0.645227 0.376244 -0.196627
H13   H     H_    0.676292 0.288921 0.769389 0.054256
H14   H     H_    0.323707 0.788921 0.230611 0.054256
H15   H     H_    0.738705 0.018315 0.845311 0.210478
H16   H     H_    0.261295 0.518315 0.154689 0.210478
H17   H     H_    0.708090 0.809882 0.709305 0.201700
H18   H     H_    0.291910 0.309882 0.290695 0.201700
H19   H     H_    0.747691 0.267275 0.839410 0.118785
H20   H     H_    0.252309 0.767275 0.160590 0.118785
C29   C     C_R   0.112101 0.249326 0.872110 -0.215706
C30   C     C_R   0.887899 0.749326 0.127890 -0.215705
H21   H     H_    0.091903 0.375284 0.881731 0.205274
H22   H     H_    0.908097 0.875284 0.118269 0.205274
C31   C     C_R   0.145645 0.264846 0.833409 -0.212259
C32   C     C_R   0.854355 0.764846 0.166591 -0.212258
H23   H     H_    0.150654 0.401525 0.814921 0.212399
H24   H     H_    0.849346 0.901525 0.185079 0.212398
C33   C     C_R   0.170599 0.105448 0.816598 -0.131775
C34   C     C_R   0.829401 0.605448 0.183402 -0.131775
C35   C     C_R   0.164199 0.929418 0.841999 0.388689
C36   C     C_R   0.835801 0.429418 0.158001 0.388690
C37   C     C_R   0.131907 0.913401 0.883104 0.354630
C38   C     C_R   0.868093 0.413401 0.116896 0.354630
C39   C     C_R   0.103373 0.074748 0.896813 -0.217462
C40   C     C_R   0.896627 0.574748 0.103187 -0.217463
N1    N     N_R   0.205695 0.988232 0.734198 -0.239250
N2    N     N_R   0.794304 0.488232 0.265802 -0.239250
N3    N     N_R   0.240528 0.995021 0.700114 -0.300951
N4    N     N_R   0.759472 0.495021 0.299886 -0.300951
C41   C     C_R   0.275623 0.139030 0.704126 0.520333
C42   C     C_R   0.724377 0.639030 0.295874 0.520333
N5    N     N_R   0.273270 0.278526 0.742497 -0.312222
N6    N     N_R   0.726729 0.778525 0.257503 -0.312222
N7    N     N_R   0.238612 0.271341 0.776708 -0.312539
N8    N     N_R   0.761388 0.771340 0.223291 -0.312539
C43   C     C_R   0.204660 0.124486 0.773908 0.563868
C44   C     C_R   0.795340 0.624486 0.226092 0.563868
C45   C     C_R   0.343314 0.310493 0.662408 -0.206289
C46   C     C_R   0.656686 0.810493 0.337592 -0.206288
H25   H     H_    0.332240 0.440029 0.681024 0.140438
H26   H     H_    0.667760 0.940029 0.318976 0.140437
C47   C     C_R   0.383756 0.316502 0.631346 0.425990
C48   C     C_R   0.616244 0.816502 0.368654 0.425990
C49   C     C_R   0.397318 0.151176 0.603731 -0.156112
C50   C     C_R   0.602682 0.651176 0.396269 -0.156112
C51   C     C_R   0.370574 0.982204 0.610545 -0.217769
C52   C     C_R   0.629426 0.482203 0.389455 -0.217769
H27   H     H_    0.379680 0.853395 0.590182 0.185907
H28   H     H_    0.620320 0.353395 0.409818 0.185907
C53   C     C_R   0.330851 0.977672 0.642597 -0.150017
C54   C     C_R   0.669148 0.477671 0.357403 -0.150016
H29   H     H_    0.311294 0.844913 0.646965 0.149573
H30   H     H_    0.688706 0.344913 0.353035 0.149572
C55   C     C_R   0.316808 0.142021 0.668907 -0.028183
C56   C     C_R   0.683192 0.642021 0.331093 -0.028183
O11   O     O_R   0.952390 0.727960 0.046760 -0.539491
O12   O     O_R   0.047610 0.227960 0.953240 -0.539492
O13   O     O_R   0.057740 0.395520 0.063240 -0.531142
O14   O     O_R   0.942260 0.895520 0.936760 -0.531142
C57   C     C_R   0.076039 0.564509 0.079242 0.695352
C58   C     C_R   0.923961 0.064509 0.920758 0.695352
O15   O     O_R   0.953370 0.398410 0.053530 -0.527041
O16   O     O_R   0.046630 0.898410 0.946470 -0.527041
O17   O     O_R   0.942530 0.225390 0.943510 -0.541453
O18   O     O_R   0.057470 0.725390 0.056490 -0.541453
C59   C     C_R   0.936101 0.566226 0.064880 0.720098
C60   C     C_R   0.063899 0.066226 0.935120 0.720098
O19   O     O_3   0.996600 0.557860 0.963960 -0.369874
O20   O     O_3   0.003400 0.057860 0.036040 -0.369874
V3    V     V_3+5 0.000630 0.284060 0.006690 1.434858
V4    V     V_3+5 0.999370 0.784060 0.993310 1.434859
F1    F     F_    0.779070 0.759490 0.789436 -0.702171
F2    F     F_    0.220930 0.259490 0.210564 -0.702171
O21   O     O_3   0.186730 0.769068 0.823654 -0.552756
C61   C     C_3   0.237167 0.735832 0.857122 0.088634
H31   H     H_    0.236298 0.593215 0.876001 0.153212
H32   H     H_    0.249345 0.839716 0.892232 0.065889
C62   C     C_3   0.279010 0.734104 0.820119 -0.255233
H33   H     H_    0.263900 0.659258 0.779609 0.258500
H34   H     H_    0.288868 0.881455 0.810442 0.188398
C63   C     C_3   0.329303 0.637486 0.850072 -0.829885
H35   H     H_    0.345387 0.710769 0.890606 0.223699
H36   H     H_    0.358941 0.642603 0.822448 0.234083
H37   H     H_    0.321574 0.487142 0.858912 0.251121
O22   O     O_3   0.813270 0.269068 0.176346 -0.552756
C64   C     C_3   0.762833 0.235832 0.142878 0.088632
H38   H     H_    0.763702 0.093215 0.123999 0.153212
H39   H     H_    0.750655 0.339716 0.107768 0.065889
C65   C     C_3   0.720990 0.234104 0.179881 -0.255233
H40   H     H_    0.736100 0.159258 0.220391 0.258500
H41   H     H_    0.711132 0.381455 0.189558 0.188398
C66   C     C_3   0.670697 0.137485 0.149928 -0.829884
H42   H     H_    0.654613 0.210768 0.109394 0.223698
H43   H     H_    0.641059 0.142602 0.177552 0.234083
H44   H     H_    0.678425 0.987142 0.141088 0.251121
O23   O     O_3   0.125040 0.734338 0.904046 -0.566766
C67   C     C_3   0.146133 0.720986 0.963009 0.117353
H45   H     H_    0.115881 0.651868 0.982690 0.164514
H46   H     H_    0.155584 0.859550 0.984832 0.069955
C68   C     C_3   0.194974 0.595263 0.973933 -0.370312
H47   H     H_    0.189785 0.474080 0.944023 0.220009
H48   H     H_    0.229376 0.679799 0.968161 0.174096
C69   C     C_3   0.206274 0.518427 0.034248 -0.819498
H49   H     H_    0.209321 0.637201 0.064824 0.228460
H50   H     H_    0.243939 0.439769 0.041863 0.235622
H51   H     H_    0.174650 0.420320 0.040788 0.236015
O24   O     O_3   0.874960 0.234338 0.095954 -0.566766
C70   C     C_3   0.853867 0.220986 0.036991 0.117353
H52   H     H_    0.884119 0.151869 0.017310 0.164514
H53   H     H_    0.844416 0.359551 0.015168 0.069955
C71   C     C_3   0.805026 0.095263 0.026067 -0.370311
H54   H     H_    0.810215 0.974080 0.055977 0.220009
H55   H     H_    0.770624 0.179798 0.031838 0.174095
C72   C     C_3   0.793726 0.018426 0.965752 -0.819499
H56   H     H_    0.790679 0.137201 0.935176 0.228460
H57   H     H_    0.756061 0.939768 0.958137 0.235621
H58   H     H_    0.825350 0.920319 0.959212 0.236015
O25   O     O_3   0.405765 0.490161 0.623670 -0.577350
C73   C     C_3   0.450239 0.521893 0.666983 0.104775
H59   H     H_    0.475422 0.625273 0.649961 0.159833
H60   H     H_    0.474624 0.392378 0.677958 0.072919
C74   C     C_3   0.434474 0.605421 0.720294 -0.350652
H61   H     H_    0.401004 0.704102 0.707953 0.215211
H62   H     H_    0.422021 0.489575 0.745973 0.186340
C75   C     C_3   0.479636 0.712963 0.756696 -0.839548
H63   H     H_    0.515054 0.622386 0.767042 0.230576
H64   H     H_    0.468122 0.758057 0.796827 0.235440
H65   H     H_    0.488923 0.840806 0.733703 0.223501
O26   O     O_3   0.594235 0.990161 0.376330 -0.577350
C76   C     C_3   0.549761 0.021894 0.333018 0.104775
H66   H     H_    0.524578 0.125274 0.350040 0.159833
H67   H     H_    0.525375 0.892379 0.322043 0.072919
C77   C     C_3   0.565526 0.105420 0.279706 -0.350653
H68   H     H_    0.598995 0.204100 0.292046 0.215210
H69   H     H_    0.577979 0.989573 0.254027 0.186340
C78   C     C_3   0.520363 0.212962 0.243304 -0.839550
H70   H     H_    0.484946 0.122387 0.232959 0.230576
H71   H     H_    0.531877 0.258053 0.203173 0.235440
H72   H     H_    0.511077 0.340806 0.266297 0.223502
O27   O     O_3   0.658115 0.997633 0.775964 -0.560690
C79   C     C_3   0.606745 0.065391 0.774882 0.078200
H73   H     H_    0.579599 0.944413 0.763575 0.149741
H74   H     H_    0.594480 0.174961 0.741621 0.094784
C80   C     C_3   0.601313 0.138821 0.833473 -0.320912
H75   H     H_    0.614186 0.027525 0.865833 0.208049
H76   H     H_    0.626721 0.264740 0.844722 0.186027
C81   C     C_3   0.544707 0.192995 0.834527 -0.831175
H77   H     H_    0.530491 0.300420 0.801458 0.230520
H78   H     H_    0.542315 0.252831 0.876676 0.235839
H79   H     H_    0.518997 0.066679 0.826905 0.234675
O28   O     O_3   0.341885 0.497634 0.224036 -0.560690
C82   C     C_3   0.393255 0.565391 0.225119 0.078199
H80   H     H_    0.420401 0.444413 0.236425 0.149741
H81   H     H_    0.405520 0.674961 0.258379 0.094785
C83   C     C_3   0.398687 0.638822 0.166527 -0.320912
H82   H     H_    0.385814 0.527526 0.134167 0.208049
H83   H     H_    0.373279 0.764741 0.155278 0.186027
C84   C     C_3   0.455294 0.692995 0.165474 -0.831174
H84   H     H_    0.469509 0.800420 0.198542 0.230521
H85   H     H_    0.457685 0.752831 0.123325 0.235839
H86   H     H_    0.481004 0.566679 0.173095 0.234675

loop_
_geom_bond_atom_site_label_1
_geom_bond_atom_site_label_2
_ccdc_geom_bond_type
C66   H44   S    
C32   H24   S    
C82   H80   S    
C61   H31   S    
O17   V3    S    
C17   C19   S    
O25   C73   S    
O23   C67   S    
O1    C3    A    
C65   C66   S    
O12   V3    S    
C34   C44   S    
C1    C50   S    
C2    O7    A    
O8    V2    S    
C15   C17   S    
C8    H8    S    
C76   H66   S    
C29   C39   A    
O5    C3    A    
C64   H39   S    
C47   O25   S    
C72   H56   S    
C10   H10   S    
C37   O23   S    
C7    C9    S    
C65   H41   S    
C71   H54   S    
O13   C57   A    
C83   H83   S    
C82   H81   S    
C9    H11   S    
C73   H59   S    
O2    C4    A    
N2    C44   A    
C66   H42   S    
C84   H86   S    
C15   F1    S    
C77   H68   S    
C33   C35   A    
C5    C15   S    
C68   C69   S    
C29   H21   S    
C6    C16   S    
C78   H72   S    
C30   H22   S    
C3    C28   S    
C7    C13   S    
C51   H27   S    
O11   C59   A    
C6    H18   S    
C75   H65   S    
C42   C56   S    
C20   C22   S    
C63   H35   S    
C31   H23   S    
C50   C52   A    
C10   C18   S    
C26   C28   T    
C68   H47   S    
C70   H53   S    
C54   C56   A    
C57   O18   A    
C45   H25   S    
C7    H5    S    
C69   H50   S    
C22   H14   S    
C33   C43   S    
C19   H19   S    
C62   C63   S    
O6    V2    S    
C16   C18   S    
C11   C23   T    
C72   H57   S    
C45   C47   A    
C37   C39   A    
C30   C40   A    
C39   C60   S    
C18   C20   S    
C12   C57   S    
C16   F2    S    
C41   N5    A    
C21   O27   S    
C46   C48   A    
C71   H55   S    
C74   H62   S    
C53   C55   A    
C10   H12   S    
C82   C83   S    
C41   C55   S    
C70   C71   S    
C14   C22   S    
O28   C82   S    
C38   O24   S    
N7    C43   A    
O27   C79   S    
C79   C80   S    
O12   C60   A    
C67   C68   S    
C65   H40   S    
C46   C56   A    
C69   H51   S    
C36   C38   A    
C76   H67   S    
C35   C37   A    
C30   C32   A    
C83   H82   S    
C18   C24   S    
C8    H6    S    
C61   C62   S    
C25   C27   T    
C74   H61   S    
C34   C36   A    
C79   H74   S    
O24   C70   S    
O4    V2    S    
C48   C50   A    
C71   C72   S    
C8    C14   S    
C20   H16   S    
C46   H26   S    
C70   H52   S    
O16   C60   A    
C22   O28   S    
O6    C4    A    
C6    H4    S    
C9    H9    S    
C81   H79   S    
C84   H84   S    
C17   C23   S    
N1    N3    A    
O1    V2    S    
C48   O26   S    
C67   H45   S    
C54   H30   S    
O2    V1    S    
C19   C21   S    
C69   H49   S    
C13   C25   S    
C81   H77   S    
O19   V3    S    
C38   C40   A    
C63   H36   S    
O15   C59   A    
N4    C42   A    
C75   H63   S    
N5    N7    A    
C8    C10   S    
C72   H58   S    
C52   H28   S    
O21   C61   S    
C9    C17   S    
O4    C2    A    
C5    C13   S    
C13   C21   S    
C7    H7    S    
N2    N4    A    
C4    C27   S    
O3    V1    S    
O26   C76   S    
O20   V4    S    
N3    C41   A    
C62   H33   S    
O18   V4    S    
O19   V4    S    
C19   H15   S    
C66   H43   S    
C84   H85   S    
C61   H32   S    
C76   C77   S    
O10   V1    S    
C35   O21   S    
C67   H46   S    
O22   C64   S    
O3    C1    A    
C74   C75   S    
C49   C51   A    
C14   C26   S    
C64   H38   S    
C32   C34   A    
C42   N6    A    
C40   C59   S    
C77   C78   S    
C5    H3    S    
C79   H73   S    
C80   C81   S    
O7    V1    S    
C78   H70   S    
C52   C54   A    
O14   V4    S    
C83   C84   S    
O13   V3    S    
C47   C49   A    
C73   H60   S    
C20   H20   S    
C63   H37   S    
C31   C33   A    
C64   C65   S    
O5    V1    S    
H2    C16   S    
C77   H69   S    
C12   C24   T    
N8    C44   A    
C68   H48   S    
C6    C14   S    
O14   C58   A    
C78   H71   S    
C36   O22   S    
C21   H13   S    
C80   H75   S    
O16   V4    S    
C29   C31   A    
C1    O8    A    
O15   V3    S    
N1    C43   A    
C53   H29   S    
C2    C49   S    
O9    V2    S    
C45   C55   A    
O20   V3    S    
N6    N8    A    
C81   H78   S    
O11   V4    S    
C80   H76   S    
H1    C15   S    
C58   O17   A    
C51   C53   A    
C11   C58   S    
C5    H17   S    
C75   H64   S    
C62   H34   S    
C73   C74   S    
