data_mof_unit_33266.cif
_audit_creation_date              2012-12-10T19:00:47-0500
_audit_creation_method            fapswitch 2.2
_symmetry_space_group_name_H-M    P1
_symmetry_Int_Tables_number       1
_space_group_crystal_system       triclinic
_cell_length_a                    14.992133
_cell_length_b                    10.864359
_cell_length_c                    9.563349
_cell_angle_alpha                 90.280762
_cell_angle_beta                  89.78578
_cell_angle_gamma                 89.928764
_cell_volume                      1557.6466446

loop_
_atom_site_label
_atom_site_type_symbol
_atom_type_description
_atom_site_fract_x
_atom_site_fract_y
_atom_site_fract_z
_atom_type_partial_charge
C1    C     C_R   0.500221 0.262574 0.499063 0.814387
C2    C     C_R   0.905159 0.624964 0.486104 0.106833
C3    C     C_R   0.954323 0.287698 0.535302 0.167135
C4    C     C_R   0.047454 0.290954 0.535922 -0.243070
C5    C     C_R   0.093390 0.401705 0.519868 0.077182
C6    C     C_R   0.046819 0.513399 0.503262 0.028573
C7    C     C_R   0.094388 0.625479 0.486916 0.104283
C8    C     C_R   0.045896 0.735707 0.476157 -0.226637
C9    C     C_R   0.953481 0.735414 0.475568 -0.226511
C10   C     C_R   0.185938 0.401292 0.519881 -0.272943
C11   C     C_R   0.233047 0.510019 0.500480 -0.076832
C12   C     C_R   0.329216 0.501814 0.500217 0.814430
C13   C     C_R   0.188985 0.623822 0.482386 0.095164
C14   C     C_R   0.501163 0.062349 0.618271 0.071506
C15   C     C_R   0.500590 0.129431 0.495011 -0.117593
C16   C     C_R   0.500009 0.061634 0.366931 0.140130
C17   C     C_R   0.500024 0.932407 0.370040 -0.290118
C18   C     C_R   0.500326 0.869105 0.498110 -0.117673
C19   C     C_R   0.500880 0.938516 0.619696 0.124281
C20   C     C_3   0.500522 0.930792 0.775007 -0.469910
C21   C     C_3   0.500894 0.072509 0.773869 -0.450954
C22   C     C_R   0.551682 0.420250 0.071581 0.313354
C23   C     C_R   0.500042 0.736981 0.500100 0.816563
C24   C     C_R   0.444755 0.577105 0.075198 -0.093894
C25   C     C_R   0.445543 0.578152 0.926316 -0.070235
C26   C     C_R   0.547415 0.415272 0.925139 0.181892
C27   C     C_3   0.643840 0.386294 0.908821 -0.497740
C28   C     C_3   0.652195 0.400888 0.067187 0.214551
C29   C     C_R   0.670673 0.502662 0.499895 0.807158
C30   C     C_R   0.810798 0.623731 0.481008 0.103383
C31   C     C_R   0.766751 0.510460 0.499814 -0.105163
C32   C     C_R   0.813324 0.401509 0.519967 -0.318432
C33   C     C_R   0.906357 0.399555 0.519255 0.087721
C34   C     C_R   0.952677 0.512642 0.502915 -0.005868
Cu1   Cu    Cu3+1 0.500000 0.499980 0.640670 0.931943
Cu2   Cu    Cu3+1 0.500000 0.500020 0.359330 0.934813
H1    H     H_    0.499554 0.882544 0.271609 0.167047
H2    H     H_    0.437588 0.890689 0.816275 0.190623
H3    H     H_    0.563025 0.889725 0.816237 0.199894
H4    H     H_    0.438305 0.114272 0.815022 0.200775
H5    H     H_    0.563615 0.112952 0.814840 0.196464
H6    H     H_    0.401226 0.639598 0.131570 0.138642
H7    H     H_    0.402932 0.641855 0.871193 0.133025
H8    H     H_    0.654578 0.290816 0.870054 0.176035
H9    H     H_    0.681002 0.456546 0.848582 0.218482
H10   H     H_    0.775012 0.318240 0.534568 0.151820
H11   H     H_    0.084685 0.205955 0.547670 0.139051
H12   H     H_    0.222053 0.315480 0.533369 0.135902
H13   H     H_    0.078005 0.824359 0.469147 0.155955
H14   H     H_    0.921185 0.823912 0.467926 0.159920
N1    N     N_R   0.500570 0.500930 0.147930 -0.204316
N2    N     N_R   0.500570 0.500890 0.852020 -0.185438
O1    O     O_R   0.500000 0.319640 0.618810 -0.583794
O2    O     O_R   0.500010 0.319680 0.381230 -0.544181
O3    O     O_R   0.370250 0.499950 0.618800 -0.576420
O4    O     O_R   0.370260 0.499990 0.381220 -0.585874
O5    O     O_R   0.499990 0.680320 0.618770 -0.581715
O6    O     O_R   0.500000 0.680360 0.381190 -0.609587
O7    O     O_R   0.629740 0.500010 0.618780 -0.582654
O8    O     O_R   0.629750 0.500050 0.381200 -0.600427
C35   C     C_3   0.756798 0.740874 0.456140 -0.417838
C36   C     C_3   0.740999 0.811626 0.592377 -0.845048
H15   H     H_    0.701139 0.754947 0.666015 0.260713
H16   H     H_    0.805171 0.836445 0.642565 0.251159
H17   H     H_    0.703575 0.897595 0.570328 0.244044
H18   H     H_    0.789564 0.800387 0.377360 0.189274
H19   H     H_    0.691066 0.720450 0.408971 0.211420
N3    N     N_3   0.677372 0.284563 0.132923 -0.614243
H20   H     H_    0.744332 0.266165 0.109704 0.209125
H21   H     H_    0.672471 0.295026 0.241395 0.238545
C37   C     C_3   0.717428 0.508275 0.104038 -0.350386
C38   C     C_3   0.680432 0.638302 0.082907 -0.834434
H22   H     H_    0.735144 0.706134 0.095993 0.226966
H23   H     H_    0.652389 0.648966 0.976406 0.246025
H24   H     H_    0.628545 0.659977 0.162050 0.275471
H25   H     H_    0.743070 0.499425 0.211494 0.219910
H26   H     H_    0.778105 0.498518 0.037597 0.187472
C39   C     C_3   0.909298 0.163302 0.551085 -0.404639
C40   C     C_3   0.874973 0.115206 0.410845 -0.852519
H27   H     H_    0.839697 0.026645 0.426926 0.241889
H28   H     H_    0.827825 0.181005 0.362305 0.250009
H29   H     H_    0.931767 0.099398 0.337992 0.252651
H30   H     H_    0.956950 0.094091 0.592616 0.194175
H31   H     H_    0.854425 0.168263 0.629176 0.193213
C41   C     C_3   0.243171 0.740878 0.458668 -0.417173
C42   C     C_3   0.258968 0.809823 0.595814 -0.845236
H32   H     H_    0.194705 0.834487 0.646746 0.249689
H33   H     H_    0.298552 0.751942 0.668240 0.253954
H34   H     H_    0.296700 0.895706 0.574844 0.243114
H35   H     H_    0.308859 0.720483 0.410320 0.203674
H36   H     H_    0.210556 0.801766 0.381383 0.191117
N4    N     N_3   0.498872 0.121637 0.233772 -0.553515
H37   H     H_    0.554169 0.091271 0.176213 0.230198
H38   H     H_    0.441534 0.093628 0.180514 0.210289

loop_
_geom_bond_atom_site_label_1
_geom_bond_atom_site_label_2
_ccdc_geom_bond_type
C23   O6    A    
Cu1   O1    S    
C24   H6    S    
C19   C20   S    
C25   H7    S    
C41   H36   S    
C7    C8    A    
C41   C42   S    
C26   C27   S    
C14   C21   S    
C28   N3    S    
Cu2   O6    S    
C5    C6    A    
C42   H33   S    
C16   C17   A    
C3    C33   A    
C15   C16   A    
Cu1   O7    S    
C18   C19   A    
C1    O1    A    
C36   H16   S    
N3    H20   S    
C35   H18   S    
C29   O7    A    
C8    C9    A    
C1    C15   S    
C27   H9    S    
C24   N1    A    
C22   C28   S    
C38   H24   S    
C39   H30   S    
C17   C18   A    
Cu1   O3    S    
C18   C23   S    
C24   C25   A    
C38   H23   S    
C40   H28   S    
C20   H3    S    
C42   H32   S    
C4    C5    A    
C6    C34   A    
Cu1   Cu2   S    
C2    C9    A    
C1    O2    A    
C36   H15   S    
Cu2   O4    S    
C26   N2    A    
C20   H2    S    
C35   H19   S    
C31   C32   A    
C29   O8    A    
C11   C12   S    
N4    H38   S    
C33   C34   A    
C17   H1    S    
C12   O4    A    
Cu2   N1    S    
C21   H5    S    
C16   N4    S    
C10   H12   S    
C28   C37   S    
C3    C4    A    
C37   H25   S    
C37   H26   S    
C23   O5    A    
C36   H17   S    
C39   C40   S    
C32   H10   S    
C14   C19   A    
C9    H14   S    
C38   H22   S    
Cu2   O8    S    
C42   H34   S    
C40   H29   S    
C41   H35   S    
C6    C7    A    
C2    C30   A    
Cu1   O5    S    
C32   C33   A    
C25   N2    A    
C5    C10   A    
C29   C31   S    
C11   C13   A    
C2    C34   A    
C30   C31   A    
C21   H4    S    
N4    H37   S    
C35   C36   S    
C12   O3    A    
Cu2   O2    S    
C10   C11   A    
C40   H27   S    
C39   H31   S    
C7    C13   A    
C37   C38   S    
C20   C21   S    
N3    H21   S    
C22   C26   A    
C30   C35   S    
C13   C41   S    
Cu1   N2    S    
C14   C15   A    
C27   H8    S    
C3    C39   S    
C8    H13   S    
C22   N1    A    
C27   C28   S    
C4    H11   S    
