data_mof_unit_18028.cif
_audit_creation_date              2012-12-11T14:35:56-0500
_audit_creation_method            fapswitch 2.2
_symmetry_space_group_name_H-M    P1
_symmetry_Int_Tables_number       1
_space_group_crystal_system       triclinic
_cell_length_a                    13.521333
_cell_length_b                    13.517762
_cell_length_c                    27.492691
_cell_angle_alpha                 90.273546
_cell_angle_beta                  89.735435
_cell_angle_gamma                 59.923721
_cell_volume                      4348.29157451

loop_
_atom_site_label
_atom_site_type_symbol
_atom_type_description
_atom_site_fract_x
_atom_site_fract_y
_atom_site_fract_z
_atom_type_partial_charge
Br1   Br    Br    0.277006 0.296253 0.719327 -0.357464
Br2   Br    Br    0.422046 0.314601 0.816162 -0.452250
Br3   Br    Br    0.927538 0.581125 0.709043 -0.408622
Br4   Br    Br    0.978501 0.664479 0.199569 -0.567159
Br5   Br    Br    0.164001 0.481150 0.317953 -0.450435
Br6   Br    Br    0.812717 0.964720 0.115206 -0.401058
Br7   Br    Br    0.900333 0.295545 0.691474 -0.545630
Br8   Br    Br    0.274181 0.901204 0.724709 -0.453010
C1    C     C_R   0.620332 0.101782 0.570052 0.552047
C2    C     C_1   0.653903 0.691676 0.656270 0.041980
C3    C     C_2   0.838505 0.687467 0.388234 0.276530
C4    C     C_2   0.375834 0.684933 0.301239 0.190660
C5    C     C_2   0.123545 0.012080 0.128831 0.250959
C6    C     C_2   0.490355 0.341394 0.398079 0.277057
C7    C     C_2   0.941827 0.885692 0.299806 0.195664
C8    C     C_3   0.036077 0.223536 0.731240 0.130344
C9    C     C_R   0.599965 0.778438 0.568422 0.561893
C10   C     C_3   0.072426 0.123509 0.767540 -0.104012
C11   C     C_1   0.080529 0.210960 0.898792 0.020384
C12   C     C_1   0.220632 0.140044 0.615226 0.077817
C13   C     C_3   0.076343 0.285039 0.766920 -0.082227
C14   C     C_3   0.115034 0.184106 0.802566 -0.063221
C15   C     C_3   0.196279 0.221371 0.743035 0.150056
C16   C     C_3   0.155243 0.160897 0.707886 0.053825
C17   C     C_1   0.633821 0.724682 0.614934 0.051330
C18   C     C_3   0.234187 0.121770 0.778867 0.045449
C19   C     C_3   0.192994 0.061217 0.743583 0.175333
C20   C     C_1   0.097897 0.196565 0.855553 -0.022766
C21   C     C_R   0.276344 0.122154 0.569089 0.558429
C22   C     C_1   0.185329 0.150111 0.656208 0.096858
C23   C     C_3   0.601882 0.293556 0.739585 -0.067581
C24   C     C_3   0.564336 0.238490 0.779584 0.194807
C25   C     C_1   0.699241 0.212686 0.901170 0.034634
C26   C     C_1   0.637509 0.137824 0.617115 0.055652
C27   C     C_3   0.716647 0.251911 0.766636 -0.120356
C28   C     C_3   0.751151 0.543964 0.766588 -0.099530
C29   C     C_3   0.677950 0.196888 0.805567 0.019911
C30   C     C_3   0.771443 0.137794 0.737291 -0.112300
C31   C     C_3   0.657035 0.179232 0.710918 0.046346
C32   C     C_3   0.732863 0.083341 0.777208 -0.165700
C33   C     C_R   0.623320 0.101076 0.431757 0.519845
C34   C     C_3   0.618688 0.125501 0.750641 0.047019
C35   C     C_1   0.687864 0.204696 0.858226 0.007561
C36   C     C_1   0.647536 0.160986 0.658664 0.048944
C37   C     C_R   0.741704 0.696330 0.359318 -0.009889
C38   C     C_R   0.749044 0.686099 0.307990 -0.042976
C39   C     C_3   0.684890 0.641544 0.803763 0.019897
C40   C     C_R   0.759563 0.670368 0.205409 0.036438
C41   C     C_R   0.848625 0.670477 0.231379 0.149330
C42   C     C_R   0.843535 0.676983 0.281981 -0.106473
C43   C     C_R   0.768397 0.649576 0.155173 -0.087469
C44   C     C_R   0.681601 0.642534 0.130782 -0.010906
C45   C     C_R   0.602695 0.775356 0.430333 0.561900
C46   C     C_R   0.556497 0.706617 0.356479 -0.117774
C47   C     C_R   0.563406 0.692081 0.306333 0.025435
C48   C     C_R   0.658134 0.687466 0.281749 0.024864
C49   C     C_R   0.473807 0.691250 0.279594 0.002411
C50   C     C_3   0.639638 0.586585 0.736850 -0.108668
C51   C     C_R   0.477067 0.693853 0.229043 -0.158891
C52   C     C_R   0.570855 0.687192 0.204745 0.005106
C53   C     C_R   0.662569 0.682623 0.230705 0.034319
C54   C     C_R   0.578526 0.673599 0.154683 -0.122971
C55   C     C_R   0.639480 0.716934 0.382683 -0.000071
C56   C     C_R   0.208020 0.060903 0.359841 -0.118951
C57   C     C_R   0.277350 0.121409 0.431297 0.545184
C58   C     C_R   0.183216 0.072898 0.310273 0.020129
C59   C     C_R   0.149085 0.089909 0.208722 0.030905
C60   C     C_R   0.164747 0.992744 0.234305 -0.111825
C61   C     C_3   0.669160 0.666260 0.708317 0.038254
C62   C     C_R   0.180138 0.985369 0.284458 -0.123386
C63   C     C_R   0.127668 0.102759 0.158009 -0.005523
C64   C     C_R   0.109512 0.204698 0.135031 -0.034832
C65   C     C_R   0.190954 0.248383 0.361371 -0.083921
C66   C     C_R   0.171310 0.259952 0.311530 0.017612
C67   C     C_R   0.168655 0.170606 0.285622 0.032739
C68   C     C_R   0.161455 0.355147 0.286446 0.163412
C69   C     C_3   0.779587 0.624233 0.737248 0.174507
C70   C     C_R   0.151662 0.359220 0.236173 -0.086650
C71   C     C_R   0.146057 0.272778 0.210514 -0.027178
C72   C     C_3   0.573840 0.683454 0.774804 -0.084539
C73   C     C_R   0.153892 0.177937 0.234927 0.036524
C74   C     C_R   0.127474 0.283554 0.160920 -0.131300
C75   C     C_R   0.217541 0.146111 0.384831 -0.017213
C76   C     C_R   0.574133 0.248564 0.365647 -0.010989
C77   C     C_R   0.582056 0.265519 0.315204 0.022255
C78   C     C_R   0.591291 0.290363 0.213653 0.005452
C79   C     C_R   0.513423 0.382516 0.242309 -0.118952
C80   C     C_R   0.507839 0.369934 0.292301 -0.074521
C81   C     C_3   0.714083 0.720119 0.774849 0.038458
C82   C     C_R   0.599735 0.303591 0.163769 -0.158963
C83   C     C_3   0.603113 0.763425 0.745568 -0.110093
C84   C     C_R   0.678152 0.210693 0.135222 0.003588
C85   C     C_R   0.739259 0.056651 0.357563 -0.101960
C86   C     C_R   0.749999 0.072179 0.308306 0.022518
C87   C     C_R   0.666340 0.174352 0.286455 0.026124
C88   C     C_R   0.837255 0.984256 0.279502 -0.003675
C89   C     C_R   0.828383 0.991739 0.229006 -0.105919
C90   C     C_R   0.743516 0.090902 0.206662 0.018293
C91   C     C_R   0.667156 0.185309 0.235610 0.027318
C92   C     C_R   0.739133 0.100840 0.155930 0.175660
C93   C     C_1   0.699454 0.603126 0.899182 0.036839
C94   C     C_1   0.692113 0.624869 0.856488 0.029649
C95   C     C_R   0.648464 0.139736 0.385551 -0.049314
C96   C     C_R   0.045670 0.238412 0.948757 0.542082
C97   C     C_R   0.711965 0.562254 0.947976 0.546611
C98   C     C_R   0.723559 0.226366 0.950465 0.551712
C99   C     C_R   0.049310 0.243705 0.088245 0.532093
C100  C     C_R   0.706734 0.576672 0.085658 0.549359
C101  C     C_R   0.717481 0.232841 0.088851 0.569958
C102  C     C_2   0.757605 0.794447 0.794190 0.256887
C103  C     C_2   0.341095 0.068187 0.808318 0.269491
C104  C     C_2   0.564735 0.053536 0.743538 0.243172
Cr1   Cr    Cr6+3 0.417550 0.169090 0.500530 1.100830
Cr2   Cr    Cr6+3 0.669180 0.913420 0.499920 1.107097
Cr3   Cr    Cr6+3 0.413260 0.917540 0.499520 1.076645
Cr4   Cr    Cr6+3 0.909170 0.177380 0.020380 1.099729
Cr5   Cr    Cr6+3 0.912710 0.429210 0.018220 1.073880
Cr6   Cr    Cr6+3 0.657170 0.432570 0.019030 1.052649
H1    H     H_    0.028758 0.376666 0.777584 0.185439
H2    H     H_    0.479397 0.723426 0.375029 0.207177
H3    H     H_    0.227626 0.982153 0.378005 0.152557
H4    H     H_    0.166276 0.920900 0.216257 0.165019
H5    H     H_    0.540838 0.852940 0.736011 0.204748
H6    H     H_    0.190684 0.910468 0.303145 0.149022
H7    H     H_    0.117101 0.359793 0.143301 0.164352
H8    H     H_    0.147544 0.430899 0.217058 0.188989
H9    H     H_    0.195885 0.314813 0.381367 0.216491
H10   H     H_    0.550250 0.387647 0.147824 0.138723
H11   H     H_    0.455866 0.464322 0.225992 0.123878
H12   H     H_    0.547679 0.379586 0.723803 0.151489
H13   H     H_    0.444744 0.443074 0.312411 0.230539
H14   H     H_    0.488897 0.708303 0.790777 0.199619
H15   H     H_    0.893979 0.922892 0.207340 0.207781
H16   H     H_    0.794704 0.973831 0.373158 0.191073
H17   H     H_    0.609433 0.531204 0.720631 0.150500
H18   H     H_    0.812385 0.454390 0.776655 0.142309
H19   H     H_    0.020764 0.084027 0.778214 0.149276
H20   H     H_    0.784685 0.837383 0.768818 0.111917
H21   H     H_    0.366199 0.121983 0.827725 0.150166
H22   H     H_    0.553273 0.011588 0.774634 0.132302
H23   H     H_    0.787809 0.998809 0.793965 0.148409
H24   H     H_    0.884738 0.729606 0.376592 0.126597
H25   H     H_    0.299780 0.710624 0.279678 0.126460
H26   H     H_    0.169408 0.984913 0.094411 0.112178
H27   H     H_    0.517951 0.355381 0.433169 0.115329
H28   H     H_    0.989174 0.808014 0.278457 0.167129
H29   H     H_    0.856956 0.095909 0.719535 0.172850
H30   H     H_    0.756813 0.304063 0.775042 0.146919
H31   H     H_    0.846407 0.628159 0.135716 0.192079
H32   H     H_    0.914739 0.675091 0.300331 0.159106
H33   H     H_    0.509312 0.672340 0.135409 0.139889
H34   H     H_    0.408771 0.694218 0.208277 0.096290
O1    O     O_R   0.301710 0.195650 0.554160 -0.475522
O2    O     O_R   0.635520 0.542770 0.964420 -0.500716
O3    O     O_R   0.665950 0.325030 0.970100 -0.492346
O4    O     O_R   0.522390 0.158990 0.550460 -0.488375
O5    O     O_R   0.816620 0.158530 0.074540 -0.436794
O6    O     O_R   0.004460 0.188870 0.069750 -0.491706
O7    O     O_R   0.025800 0.341780 0.072300 -0.507536
O8    O     O_R   0.807650 0.528950 0.067500 -0.493394
O9    O     O_R   0.633420 0.550490 0.071810 -0.519424
O10   O     O_R   0.664000 0.332180 0.069640 -0.511288
O11   O     O_3   0.826350 0.346390 0.019210 -0.273255
O12   O     O_R   0.658900 0.818120 0.449760 -0.468618
O13   O     O_R   0.694390 0.003530 0.554040 -0.491149
O14   O     O_R   0.657700 0.819660 0.549320 -0.474646
O15   O     O_R   0.501930 0.803280 0.552920 -0.492134
O16   O     O_R   0.318170 0.023580 0.549580 -0.492568
O17   O     O_R   0.303010 0.193990 0.446760 -0.492741
O18   O     O_R   0.523600 0.157450 0.450900 -0.494430
O19   O     O_R   0.695690 0.001860 0.446640 -0.513655
O20   O     O_2   0.763894 0.806111 0.837888 -0.478106
O21   O     O_2   0.398627 0.964511 0.811722 -0.496886
O22   O     O_2   0.534948 0.040728 0.703301 -0.497138
O23   O     O_R   0.503220 0.801620 0.445520 -0.523003
O24   O     O_2   0.867829 0.631678 0.425564 -0.451313
O25   O     O_2   0.380177 0.644995 0.341387 -0.486758
O26   O     O_2   0.063832 0.972441 0.141358 -0.470902
O27   O     O_2   0.389463 0.397370 0.387567 -0.434865
O28   O     O_2   0.980957 0.892455 0.338797 -0.496116
O29   O     O_R   0.319370 0.022040 0.450020 -0.503497
O30   O     O_3   0.499990 0.000010 0.499990 -0.276462
O31   O     O_R   0.818720 0.150820 0.967160 -0.491334
O32   O     O_R   0.006410 0.181720 0.970200 -0.500148
O33   O     O_R   0.027890 0.334070 0.964920 -0.493172
O34   O     O_R   0.809600 0.521790 0.967960 -0.486133

loop_
_geom_bond_atom_site_label_1
_geom_bond_atom_site_label_2
_ccdc_geom_bond_type
C104  O22   D    
C79   C80   A    
C98   O3    A    
Cr6   O9    S    
C93   C94   T    
C72   H14   S    
C46   H2    S    
Cr5   O7    S    
C77   C87   A    
C65   C66   A    
C104  H22   S    
Cr4   O11   S    
C61   C69   S    
C16   C19   S    
C89   H15   S    
C47   C48   A    
C101  O5    A    
C85   C95   A    
C89   C90   A    
C103  H21   S    
C56   C75   A    
C12   C22   T    
C51   H34   S    
Cr5   O11   S    
C96   O33   A    
C33   O19   A    
C6    H27   S    
C69   C81   S    
C18   C19   S    
C85   C86   A    
C66   C68   A    
C45   O12   A    
C21   O16   A    
Br2   C24   S    
C27   C29   S    
C68   C70   A    
C29   C32   S    
C28   C50   S    
Cr5   O34   S    
Cr5   O33   S    
C30   C31   S    
C87   C91   A    
C84   C101  S    
C49   C51   A    
C46   C55   A    
C56   H3    S    
Cr4   O31   S    
Cr4   O32   S    
C28   C39   S    
C52   C54   A    
C15   C18   S    
C41   C42   A    
C34   C104  S    
Cr3   O23   S    
Cr2   O12   S    
C40   C43   A    
Cr1   O30   S    
C1    O4    A    
C15   C16   S    
Cr6   O2    S    
C78   C82   A    
C6    C76   S    
C81   C83   S    
C6    O27   D    
C50   C72   S    
C32   C34   S    
C4    O25   D    
C61   C83   S    
C51   C52   A    
C8    C16   S    
C39   C94   S    
C14   C20   S    
C13   C14   S    
Cr5   O8    S    
C39   C81   S    
C39   C72   S    
C28   H18   S    
C99   O6    A    
Cr3   O29   S    
Cr2   O14   S    
C31   C34   S    
C12   C21   S    
C93   C97   S    
Cr2   O19   S    
C98   O31   A    
C99   O7    A    
Cr6   O11   S    
C54   H33   S    
C25   C98   S    
C43   C44   A    
C25   C35   T    
C102  H20   S    
C27   C30   S    
C26   C36   T    
C76   C77   A    
C85   H16   S    
C66   C67   A    
C60   H4    S    
C7    C88   S    
C71   C73   A    
C84   C92   A    
C70   C71   A    
C67   C73   A    
C57   O29   A    
C5    C63   S    
Cr2   O30   S    
C81   C102  S    
C37   C55   A    
C59   C60   A    
C57   O17   A    
C52   C53   A    
C57   C75   S    
Br6   C92   S    
C97   O34   A    
C29   C35   S    
C10   H19   S    
C74   H7    S    
Cr4   O6    S    
C11   C20   T    
C32   H23   S    
C7    H28   S    
C11   C96   S    
C42   H32   S    
C82   C84   A    
C23   C24   S    
C5    H26   S    
C64   C99   S    
C88   C89   A    
C3    O24   D    
Cr6   O3    S    
C50   C61   S    
C24   C29   S    
C102  O20   D    
C86   C88   A    
C78   C91   A    
C43   H31   S    
C31   C36   S    
C78   C79   A    
C4    C49   S    
C2    C17   T    
C8    C10   S    
Br7   C8    S    
C96   O32   A    
C103  O21   D    
Br1   C15   S    
C90   C92   A    
C47   C49   A    
C62   H6    S    
C9    O15   A    
C1    C26   S    
C23   C27   S    
C37   C38   A    
C9    O14   A    
Cr1   O4    S    
Cr3   O15   S    
C70   H8    S    
Cr3   O30   S    
C45   O23   A    
Cr2   O13   S    
C21   O1    A    
C33   O18   A    
C77   C80   A    
Br8   C19   S    
C46   C47   A    
Cr6   O10   S    
C82   H10   S    
C10   C14   S    
C10   C19   S    
Cr1   O1    S    
C71   C74   A    
Cr1   O17   S    
C8    C13   S    
C59   C73   A    
Cr1   O18   S    
C100  O8    A    
C50   H17   S    
C23   H12   S    
C100  O9    A    
C38   C42   A    
C4    H25   S    
Br4   C41   S    
C101  O10   A    
C9    C17   S    
C79   H11   S    
C72   C83   S    
C13   C15   S    
C63   C64   A    
C13   H1    S    
C65   H9    S    
C30   C32   S    
C45   C55   S    
C40   C53   A    
C58   C62   A    
Br5   C68   S    
C40   C41   A    
C58   C67   A    
C28   C69   S    
C1    O13   A    
C23   C31   S    
C97   O2    A    
C59   C63   A    
C27   H30   S    
C86   C87   A    
C3    H24   S    
C16   C22   S    
C30   H29   S    
C3    C37   S    
C2    C61   S    
C33   C95   S    
Cr4   O5    S    
C44   C100  S    
C60   C62   A    
C90   C91   A    
C14   C18   S    
C38   C48   A    
C44   C54   A    
C76   C95   A    
C24   C34   S    
C48   C53   A    
C83   H5    S    
C80   H13   S    
Cr3   O16   S    
C7    O28   D    
C18   C103  S    
C65   C75   A    
C64   C74   A    
C5    O26   D    
C56   C58   A    
Br3   C69   S    
