data_mof_unit_25864.cif
_audit_creation_date              2012-12-11T17:07:29-0500
_audit_creation_method            fapswitch 2.2
_symmetry_space_group_name_H-M    P1
_symmetry_Int_Tables_number       1
_space_group_crystal_system       triclinic
_cell_length_a                    6.984322
_cell_length_b                    14.782555
_cell_length_c                    16.028504
_cell_angle_alpha                 90.292475
_cell_angle_beta                  91.135108
_cell_angle_gamma                 90.647842
_cell_volume                      1654.42689607

loop_
_atom_site_label
_atom_site_type_symbol
_atom_type_description
_atom_site_fract_x
_atom_site_fract_y
_atom_site_fract_z
_atom_type_partial_charge
O1    O     O_R   0.505720 0.583900 0.413310 -0.536018
O2    O     O_R   0.175940 0.594920 0.586080 -0.552457
O3    O     O_R   0.005640 0.416100 0.586690 -0.538488
C1    C     C_R   0.347707 0.621663 0.610843 0.694745
O4    O     O_R   0.176000 0.594930 0.413930 -0.543485
O5    O     O_R   0.005700 0.416110 0.413310 -0.536295
C2    C     C_R   0.344439 0.616846 0.385054 0.687225
O6    O     O_R   0.505660 0.583890 0.586690 -0.536731
O7    O     O_3   0.339200 0.441330 0.500000 -0.369618
V1    V     V_3+5 0.064350 0.510880 0.500000 1.362164
O8    O     O_R   0.675980 0.405080 0.413920 -0.549613
C3    C     C_R   0.842869 0.386865 0.382006 0.682190
O9    O     O_R   0.675920 0.405070 0.586070 -0.538326
C4    C     C_R   0.844485 0.383372 0.616551 0.707317
V2    V     V_3+5 0.564340 0.489120 0.500000 1.381002
O10   O     O_3   0.839360 0.558670 0.500000 -0.377916
H1    H     H_    0.593246 0.080016 0.523997 0.120517
C5    C     C_R   0.870905 0.429667 0.808590 0.148384
C6    C     C_R   0.936334 0.450838 0.889934 -0.123878
C7    C     C_R   0.004145 0.384615 0.942157 -0.179612
C8    C     C_R   0.994335 0.295709 0.916256 -0.145981
C9    C     C_R   0.925579 0.271664 0.835003 0.049869
C10   C     C_R   0.885550 0.340100 0.774871 0.042953
C11   C     C_R   0.876085 0.181452 0.817128 -0.157482
C12   C     C_R   0.793278 0.158563 0.739034 0.053238
C13   C     C_R   0.805690 0.220170 0.670928 0.024424
C14   C     C_R   0.851535 0.314267 0.687577 -0.191540
C15   C     C_R   0.699416 0.073921 0.727384 -0.157237
C16   C     C_R   0.613988 0.050942 0.651838 -0.182358
C17   C     C_R   0.644370 0.105065 0.583538 -0.099799
C18   C     C_R   0.760046 0.183457 0.590050 0.144990
H2    H     H_    0.935436 0.519832 0.913117 0.123301
H3    H     H_    0.054615 0.401658 0.004670 0.122349
H4    H     H_    0.033803 0.246520 0.962809 0.124518
H5    H     H_    0.684401 0.025333 0.776709 0.116140
H6    H     H_    0.535350 0.987674 0.644872 0.124395
C19   C     C_R   0.726083 0.190604 0.233174 0.071001
C20   C     C_R   0.881621 0.189087 0.179686 -0.108598
C21   C     C_R   0.026404 0.254872 0.193426 -0.180242
H7    H     H_    0.148224 0.257669 0.152901 0.127507
C22   C     C_R   0.009777 0.320936 0.257061 -0.194117
H8    H     H_    0.120624 0.372370 0.263841 0.123668
C23   C     C_R   0.852826 0.320566 0.311565 -0.137753
C24   C     C_R   0.714668 0.252055 0.299280 0.097294
C25   C     C_3   0.503359 0.260779 0.287121 -0.052855
C26   C     C_3   0.518213 0.198021 0.211511 -0.366966
H9    H     H_    0.463024 0.331009 0.270152 0.105453
H10   H     H_    0.495291 0.233902 0.151376 0.140950
H11   H     H_    0.442063 0.132049 0.214062 0.179147
C27   C     C_R   0.523372 0.704216 0.728553 0.081772
C28   C     C_R   0.363328 0.696242 0.674621 -0.108716
C29   C     C_R   0.212415 0.756997 0.687439 -0.200971
H12   H     H_    0.093236 0.758410 0.643469 0.133687
C30   C     C_R   0.216857 0.818205 0.755601 -0.204213
H13   H     H_    0.102889 0.866690 0.761132 0.134275
C31   C     C_R   0.370004 0.818475 0.814332 -0.145629
C32   C     C_R   0.521085 0.760867 0.799257 0.143160
C33   C     C_3   0.720002 0.793937 0.792088 -0.040964
C34   C     C_3   0.714997 0.745859 0.708848 -0.473832
H14   H     H_    0.733738 0.868272 0.783730 0.111964
H15   H     H_    0.829647 0.698987 0.702099 0.183967
H16   H     H_    0.704774 0.793351 0.655239 0.153856
C35   C     C_R   0.505073 0.683897 0.258644 0.103501
C36   C     C_R   0.352202 0.682362 0.314261 -0.113330
C37   C     C_R   0.202462 0.743465 0.298010 -0.179122
H17   H     H_    0.080774 0.745116 0.338507 0.134335
C38   C     C_R   0.214152 0.807477 0.232849 -0.175502
H18   H     H_    0.100192 0.855820 0.225235 0.128312
C39   C     C_R   0.376374 0.813042 0.181684 -0.111092
C40   C     C_R   0.516998 0.747335 0.194447 0.103044
C41   C     C_3   0.727785 0.758511 0.206935 -0.413724
C42   C     C_3   0.714983 0.689208 0.276463 -0.398192
H19   H     H_    0.767457 0.827484 0.229675 0.167695
H20   H     H_    0.808610 0.734184 0.152300 0.176389
H21   H     H_    0.747961 0.717797 0.339469 0.171618
H22   H     H_    0.787878 0.624735 0.261841 0.167217
O11   O     O_R   0.229140 0.916090 0.913340 -0.547895
O12   O     O_R   0.558860 0.905090 0.086080 -0.540817
O13   O     O_R   0.729100 0.083920 0.086690 -0.534228
C43   C     C_R   0.390171 0.883118 0.114932 0.687914
O14   O     O_R   0.558860 0.905090 0.913930 -0.544339
O15   O     O_R   0.729100 0.083920 0.913310 -0.539679
C44   C     C_R   0.387300 0.885318 0.883706 0.690859
O16   O     O_R   0.229140 0.916080 0.086720 -0.537793
O17   O     O_3   0.395570 0.058660 0.000020 -0.367422
V3    V     V_3+5 0.670450 0.989140 0.000000 1.386446
O18   O     O_R   0.058810 0.094980 0.913910 -0.542532
C45   C     C_R   0.889366 0.113334 0.883870 0.692202
O19   O     O_R   0.058810 0.094980 0.086060 -0.547329
C46   C     C_R   0.890915 0.119448 0.112604 0.691011
V4    V     V_3+5 0.170450 0.010950 0.999970 1.387876
O20   O     O_3   0.895460 0.941370 0.999990 -0.376741
C47   C     C_3   0.392316 0.224292 0.362484 -0.270803
C48   C     C_3   0.398992 0.121705 0.375229 -0.790906
H23   H     H_    0.302541 0.086155 0.329675 0.221056
H24   H     H_    0.546700 0.096075 0.369749 0.230387
H25   H     H_    0.346526 0.105263 0.437979 0.210970
H26   H     H_    0.444679 0.258882 0.420156 0.183152
H27   H     H_    0.242100 0.244158 0.355437 0.187846
C49   C     C_3   0.857128 0.756799 0.861522 -0.286532
C50   C     C_3   0.763419 0.709553 0.935738 -0.750008
H28   H     H_    0.670615 0.756568 0.970107 0.239083
H29   H     H_    0.676975 0.649981 0.915003 0.205528
H30   H     H_    0.876772 0.685945 0.979770 0.196787
H31   H     H_    0.963353 0.710759 0.835629 0.179039
H32   H     H_    0.939980 0.814916 0.887481 0.204840
C51   C     C_3   0.796051 0.507028 0.760951 -0.436161
C52   C     C_3   0.964124 0.548183 0.717529 -0.668050
H33   H     H_    0.032785 0.602002 0.755612 0.190101
H34   H     H_    0.082116 0.499911 0.707320 0.228082
H35   H     H_    0.906224 0.572417 0.657352 0.255239
H36   H     H_    0.676653 0.486373 0.718524 0.188662
H37   H     H_    0.732266 0.558317 0.802392 0.186338
C53   C     C_3   0.853976 0.214316 0.511073 -0.359369
C54   C     C_3   0.947389 0.136147 0.464462 -0.779860
H38   H     H_    0.057930 0.104412 0.505111 0.233058
H39   H     H_    0.843091 0.083530 0.443495 0.215620
H40   H     H_    0.012525 0.162093 0.407199 0.230827
H41   H     H_    0.743497 0.244673 0.470733 0.180419
H42   H     H_    0.970900 0.263549 0.523797 0.190244

loop_
_geom_bond_atom_site_label_1
_geom_bond_atom_site_label_2
_ccdc_geom_bond_type
O18   C45   A    
C47   C48   S    
O18   V4    S    
C22   H8    S    
C6    C7    A    
C42   H22   S    
C25   C47   S    
C53   C54   S    
O17   V4    S    
C21   C22   A    
O17   V3    S    
C31   C32   A    
C12   C15   A    
C26   H11   S    
C13   C14   A    
C19   C20   A    
C27   C34   S    
C15   C16   A    
C3    C23   S    
O5    C3    A    
C17   C18   A    
O12   C43   A    
O11   C44   A    
C33   H14   S    
C54   H38   S    
C52   H33   S    
C5    C6    A    
C51   H36   S    
C1    O6    A    
C5    C51   S    
C51   H37   S    
O13   C46   A    
O8    V2    S    
C15   H5    S    
C37   C38   A    
C51   C52   S    
C40   C41   S    
O1    V2    S    
O16   V4    S    
C10   C14   A    
C4    C14   S    
O19   V4    S    
O7    V1    S    
C47   H27   S    
C18   C53   S    
C53   H41   S    
C43   O16   A    
O12   V3    S    
C13   C18   A    
C50   H29   S    
O9    C4    A    
H1    C17   S    
C22   C23   A    
C48   H23   S    
C42   H21   S    
C6    H2    S    
O14   C44   A    
C29   C30   A    
C26   H10   S    
C25   H9    S    
C30   C31   A    
C34   H15   S    
C1    C28   S    
C5    C10   A    
C50   H28   S    
C33   C49   S    
C11   C12   A    
O19   C46   A    
V4    O20   S    
C41   H19   S    
C8    H4    S    
C48   H25   S    
C54   H39   S    
C12   C13   A    
O15   V3    S    
C28   C29   A    
C38   C39   A    
O2    C1    A    
C38   H18   S    
C16   C17   A    
C16   H6    S    
C35   C40   A    
C54   H40   S    
C27   C28   A    
C49   H31   S    
C35   C42   S    
C48   H24   S    
C11   C45   S    
O3    C4    A    
C7    H3    S    
O6    V2    S    
O9    V2    S    
C23   C24   A    
C9    C11   A    
O2    V1    S    
C21   H7    S    
C29   H12   S    
C31   C44   S    
O4    C2    A    
C30   H13   S    
O11   V4    S    
C34   H16   S    
O1    C2    A    
C27   C32   A    
C24   C25   S    
O14   V3    S    
O5    V1    S    
C41   H20   S    
O8    C3    A    
C50   H30   S    
C20   C46   S    
C49   H32   S    
C52   H35   S    
C36   C37   A    
C19   C24   A    
C33   C34   S    
O4    V1    S    
O3    V1    S    
V3    O20   S    
C32   C33   S    
C20   C21   A    
O15   C45   A    
C49   C50   S    
C52   H34   S    
O7    V2    S    
C39   C40   A    
C2    C36   S    
C35   C36   A    
C25   C26   S    
C41   C42   S    
C7    C8    A    
C37   H17   S    
C9    C10   A    
C39   C43   S    
V1    O10   S    
C19   C26   S    
C8    C9    A    
C47   H26   S    
O13   V3    S    
C53   H42   S    
V2    O10   S    
