data_mof_unit_28286.cif
_audit_creation_date              2012-12-11T14:29:31-0500
_audit_creation_method            fapswitch 2.2
_symmetry_space_group_name_H-M    P1
_symmetry_Int_Tables_number       1
_space_group_crystal_system       triclinic
_cell_length_a                    6.940447
_cell_length_b                    14.857074
_cell_length_c                    16.268527
_cell_angle_alpha                 90.324344
_cell_angle_beta                  90.30096
_cell_angle_gamma                 90.366356
_cell_volume                      1677.44021133

loop_
_atom_site_label
_atom_site_type_symbol
_atom_type_description
_atom_site_fract_x
_atom_site_fract_y
_atom_site_fract_z
_atom_type_partial_charge
O1    O     O_R   0.494400 0.416610 0.413880 -0.535967
O2    O     O_R   0.823920 0.406790 0.585520 -0.513547
O3    O     O_R   0.994250 0.583390 0.586120 -0.542227
C1    C     C_R   0.655733 0.386740 0.614648 0.728380
O4    O     O_R   0.824110 0.405730 0.414490 -0.520069
O5    O     O_R   0.994440 0.582310 0.413870 -0.531035
C2    C     C_R   0.655091 0.383561 0.386544 0.790840
O6    O     O_R   0.494210 0.417690 0.586130 -0.551238
O7    O     O_3   0.660810 0.557940 0.500000 -0.350497
V1    V     V_3+5 0.935650 0.489250 0.500000 1.688841
O8    O     O_R   0.324160 0.593210 0.414480 -0.495544
C3    C     C_R   0.155285 0.612697 0.384949 0.908623
O9    O     O_R   0.323970 0.594270 0.585510 -0.535353
C4    C     C_R   0.156415 0.621067 0.610023 0.701163
V2    V     V_3+5 0.435660 0.510750 0.500000 1.686381
O10   O     O_3   0.160630 0.442060 0.500000 -0.369057
H1    H     H_    0.394508 0.931227 0.532690 0.185179
C5    C     C_R   0.073117 0.559731 0.780319 -0.097610
C6    C     C_R   0.986537 0.534160 0.855519 0.012529
C7    C     C_R   0.961556 0.598277 0.916377 -0.220933
C8    C     C_R   0.038665 0.684036 0.907842 0.001312
C9    C     C_R   0.088338 0.717566 0.828606 0.072932
C10   C     C_R   0.103779 0.653997 0.762121 -0.037145
C11   C     C_R   0.116499 0.811752 0.814227 -0.127685
C12   C     C_R   0.160172 0.842213 0.733407 -0.065926
C13   C     C_R   0.205105 0.778919 0.669715 -0.030390
C14   C     C_R   0.157300 0.685386 0.681521 -0.131690
C15   C     C_R   0.159341 0.935928 0.713870 0.355198
C16   C     C_R   0.253629 0.967868 0.643683 -0.108474
C17   C     C_R   0.321613 0.906563 0.587059 -0.237171
C18   C     C_R   0.292109 0.814585 0.596434 0.385799
H2    H     H_    0.912183 0.576637 0.976443 0.134483
C19   C     C_2   0.011684 0.733921 0.301275 0.319698
C20   C     C_2   0.145160 0.667467 0.309060 -0.308692
C21   C     C_2   0.977846 0.784320 0.223873 0.328620
C22   C     C_2   0.123845 0.829497 0.187599 -0.417740
H3    H     H_    0.266272 0.825728 0.215506 0.165271
C23   C     C_2   0.767870 0.203244 0.774910 -0.025693
C24   C     C_2   0.608548 0.174143 0.813198 -0.264145
H4    H     H_    0.908938 0.182900 0.796417 0.225822
H5    H     H_    0.468814 0.194005 0.789652 0.228336
C25   C     C_2   0.756534 0.254856 0.697113 0.376088
C26   C     C_2   0.650717 0.330672 0.689537 0.161853
C27   C     C_2   0.765922 0.204407 0.218679 -0.228322
C28   C     C_2   0.615939 0.191962 0.166616 0.198239
H6    H     H_    0.885399 0.157568 0.216347 0.149638
C29   C     C_2   0.788224 0.282014 0.276147 0.449514
C30   C     C_2   0.641388 0.310536 0.324294 -0.281538
H7    H     H_    0.502801 0.276569 0.319707 0.175298
O11   O     O_R   0.770210 0.079270 0.910680 -0.523039
O12   O     O_R   0.440150 0.091160 0.082270 -0.525311
O13   O     O_R   0.269970 0.914530 0.082860 -0.522181
C31   C     C_R   0.609335 0.115029 0.108567 0.692190
O14   O     O_R   0.440480 0.090100 0.911240 -0.534122
O15   O     O_R   0.270310 0.913460 0.910610 -0.525180
C32   C     C_R   0.608623 0.111306 0.883068 0.787368
O16   O     O_R   0.769870 0.080340 0.082930 -0.560161
O17   O     O_3   0.603660 0.938980 0.996790 -0.358469
V3    V     V_3+5 0.328750 0.007610 0.996740 1.642199
O18   O     O_R   0.940600 0.902510 0.911180 -0.535663
C33   C     C_R   0.108813 0.879166 0.883601 0.797758
O19   O     O_R   0.940270 0.903570 0.082200 -0.526192
C34   C     C_R   0.108529 0.887027 0.113863 0.816205
V4    V     V_3+5 0.828770 0.986010 0.996670 1.606525
O20   O     O_3   0.103730 0.054750 0.996710 -0.371272
C35   C     C_2   0.267103 0.638305 0.238539 0.458862
H8    H     H_    0.242236 0.663433 0.177050 0.079451
O21   O     O_2   0.395738 0.583587 0.248121 -0.472425
Cl1   Cl    Cl    0.737825 0.786838 0.187094 -0.571288
Cl2   Cl    Cl    0.887502 0.211549 0.613294 -0.585820
Cl3   Cl    Cl    0.534614 0.377213 0.775920 -0.676185
Cl4   Cl    Cl    0.429820 0.272135 0.157015 -0.538375
Cl5   Cl    Cl    0.021414 0.329991 0.281120 -0.553176
C36   C     C_2   0.156742 0.488121 0.728357 0.536524
H9    H     H_    0.300436 0.497143 0.704716 0.071319
O22   O     O_2   0.068120 0.419407 0.711378 -0.487093
C37   C     C_2   0.944810 0.439835 0.880106 0.539870
H10   H     H_    0.816406 0.425446 0.915640 0.082193
O23   O     O_2   0.058731 0.379139 0.867387 -0.471518
C38   C     C_2   0.100494 0.725399 0.985942 0.322765
H11   H     H_    0.001741 0.727435 0.037323 0.076446
O24   O     O_2   0.268281 0.748261 0.995902 -0.514470
Cl6   Cl    Cl    0.995246 0.009590 0.760969 -0.633361
C39   C     C_2   0.282359 0.064879 0.625652 0.595768
H12   H     H_    0.324024 0.085672 0.564347 0.041931
O25   O     O_2   0.267064 0.122424 0.678887 -0.487211
Cl7   Cl    Cl    0.391802 0.754737 0.514024 -0.576051
Cl8   Cl    Cl    0.865462 0.766081 0.385173 -0.501161

loop_
_geom_bond_atom_site_label_1
_geom_bond_atom_site_label_2
_ccdc_geom_bond_type
C35   O21   D    
C11   C33   S    
O15   V3    S    
O11   V4    S    
C21   C22   D    
C1    O6    A    
C20   C35   S    
C24   H5    S    
C37   H10   S    
C12   C15   A    
C13   C14   A    
C16   C17   A    
C36   O22   D    
C22   H3    S    
C19   Cl8   S    
C39   O25   D    
C23   C25   S    
O5    C3    A    
C23   C24   D    
V2    O10   S    
C25   Cl2   S    
C5    C6    A    
C6    C37   S    
O19   V4    S    
O8    V2    S    
C29   C30   D    
O1    V2    S    
C10   C14   A    
C4    C14   S    
C22   C34   S    
O7    V1    S    
C27   C29   S    
C35   H8    S    
C28   C31   S    
C13   C18   A    
C5    C36   S    
O9    C4    A    
C15   Cl6   S    
H1    C17   S    
C27   H6    S    
O14   V3    S    
C37   O23   D    
O17   V4    S    
O14   C32   A    
C18   Cl7   S    
C36   H9    S    
C5    C10   A    
C39   H12   S    
C29   Cl5   S    
C16   C39   S    
C38   O24   D    
O4    C2    A    
C31   O16   A    
O17   V3    S    
O11   C32   A    
O18   C33   A    
O12   C31   A    
O2    C1    A    
O19   C34   A    
O13   V3    S    
C24   C32   S    
C19   C20   D    
C11   C12   A    
O3    C4    A    
C30   H7    S    
O6    V2    S    
O9    V2    S    
C9    C11   A    
O12   V3    S    
C25   C26   D    
C3    C20   S    
O2    V1    S    
C27   C28   D    
O16   V4    S    
C7    H2    S    
C15   C16   A    
C26   Cl3   S    
O1    C2    A    
C38   H11   S    
O13   C34   A    
O5    V1    S    
O8    C3    A    
C1    C26   S    
O18   V4    S    
C2    C30   S    
C6    C7    A    
C12   C13   A    
O4    V1    S    
O3    V1    S    
V1    O10   S    
V4    O20   S    
C23   H4    S    
C17   C18   A    
O15   C33   A    
C8    C38   S    
C19   C21   S    
O7    V2    S    
C7    C8    A    
C21   Cl1   S    
C9    C10   A    
C8    C9    A    
V3    O20   S    
C28   Cl4   S    
