data_mof_unit_28460.cif
_audit_creation_date              2013-03-05T15:52:25-0500
_audit_creation_method            fapswitch 2.2
_symmetry_space_group_name_H-M    P1
_symmetry_Int_Tables_number       1
_space_group_crystal_system       triclinic
_cell_length_a                    27.834847
_cell_length_b                    10.840892
_cell_length_c                    9.585291
_cell_angle_alpha                 90.862037
_cell_angle_beta                  90.155324
_cell_angle_gamma                 95.034187
_cell_volume                      2880.89826837

loop_
_atom_site_label
_atom_site_type_symbol
_atom_site_description
_atom_site_fract_x
_atom_site_fract_y
_atom_site_fract_z
_atom_type_partial_charge
O1    O     O_R   0.500000 0.319640 0.618810 -0.590834
O2    O     O_R   0.500000 0.319660 0.381240 -0.573561
C1    C     C_R   0.503902 0.263697 0.499588 0.797056
O3    O     O_R   0.430260 0.500010 0.618770 -0.571585
O4    O     O_R   0.430270 0.500030 0.381200 -0.585140
C2    C     C_R   0.407411 0.500222 0.499845 0.820273
Cu1   Cu    Cu3+1 0.500000 0.499990 0.640660 0.945722
Cu2   Cu    Cu3+1 0.500000 0.500010 0.359340 0.963946
O5    O     O_R   0.500000 0.680340 0.618760 -0.622356
O6    O     O_R   0.500000 0.680360 0.381190 -0.584558
O7    O     O_R   0.569730 0.499970 0.618800 -0.603564
O8    O     O_R   0.569740 0.499990 0.381230 -0.576642
C3    C     C_R   0.497062 0.737366 0.502448 0.816477
C4    C     C_R   0.592491 0.496342 0.500309 0.807710
C5    C     C_R   0.174190 0.389064 0.451299 0.611732
O9    O     O_2   0.195689 0.282460 0.440902 -0.512729
N1    N     N_R   0.201638 0.499012 0.470296 -0.449584
C6    C     C_R   0.181031 0.608710 0.480732 0.525577
C7    C     C_R   0.279961 0.477443 0.358870 0.491859
C8    C     C_R   0.330001 0.475727 0.369235 -0.313926
C9    C     C_R   0.326673 0.525917 0.617240 -0.049290
C10   C     C_R   0.276510 0.524406 0.606595 -0.223497
C11   C     C_R   0.253113 0.499474 0.478703 0.259681
C12   C     C_R   0.101648 0.497955 0.456969 -0.046939
C13   C     C_R   0.123723 0.386584 0.443606 -0.059230
C14   C     C_R   0.095281 0.275911 0.417970 -0.180040
C15   C     C_R   0.130716 0.610323 0.473930 -0.018178
C16   C     C_R   0.354148 0.500614 0.497246 -0.146660
H1    H     H_    0.255260 0.543062 0.697855 0.156741
H2    H     H_    0.112232 0.191144 0.397263 0.190173
C17   C     C_R   0.645711 0.493299 0.498851 -0.092611
C18   C     C_R   0.971025 0.382836 0.464391 0.035562
C19   C     C_R   0.978174 0.610460 0.449820 0.039933
C20   C     C_R   0.949369 0.496420 0.459170 0.077732
C21   C     C_R   0.941470 0.274892 0.498328 -0.184594
C22   C     C_R   0.891637 0.275275 0.506841 -0.131771
C23   C     C_R   0.869584 0.384708 0.487494 -0.024224
C24   C     C_R   0.898413 0.496104 0.466201 -0.044890
C25   C     C_R   0.876280 0.607353 0.453767 -0.024858
C26   C     C_R   0.825831 0.604765 0.460451 0.554536
N2    N     N_R   0.798466 0.495045 0.478440 -0.467690
C27   C     C_R   0.819254 0.386156 0.492801 0.549393
C28   C     C_R   0.719941 0.510738 0.362642 0.012962
C29   C     C_R   0.669912 0.510319 0.370709 -0.228185
C30   C     C_R   0.673121 0.473018 0.620185 -0.064103
C31   C     C_R   0.723316 0.474894 0.611412 -0.128415
C32   C     C_R   0.746885 0.494268 0.483891 0.294303
O10   O     O_2   0.791261 0.279609 0.511301 -0.518072
C33   C     C_R   0.021702 0.382312 0.444158 -0.009632
C34   C     C_R   0.050636 0.497056 0.453557 0.063618
C35   C     C_R   0.029072 0.611133 0.459240 0.050154
C36   C     C_R   0.045093 0.273082 0.413192 -0.031788
H3    H     H_    0.649919 0.523252 0.275678 0.173663
H4    H     H_    0.870515 0.189490 0.530671 0.195033
H5    H     H_    0.956320 0.189899 0.525679 0.157970
O11   O     O_2   0.209194 0.715856 0.496904 -0.544298
C37   C     C_R   0.109071 0.721552 0.484199 -0.138818
H6    H     H_    0.349832 0.454592 0.276050 0.179516
H7    H     H_    0.130592 0.809078 0.498576 0.192808
C38   C     C_R   0.954876 0.720223 0.433617 -0.199316
C39   C     C_R   0.904873 0.718396 0.435132 -0.128234
O12   O     O_2   0.804254 0.710994 0.449906 -0.518957
C40   C     C_R   0.059261 0.722248 0.476513 -0.198135
H8    H     H_    0.974383 0.809004 0.416440 0.161607
H9    H     H_    0.888726 0.804964 0.422743 0.193348
H10   H     H_    0.744456 0.460242 0.703967 0.158702
H11   H     H_    0.045330 0.811405 0.489225 0.148920
H12   H     H_    0.489430 0.105987 0.281993 0.168102
C41   C     C_R   0.542197 0.133667 0.741732 -0.173673
H13   H     H_    0.560379 0.225520 0.731825 0.168729
C42   C     C_R   0.542302 0.078572 0.872321 0.030388
C43   C     C_R   0.519937 0.959877 0.888217 -0.197852
H14   H     H_    0.517108 0.918446 0.990450 0.140734
C44   C     C_R   0.501527 0.892676 0.771854 -0.187262
H15   H     H_    0.482150 0.804764 0.793498 0.183660
C45   C     C_R   0.505610 0.942656 0.635759 0.104743
C46   C     C_R   0.519415 0.070322 0.625547 0.082900
C47   C     C_R   0.508932 0.130818 0.500418 -0.103629
C48   C     C_R   0.496454 0.061549 0.379566 -0.181931
H16   H     H_    0.484505 0.883081 0.286094 0.158842
C49   C     C_R   0.492188 0.933870 0.382987 -0.197786
C50   C     C_R   0.496360 0.872474 0.509441 -0.097562
H17   H     H_    0.441829 0.363974 0.126458 0.131381
C51   C     C_R   0.574091 0.665457 0.135877 -0.053518
C52   C     C_R   0.609487 0.726929 0.052022 -0.259196
H18   H     H_    0.639744 0.785053 0.097128 0.171353
C53   C     C_R   0.605409 0.725213 0.910498 -0.044013
C54   C     C_R   0.566979 0.657320 0.849293 -0.172201
H19   H     H_    0.565356 0.669736 0.740838 0.214537
C55   C     C_R   0.533641 0.578552 0.924439 0.182827
C56   C     C_R   0.534999 0.580185 0.075158 0.171255
N3    N     N_R   0.500460 0.501210 0.147910 -0.195000
C57   C     C_R   0.468048 0.425317 0.072431 -0.043131
H20   H     H_    0.442084 0.363407 0.868235 0.141650
C58   C     C_R   0.468205 0.425060 0.924723 -0.020845
N4    N     N_R   0.500480 0.501290 0.852040 -0.200757
C59   C     C_1   0.348361 0.555957 0.751977 0.285140
N5    N     N_1   0.365585 0.580156 0.860100 -0.309094
O13   O     O_3   0.256714 0.450968 0.232979 -0.559822
C60   C     C_3   0.262103 0.557410 0.149469 0.052522
H21   H     H_    0.300589 0.579552 0.120415 0.159046
H22   H     H_    0.248563 0.638870 0.204490 0.165255
C61   C     C_3   0.232905 0.533237 0.016052 -0.733468
H23   H     H_    0.194151 0.512284 0.041508 0.252537
H24   H     H_    0.236900 0.616447 0.949485 0.202206
H25   H     H_    0.245918 0.453496 0.957429 0.251613
C62   C     C_1   0.651387 0.445351 0.754043 0.281291
N6    N     N_1   0.634266 0.422600 0.861566 -0.263638
C63   C     C_1   0.563041 0.146535 0.991404 0.236324
N7    N     N_1   0.579611 0.201243 0.087125 -0.249917
C64   C     C_1   0.583395 0.713030 0.275069 0.344959
N8    N     N_1   0.594162 0.756529 0.383172 -0.300742
C65   C     C_1   0.639992 0.798144 0.826844 0.271660
N9    N     N_1   0.667659 0.856572 0.759551 -0.224016
C66   C     C_1   0.743076 0.526439 0.228735 0.296813
N10   N     N_1   0.761607 0.539034 0.121330 -0.256389
C67   C     C_1   0.020113 0.160537 0.356917 0.227390
N11   N     N_1   0.000373 0.070332 0.311376 -0.292214

loop_
_geom_bond_atom_site_label_1
_geom_bond_atom_site_label_2
_geom_bond_distance
_ccdc_geom_bond_type
C53   C54   1.369519 A    
C10   H1    1.083706 S    
N2    C27   1.368055 A    
C41   C46   1.417985 A    
C58   N4    1.365948 A    
C12   C15   1.409026 A    
C4    C17   1.484728 S    
C49   C50   1.400988 A    
Cu1   Cu2   2.696537 S    
C46   C47   1.417452 A    
Cu1   O7    1.952785 S    
Cu1   N4    2.025976 S    
N1    C11   1.434422 S    
C44   C45   1.421098 A    
C22   C23   1.397292 A    
C31   H10   1.084598 S    
C54   H19   1.051620 S    
O4    C2    1.304712 A    
O7    C4    1.303778 A    
C5    C13   1.404367 A    
C5    O9    1.349757 S    
H17   C57   1.081794 S    
C59   N5    1.157508 T    
C26   O12   1.349704 S    
N1    C6    1.367375 A    
C23   C27   1.403438 A    
C41   C42   1.395127 A    
O5    C3    1.288788 A    
C60   H21   1.114102 S    
C28   C66   1.443234 S    
C29   H3    1.083469 S    
C2    C16   1.483075 S    
C7    C8    1.397886 A    
C62   N6    1.157520 T    
C37   C40   1.388917 A    
Cu2   N3    2.026923 S    
C51   C56   1.476884 A    
C6    O11   1.349780 S    
C36   C67   1.446483 S    
H12   C48   1.083571 S    
C57   C58   1.415802 A    
C22   H4    1.083447 S    
O1    Cu1   1.963205 S    
C9    C10   1.398386 A    
H20   C58   1.081773 S    
O3    Cu1   1.951965 S    
C19   C20   1.417418 A    
Cu1   O5    1.969529 S    
C52   C53   1.360695 A    
C12   C34   1.419360 A    
C25   C39   1.397702 A    
C40   H11   1.077911 S    
C51   C64   1.437742 S    
C17   C29   1.409245 A    
C21   H5    1.078002 S    
C18   C21   1.412771 A    
C51   C52   1.402147 A    
C35   C40   1.414276 A    
C12   C13   1.406294 A    
C43   C44   1.394384 A    
C15   C37   1.396750 A    
C45   C50   1.430865 A    
C56   N3    1.421511 A    
C48   C49   1.379709 A    
C7    O13   1.382018 S    
C47   C48   1.397253 A    
H16   C49   1.083665 S    
C8    C16   1.408502 A    
C13   C14   1.396424 A    
C52   H18   1.090848 S    
C3    C50   1.467056 S    
C60   C61   1.520383 S    
C38   C39   1.390369 A    
O1    C1    1.294961 A    
C21   C22   1.390082 A    
C18   C20   1.419169 A    
C7    C11   1.400929 A    
C28   C29   1.394529 A    
C23   C24   1.407909 A    
C14   C36   1.395245 A    
C9    C59   1.444662 S    
O13   C60   1.411691 S    
Cu2   O8    1.951960 S    
C33   C36   1.428280 A    
C60   H22   1.116029 S    
C34   C35   1.421656 A    
N2    C32   1.436134 S    
C61   H24   1.110551 S    
C27   O10   1.349704 S    
C45   C46   1.408444 A    
O3    C2    1.303979 A    
C26   N2    1.368426 A    
C9    C16   1.419545 A    
C54   C55   1.411441 A    
C14   H2    1.085170 S    
C19   C38   1.414583 A    
C8    H6    1.083386 S    
C25   C26   1.403716 A    
C65   N9    1.157465 T    
C5    N1    1.367642 A    
C31   C32   1.398749 A    
C64   N8    1.159617 T    
C20   C24   1.419847 A    
O2    Cu2   1.969529 S    
C6    C15   1.403507 A    
O8    C4    1.306609 A    
C43   H14   1.084284 S    
O6    C3    1.314267 A    
O4    Cu2   1.952787 S    
C55   N4    1.370579 A    
C19   C35   1.418716 A    
C38   H8    1.077869 S    
O2    C1    1.303207 A    
C42   C43   1.390078 A    
C63   N7    1.157425 T    
C55   C56   1.444881 A    
C24   C25   1.408049 A    
C42   C63   1.440649 S    
N3    C57   1.364760 A    
C61   H25   1.111617 S    
C39   H9    1.083471 S    
C41   H13   1.082284 S    
C18   C33   1.424868 A    
C53   C65   1.443724 S    
C37   H7    1.083524 S    
C30   C62   1.444350 S    
C30   C31   1.398310 A    
C44   H15   1.076374 S    
Cu2   O6    1.963205 S    
C33   C34   1.422866 A    
C17   C30   1.419640 A    
C61   H23   1.111239 S    
C10   C11   1.398128 A    
C67   N11   1.157710 T    
C1    C47   1.459621 S    
C28   C32   1.403594 A    
C66   N10   1.157306 T    
