data_mof_unit_65713.cif
_audit_creation_date              2012-12-10T19:09:07-0500
_audit_creation_method            fapswitch 2.2
_symmetry_space_group_name_H-M    P1
_symmetry_Int_Tables_number       1
_space_group_crystal_system       triclinic
_cell_length_a                    30.980831
_cell_length_b                    30.996712
_cell_length_c                    18.197045
_cell_angle_alpha                 89.882504
_cell_angle_beta                  90.054327
_cell_angle_gamma                 90.100886
_cell_volume                      17474.6215814

loop_
_atom_site_label
_atom_site_type_symbol
_atom_type_description
_atom_site_fract_x
_atom_site_fract_y
_atom_site_fract_z
_atom_type_partial_charge
C1    C     C_R   0.225125 0.001910 0.500433 -0.083404
C2    C     C_R   0.980399 0.198437 0.444050 0.429980
C3    C     C_R   0.974340 0.651892 0.551653 -0.199282
C4    C     C_R   0.652490 0.976697 0.446689 -0.192812
C5    C     C_R   0.974618 0.347478 0.453651 -0.191336
C6    C     C_R   0.348043 0.025985 0.450134 -0.194954
C7    C     C_R   0.025322 0.652988 0.453877 -0.190857
C8    C     C_R   0.847659 0.476322 0.049934 -0.191169
C9    C     C_R   0.526366 0.847946 0.048955 -0.194308
C10   C     C_R   0.151711 0.517921 0.057482 -0.192476
C11   C     C_R   0.474019 0.151783 0.049965 -0.191907
C12   C     C_R   0.151992 0.480079 0.944758 -0.190944
C13   C     C_R   0.801011 0.979894 0.441766 0.426244
C14   C     C_R   0.474133 0.847547 0.954592 -0.191870
C15   C     C_R   0.847919 0.524061 0.947152 -0.195739
C16   C     C_R   0.525347 0.152468 0.953479 -0.189808
C17   C     C_R   0.369254 0.999755 0.497718 -0.174213
C18   C     C_R   0.000393 0.369308 0.501139 -0.170022
C19   C     C_R   0.630641 0.999122 0.499659 -0.163929
C20   C     C_R   0.000399 0.630883 0.502972 -0.171382
C21   C     C_R   0.869268 0.499762 0.998226 -0.169989
C22   C     C_R   0.499891 0.869273 0.001826 -0.174783
C23   C     C_R   0.130434 0.499418 0.000578 -0.163621
C24   C     C_R   0.014797 0.801601 0.439419 0.423464
C25   C     C_R   0.500022 0.130634 0.001784 -0.173158
C26   C     C_R   0.276409 0.001832 0.499282 -0.086600
C27   C     C_R   0.001536 0.276351 0.500634 -0.082424
C28   C     C_R   0.723624 0.999064 0.501721 -0.086044
C29   C     C_R   0.997634 0.723802 0.501009 -0.090600
C30   C     C_R   0.776267 0.501519 0.000128 -0.089728
C31   C     C_R   0.501744 0.776412 0.000110 -0.087264
C32   C     C_R   0.223535 0.499217 0.001948 -0.083924
C33   C     C_R   0.498477 0.223572 0.000372 -0.085838
C34   C     C_R   0.802001 0.013841 0.563202 0.426899
C35   C     C_R   0.026041 0.198061 0.554770 0.416285
C36   C     C_R   0.198447 0.982583 0.559302 0.427721
C37   C     C_R   0.982180 0.801796 0.561044 0.418381
C38   C     C_R   0.698280 0.519838 0.941753 0.421063
C39   C     C_R   0.483313 0.698378 0.939981 0.426793
C40   C     C_R   0.301431 0.475444 0.946973 0.418167
C41   C     C_R   0.002799 0.225044 0.499866 -0.084428
C42   C     C_R   0.518498 0.301765 0.941579 0.427834
C43   C     C_R   0.301880 0.520871 0.057861 0.431763
C44   C     C_R   0.520883 0.698194 0.057794 0.426088
C45   C     C_R   0.698227 0.482900 0.060095 0.424533
C46   C     C_R   0.477924 0.301710 0.056913 0.424488
C47   C     C_R   0.153830 0.014551 0.439746 -0.195093
C48   C     C_R   0.985247 0.154102 0.441553 -0.193901
C49   C     C_R   0.844944 0.989441 0.436693 -0.198582
C50   C     C_R   0.005599 0.845356 0.435151 -0.195650
C51   C     C_R   0.846166 0.007773 0.563818 -0.194293
C52   C     C_R   0.774818 0.997588 0.502588 -0.079512
C53   C     C_R   0.018081 0.153715 0.558810 -0.199809
C54   C     C_R   0.154092 0.988189 0.561342 -0.194411
C55   C     C_R   0.991522 0.845617 0.564542 -0.199268
C56   C     C_R   0.654397 0.510697 0.936939 -0.199909
C57   C     C_R   0.488346 0.653974 0.938454 -0.193427
C58   C     C_R   0.345766 0.483284 0.941940 -0.198012
C59   C     C_R   0.513254 0.346172 0.939481 -0.193350
C60   C     C_R   0.346453 0.517664 0.057650 -0.194868
C61   C     C_R   0.514786 0.653796 0.060001 -0.196615
C62   C     C_R   0.654323 0.491463 0.064275 -0.197294
C63   C     C_R   0.997926 0.774964 0.500238 -0.073482
C64   C     C_R   0.484860 0.346087 0.060280 -0.195763
C65   C     C_R   0.132045 0.000888 0.500322 -0.190257
C66   C     C_R   0.000797 0.132052 0.500484 -0.185755
C67   C     C_R   0.867656 0.999533 0.499583 -0.182636
C68   C     C_R   0.999007 0.867691 0.499867 -0.171575
C69   C     C_R   0.632234 0.500675 0.000372 -0.174694
C70   C     C_R   0.500960 0.631996 0.999573 -0.191821
C71   C     C_R   0.367931 0.501073 0.999194 -0.188182
C72   C     C_R   0.499598 0.367990 0.000174 -0.189296
C73   C     C_R   0.415039 0.000004 0.499067 0.897620
C74   C     C_R   0.725038 0.501623 0.001024 -0.076286
C75   C     C_R   0.000110 0.415049 0.500762 0.897968
C76   C     C_R   0.584922 0.999791 0.498787 0.893408
C77   C     C_R   0.000026 0.585013 0.501142 0.895456
C78   C     C_R   0.915049 0.500009 0.999037 0.893806
C79   C     C_R   0.500030 0.915039 0.000876 0.897724
C80   C     C_R   0.084852 0.499857 0.999659 0.891774
C81   C     C_R   0.499959 0.084925 0.000861 0.897622
C82   C     C_R   0.500006 0.000038 0.359402 0.893499
C83   C     C_R   0.999985 0.499969 0.359392 0.900574
C84   C     C_R   0.499997 0.999962 0.640597 0.898828
C85   C     C_R   0.502141 0.725115 0.999041 -0.083498
C86   C     C_R   0.000015 0.500029 0.640609 0.895065
C87   C     C_R   0.000009 0.500038 0.859402 0.892729
C88   C     C_R   0.499985 0.999970 0.859392 0.900366
C89   C     C_R   0.999996 0.499962 0.140597 0.895907
C90   C     C_R   0.500015 0.000031 0.140609 0.895021
C91   C     C_R   0.999756 0.914179 0.500004 0.943585
C92   C     C_R   0.085716 0.000229 0.500056 0.941551
C93   C     C_R   0.000255 0.085718 0.500085 0.937766
C94   C     C_R   0.914175 0.999795 0.499781 0.942315
C95   C     C_R   0.499911 0.414297 0.000090 0.942119
C96   C     C_R   0.274882 0.498391 0.002512 -0.083658
C97   C     C_R   0.585790 0.500206 0.000055 0.941767
C98   C     C_R   0.500261 0.585701 0.999920 0.938882
C99   C     C_R   0.414281 0.500371 0.999784 0.936959
C100  C     C_1   0.500029 0.000105 0.282544 -0.127860
C101  C     C_1   0.999962 0.499909 0.282534 -0.128782
C102  C     C_1   0.499974 0.999895 0.717455 -0.127198
C103  C     C_1   0.000041 0.500089 0.717466 -0.129268
C104  C     C_1   0.000031 0.500105 0.782544 -0.129422
C105  C     C_1   0.499962 0.999910 0.782534 -0.126904
C106  C     C_1   0.999974 0.499894 0.217455 -0.128784
C107  C     C_R   0.498141 0.274900 0.999395 -0.084072
C108  C     C_1   0.500040 0.000091 0.217466 -0.127972
C109  C     C_R   0.302916 0.978078 0.552065 0.423050
C110  C     C_R   0.023439 0.303105 0.555319 0.407308
C111  C     C_R   0.696629 0.018898 0.558886 0.427015
C112  C     C_R   0.974051 0.696962 0.554476 0.423197
C113  C     C_R   0.697419 0.980339 0.442689 0.414008
C114  C     C_R   0.978020 0.302923 0.447342 0.428616
C115  C     C_R   0.303213 0.024840 0.445282 0.428309
C116  C     C_R   0.021681 0.697635 0.448219 0.417492
C117  C     C_R   0.802819 0.478643 0.054316 0.419257
C118  C     C_R   0.198195 0.020789 0.441915 0.425556
C119  C     C_R   0.524974 0.803141 0.053873 0.427637
C120  C     C_R   0.196593 0.517105 0.060735 0.430639
C121  C     C_R   0.476105 0.196716 0.054965 0.423282
C122  C     C_R   0.197094 0.482521 0.941560 0.408121
C123  C     C_R   0.477637 0.803059 0.947711 0.424052
C124  C     C_R   0.802835 0.523968 0.944957 0.421688
C125  C     C_R   0.521747 0.197033 0.947069 0.423502
C126  C     C_R   0.347367 0.974250 0.545161 -0.190418
C127  C     C_R   0.026824 0.347981 0.548621 -0.190862
C128  C     C_R   0.651828 0.020693 0.554036 -0.194260
Cl1   Cl    Cl    0.294091 0.958855 0.641239 -0.450898
Cl2   Cl    Cl    0.550624 0.793816 0.137785 -0.446820
Cl3   Cl    Cl    0.206592 0.539838 0.146047 -0.449673
Cl4   Cl    Cl    0.453917 0.206848 0.142576 -0.445857
Cl5   Cl    Cl    0.210134 0.470481 0.844438 -0.454155
Cl6   Cl    Cl    0.455525 0.794376 0.860570 -0.447847
Cl7   Cl    Cl    0.791233 0.554693 0.865928 -0.443638
Cl8   Cl    Cl    0.542334 0.206314 0.858914 -0.448861
Cl9   Cl    Cl    0.205815 0.060374 0.373648 -0.434122
Cl10  Cl    Cl    0.939233 0.206639 0.377815 -0.438818
Cl11  Cl    Cl    0.795408 0.929988 0.388577 -0.433157
Cl12  Cl    Cl    0.036674 0.292091 0.652921 -0.450783
Cl13  Cl    Cl    0.062642 0.797381 0.383247 -0.433078
Cl14  Cl    Cl    0.795223 0.049228 0.638112 -0.436487
Cl15  Cl    Cl    0.079335 0.204341 0.606046 -0.424840
Cl16  Cl    Cl    0.205951 0.942123 0.627669 -0.437351
Cl17  Cl    Cl    0.938037 0.796665 0.622358 -0.430811
Cl18  Cl    Cl    0.703319 0.567282 0.886403 -0.430087
Cl19  Cl    Cl    0.445556 0.706256 0.868459 -0.438838
Cl20  Cl    Cl    0.294608 0.422017 0.896665 -0.424447
Cl21  Cl    Cl    0.558755 0.294225 0.873005 -0.435908
Cl22  Cl    Cl    0.293524 0.558356 0.130002 -0.436672
Cl23  Cl    Cl    0.706463 0.044606 0.642889 -0.443474
Cl24  Cl    Cl    0.560177 0.705831 0.126473 -0.436317
Cl25  Cl    Cl    0.703329 0.435786 0.117611 -0.431787
Cl26  Cl    Cl    0.433709 0.294252 0.119524 -0.427809
Cl27  Cl    Cl    0.939765 0.707884 0.629482 -0.437247
Cl28  Cl    Cl    0.710577 0.969496 0.347208 -0.455326
Cl29  Cl    Cl    0.956521 0.293863 0.360546 -0.451350
Cl30  Cl    Cl    0.293938 0.051175 0.361946 -0.444294
Cl31  Cl    Cl    0.044547 0.709542 0.361558 -0.450702
Cl32  Cl    Cl    0.791112 0.453141 0.138770 -0.448771
H1    H     H_    0.366678 0.955007 0.583398 0.208083
H2    H     H_    0.545635 0.867595 0.086372 0.207950
H3    H     H_    0.131725 0.531827 0.101271 0.199015
H4    H     H_    0.455204 0.131957 0.088236 0.205922
H5    H     H_    0.132580 0.466259 0.900216 0.196804
H6    H     H_    0.454560 0.867058 0.917069 0.208692
H7    H     H_    0.867626 0.541924 0.907231 0.203800
H8    H     H_    0.544441 0.133032 0.914995 0.207521
H9    H     H_    0.134712 0.025699 0.393245 0.219480
H10   H     H_    0.971945 0.135007 0.396502 0.217701
H11   H     H_    0.863113 0.980027 0.387984 0.215760
H12   H     H_    0.045386 0.367461 0.587638 0.203195
H13   H     H_    0.012999 0.863748 0.385227 0.216483
H14   H     H_    0.865433 0.015162 0.612778 0.221656
H15   H     H_    0.032302 0.134387 0.602463 0.213866
H16   H     H_    0.135025 0.977155 0.608063 0.219502
H17   H     H_    0.984503 0.864113 0.614350 0.217262
H18   H     H_    0.635843 0.519925 0.888169 0.216651
H19   H     H_    0.477530 0.634815 0.891666 0.220561
H20   H     H_    0.364753 0.468587 0.898482 0.214245
H21   H     H_    0.524919 0.365486 0.893148 0.219092
H22   H     H_    0.366158 0.531601 0.101421 0.217409
H23   H     H_    0.631779 0.037215 0.595255 0.202665
H24   H     H_    0.526032 0.634647 0.106465 0.219497
H25   H     H_    0.635624 0.482581 0.113169 0.217013
H26   H     H_    0.472844 0.365209 0.106173 0.217918
H27   H     H_    0.955120 0.631945 0.589184 0.206041
H28   H     H_    0.633616 0.960541 0.403673 0.199637
H29   H     H_    0.955259 0.366889 0.415488 0.207591
H30   H     H_    0.367774 0.045066 0.412591 0.207851
H31   H     H_    0.044584 0.633922 0.415066 0.206219
H32   H     H_    0.867245 0.458317 0.090102 0.204314
O1    O     O_R   0.434530 0.036970 0.500000 -0.609047
O2    O     O_R   0.463030 0.934530 0.000000 -0.611351
O3    O     O_R   0.065470 0.463030 0.000000 -0.607097
O4    O     O_R   0.536970 0.065470 0.000000 -0.610380
O5    O     O_R   0.065470 0.536970 0.000000 -0.605533
O6    O     O_R   0.536970 0.934530 0.000000 -0.609906
O7    O     O_R   0.934530 0.463030 0.000000 -0.608874
O8    O     O_R   0.463030 0.065470 0.000000 -0.609938
O9    O     O_R   0.500010 0.036970 0.392670 -0.607003
O10   O     O_R   0.963030 0.500010 0.392670 -0.606434
O11   O     O_R   0.499990 0.963030 0.392670 -0.608042
O12   O     O_R   0.963030 0.434530 0.500000 -0.610441
O13   O     O_R   0.036970 0.499990 0.392670 -0.605750
O14   O     O_R   0.499990 0.036970 0.607330 -0.605160
O15   O     O_R   0.036970 0.500010 0.607330 -0.607085
O16   O     O_R   0.500010 0.963030 0.607330 -0.605962
O17   O     O_R   0.963030 0.499990 0.607330 -0.608256
O18   O     O_R   0.000010 0.536970 0.892670 -0.608733
O19   O     O_R   0.463030 0.000010 0.892670 -0.605423
O20   O     O_R   0.999990 0.463030 0.892670 -0.606136
O21   O     O_R   0.536970 0.999990 0.892670 -0.606127
O22   O     O_R   0.999990 0.536970 0.107330 -0.606170
O23   O     O_R   0.565470 0.963030 0.500000 -0.608979
O24   O     O_R   0.536970 0.000010 0.107330 -0.606761
O25   O     O_R   0.000010 0.463030 0.107330 -0.606159
O26   O     O_R   0.463030 0.999990 0.107330 -0.607880
O27   O     O_R   0.999990 0.934550 0.439420 -0.624048
O28   O     O_R   0.065450 0.999990 0.439420 -0.621970
O29   O     O_R   0.000010 0.065450 0.439420 -0.622980
O30   O     O_R   0.934550 0.000010 0.439420 -0.624129
O31   O     O_R   0.000010 0.934550 0.560580 -0.624968
O32   O     O_R   0.934550 0.999990 0.560580 -0.624097
O33   O     O_R   0.999990 0.065450 0.560580 -0.621088
O34   O     O_R   0.036970 0.565470 0.500000 -0.610347
O35   O     O_R   0.065450 0.000010 0.560580 -0.625162
O36   O     O_R   0.499990 0.434550 0.939420 -0.624243
O37   O     O_R   0.565450 0.499990 0.939420 -0.624383
O38   O     O_R   0.500010 0.565450 0.939420 -0.623592
O39   O     O_R   0.434550 0.500010 0.939420 -0.621548
O40   O     O_R   0.500010 0.434550 0.060580 -0.621634
O41   O     O_R   0.434550 0.499990 0.060580 -0.621343
O42   O     O_R   0.499990 0.565450 0.060580 -0.624801
O43   O     O_R   0.565450 0.500010 0.060580 -0.625062
O44   O     O_R   0.565470 0.036970 0.500000 -0.606537
O45   O     O_R   0.036970 0.434530 0.500000 -0.610659
O46   O     O_R   0.434530 0.963030 0.500000 -0.611172
O47   O     O_R   0.963030 0.565470 0.500000 -0.608904
O48   O     O_R   0.934530 0.536970 0.000000 -0.608184
Zn1   Zn    Zn3+2 0.500000 0.049360 0.500000 1.073059
Zn2   Zn    Zn3+2 0.000000 0.000000 0.580910 1.056755
Zn3   Zn    Zn3+2 0.500000 0.500000 0.919090 1.056467
Zn4   Zn    Zn3+2 0.500000 0.500000 0.080910 1.057024
Zn5   Zn    Zn3+2 0.950640 0.500000 0.500000 1.068065
Zn6   Zn    Zn3+2 0.500000 0.950640 0.500000 1.069098
Zn7   Zn    Zn3+2 0.049360 0.500000 0.500000 1.070470
Zn8   Zn    Zn3+2 0.000000 0.549360 0.000000 1.069202
Zn9   Zn    Zn3+2 0.450640 0.000000 0.000000 1.070148
Zn10  Zn    Zn3+2 0.000000 0.450640 0.000000 1.072006
Zn11  Zn    Zn3+2 0.549360 0.000000 0.000000 1.071715
Zn12  Zn    Zn3+2 0.000000 0.000000 0.419090 1.057067

loop_
_geom_bond_atom_site_label_1
_geom_bond_atom_site_label_2
_ccdc_geom_bond_type
C61   C70   A    
C7    C116  A    
C65   C92   S    
C94   O32   A    
C29   C63   S    
C10   H3    S    
C31   C85   S    
C73   O1    A    
C5    C114  A    
C35   C53   A    
C120  Cl3   S    
C84   C102  S    
C87   O20   A    
C45   C62   A    
C29   C112  A    
O31   Zn2   S    
C33   C107  S    
C86   O17   A    
O18   Zn8   S    
C7    H31   S    
C68   C91   S    
O35   Zn2   S    
C90   O24   A    
C55   C68   A    
O34   Zn7   S    
C114  Cl29  S    
C54   C65   A    
C56   H18   S    
O36   Zn3   S    
C12   C23   A    
C34   C51   A    
C18   C75   S    
C79   O2    A    
C20   C77   S    
C50   H13   S    
C13   Cl11  S    
C19   C76   S    
C40   C96   A    
C22   C79   S    
O10   Zn5   S    
C73   O46   A    
C82   O11   A    
C30   C74   S    
C17   C126  A    
O37   Zn3   S    
C11   C25   A    
C2    C41   A    
C39   C57   A    
O3    Zn10  S    
C19   C128  A    
C101  C106  T    
C119  Cl2   S    
O9    Zn1   S    
O45   Zn7   S    
C102  C105  T    
C59   H21   S    
C54   H16   S    
C92   O28   A    
C42   Cl21  S    
C84   O16   A    
C95   O36   A    
C38   Cl18  S    
O38   Zn3   S    
O41   Zn4   S    
C47   H9    S    
C98   O38   A    
C4    C19   A    
O6    Zn11  S    
C47   C118  A    
C97   O37   A    
C92   O35   A    
C112  Cl27  S    
C89   C106  S    
C67   C94   S    
C70   C98   S    
C69   C97   S    
C57   C70   A    
C14   H6    S    
C118  Cl9   S    
C83   C101  S    
C42   C107  A    
C24   Cl13  S    
O12   Zn5   S    
C25   C81   S    
C59   C72   A    
C81   O8    A    
O20   Zn10  S    
C77   O34   A    
C16   C125  A    
C79   O6    A    
C117  Cl32  S    
C33   C121  A    
C55   H17   S    
C15   H7    S    
C11   C121  A    
C128  H23   S    
C82   C100  S    
C32   C120  A    
C83   O10   A    
C86   C103  S    
C37   C63   A    
C8    C117  A    
C43   C96   A    
C28   C111  A    
C24   C50   A    
C46   Cl26  S    
C44   C61   A    
C100  C108  T    
C40   C58   A    
C15   C124  A    
C40   Cl20  S    
C123  Cl6   S    
C72   C95   S    
C32   C122  A    
C4    C113  A    
C26   C115  A    
C36   C54   A    
C95   O40   A    
C27   C110  A    
C116  Cl31  S    
C88   O21   A    
C12   H5    S    
C17   C73   S    
C9    C22   A    
C31   C123  A    
C5    C18   A    
C115  Cl30  S    
C60   C71   A    
C2    C48   A    
C127  H12   S    
C71   C99   S    
C88   O19   A    
C62   C69   A    
C46   C64   A    
C45   C74   A    
C2    Cl10  S    
O44   Zn1   S    
C21   C78   S    
C51   H14   S    
O39   Zn3   S    
C122  Cl5   S    
C49   H11   S    
C93   O33   A    
C18   C127  A    
C13   C52   A    
C23   C80   S    
C27   C41   S    
O7    Zn10  S    
C99   O39   A    
C98   O42   A    
O29   Zn12  S    
C3    C112  A    
C46   C107  A    
O46   Zn6   S    
C33   C125  A    
C8    C21   A    
O2    Zn9   S    
C111  Cl23  S    
C3    C20   A    
C76   O44   A    
C51   C67   A    
O19   Zn9   S    
C53   C66   A    
C26   C109  A    
C31   C119  A    
C43   Cl22  S    
C43   C60   A    
C66   C93   S    
C48   H10   S    
C125  Cl8   S    
C32   C96   S    
C29   C116  A    
C30   C124  A    
C7    C20   A    
C24   C63   A    
C90   C108  S    
O27   Zn12  S    
O28   Zn12  S    
O8    Zn9   S    
C1    C26   S    
C9    C119  A    
O26   Zn9   S    
C13   C49   A    
C75   O45   A    
O14   Zn1   S    
C45   Cl25  S    
O25   Zn10  S    
C39   C85   A    
C113  Cl28  S    
C91   O31   A    
C44   C85   A    
C126  H1    S    
O17   Zn5   S    
C103  C104  T    
C6    H30   S    
C62   H25   S    
C60   H22   S    
C53   H15   S    
O48   Zn8   S    
C38   C74   A    
C16   C25   A    
C80   O3    A    
C34   Cl14  S    
C61   H24   S    
C78   O48   A    
C14   C123  A    
C49   C67   A    
C124  Cl7   S    
O40   Zn4   S    
O1    Zn1   S    
C16   H8    S    
O13   Zn7   S    
O15   Zn7   S    
C86   O15   A    
C82   O9    A    
C57   H19   S    
C75   O12   A    
C30   C117  A    
C10   C23   A    
C38   C56   A    
C110  C127  A    
O5    Zn8   S    
C34   C52   A    
C44   Cl24  S    
O47   Zn5   S    
C37   Cl17  S    
C6    C115  A    
C14   C22   A    
C110  Cl12  S    
O33   Zn2   S    
C5    H29   S    
C6    C17   A    
C83   O13   A    
C81   O4    A    
C109  Cl1   S    
C88   C105  S    
C28   C52   S    
C76   O23   A    
O32   Zn2   S    
O11   Zn6   S    
C50   C68   A    
C8    H32   S    
O24   Zn11  S    
C99   O41   A    
C80   O5    A    
O4    Zn11  S    
C11   H4    S    
C87   O18   A    
O21   Zn11  S    
C1    C118  A    
C64   C72   A    
C91   O27   A    
C9    H2    S    
C35   C41   A    
O16   Zn6   S    
O43   Zn4   S    
C90   O26   A    
C93   O29   A    
C10   C120  A    
C28   C113  A    
C89   O25   A    
C87   C104  S    
C37   C55   A    
C27   C114  A    
C84   O14   A    
C109  C126  A    
C15   C21   A    
C12   C122  A    
O23   Zn6   S    
C58   H20   S    
C56   C69   A    
C78   O7    A    
C42   C59   A    
C39   Cl19  S    
C111  C128  A    
C94   O30   A    
C58   C71   A    
C89   O22   A    
O22   Zn8   S    
C121  Cl4   S    
C48   C66   A    
C36   Cl16  S    
C3    H27   S    
C47   C65   A    
C64   H26   S    
C4    H28   S    
C77   O47   A    
C1    C36   A    
C35   Cl15  S    
O42   Zn4   S    
C97   O43   A    
O30   Zn12  S    
