data_mof_unit_63441.cif
_audit_creation_date              2012-12-10T19:02:15-0500
_audit_creation_method            fapswitch 2.2
_symmetry_space_group_name_H-M    P1
_symmetry_Int_Tables_number       1
_space_group_crystal_system       triclinic
_cell_length_a                    13.36001
_cell_length_b                    14.259869
_cell_length_c                    16.875688
_cell_angle_alpha                 90.026675
_cell_angle_beta                  84.977423
_cell_angle_gamma                 89.992962
_cell_volume                      3202.67576658

loop_
_atom_site_label
_atom_site_type_symbol
_atom_type_description
_atom_site_fract_x
_atom_site_fract_y
_atom_site_fract_z
_atom_type_partial_charge
C1    C     C_R   0.500000 0.673469 0.499971 0.924783
C2    C     C_1   0.169400 0.499997 0.500017 0.063465
C3    C     C_1   0.950474 0.500005 0.500008 -0.052724
C4    C     C_1   0.049525 0.500000 0.500026 -0.051417
C5    C     C_R   0.486427 0.497959 0.655667 0.909064
C6    C     C_R   0.513662 0.502183 0.344389 0.907539
C7    C     C_R   0.477416 0.464445 0.737403 -0.086971
C8    C     C_R   0.523185 0.498796 0.257833 -0.096848
C9    C     C_R   0.558253 0.413629 0.763639 -0.222804
C10   C     C_R   0.434942 0.500772 0.218711 -0.252899
C11   C     C_R   0.553239 0.379120 0.840417 -0.088678
C12   C     C_R   0.500000 0.326534 0.500054 0.929586
C13   C     C_R   0.439448 0.489271 0.137198 -0.092900
C14   C     C_R   0.468378 0.397169 0.892306 0.067272
C15   C     C_R   0.532068 0.474071 0.093979 0.087146
C16   C     C_R   0.384715 0.442181 0.865599 -0.232756
C17   C     C_R   0.620951 0.475543 0.131611 -0.265917
C18   C     C_R   0.387887 0.475068 0.787501 0.207755
C19   C     C_R   0.617709 0.488999 0.213650 0.219714
C20   C     C_2   0.477819 0.394569 0.977676 0.329000
C21   C     C_2   0.536023 0.460423 0.007979 0.345258
C22   C     C_3   0.748477 0.583618 0.262060 -0.748735
C23   C     C_1   0.500000 0.774111 0.499972 -0.226341
C24   C     C_3   0.226250 0.463323 0.735842 -0.742030
C25   C     C_1   0.500008 0.225897 0.500087 -0.224164
C26   C     C_1   0.500006 0.858672 0.499991 -0.004776
C27   C     C_1   0.500012 0.141337 0.500093 -0.003662
C28   C     C_1   0.500012 0.957727 0.500033 0.010977
C29   C     C_1   0.500014 0.042284 0.500068 0.011416
C30   C     C_1   0.830599 0.500006 0.499999 0.069509
H1    H     H_    0.626303 0.401791 0.725117 0.162820
H2    H     H_    0.691577 0.628449 0.295809 0.244739
H3    H     H_    0.275015 0.573288 0.802079 0.222394
H4    H     H_    0.191076 0.422422 0.786996 0.224160
H5    H     H_    0.257766 0.414198 0.688975 0.256105
H6    H     H_    0.167473 0.506466 0.710745 0.236337
H7    H     H_    0.625850 0.567209 0.989854 0.334928
H8    H     H_    0.381885 0.293196 0.992696 0.335530
H9    H     H_    0.362046 0.509904 0.251302 0.168651
H10   H     H_    0.319755 0.457115 0.906767 0.137938
H11   H     H_    0.692638 0.465918 0.097238 0.145185
H12   H     H_    0.370570 0.491385 0.107776 0.153156
H13   H     H_    0.618566 0.345357 0.861493 0.141848
H14   H     H_    0.763283 0.445713 0.225251 0.222338
H15   H     H_    0.770683 0.616491 0.203431 0.226082
H16   H     H_    0.815593 0.579143 0.296315 0.236765
N1    N     N_1   0.738130 0.500000 0.500020 -0.059189
N2    N     N_1   0.261870 0.500000 0.499980 -0.062733
N3    N     N_2   0.709120 0.490448 0.251063 -0.291746
N4    N     N_2   0.303956 0.523994 0.761557 -0.304715
O1    O     O_R   0.423530 0.626280 0.499990 -0.592557
O2    O     O_3   0.420370 0.333936 0.026765 -0.795375
O3    O     O_R   0.576470 0.373720 0.500010 -0.595233
O4    O     O_R   0.576470 0.626280 0.500010 -0.597005
O5    O     O_R   0.423530 0.373720 0.499990 -0.596934
O6    O     O_R   0.414510 0.500000 0.615790 -0.584779
O7    O     O_R   0.585490 0.500000 0.384210 -0.578668
O8    O     O_R   0.567420 0.500000 0.615810 -0.617637
O9    O     O_R   0.432580 0.500000 0.384190 -0.617339
O10   O     O_3   0.594408 0.519224 0.957469 -0.791207
Zn1   Zn    Zn3+2 0.397910 0.500000 0.499990 0.972112
Zn2   Zn    Zn3+2 0.602090 0.500000 0.500010 0.975167

loop_
_geom_bond_atom_site_label_1
_geom_bond_atom_site_label_2
_ccdc_geom_bond_type
H14   N3    S    
O8    Zn2   S    
C3    C30   S    
C2    C4    S    
C1    O4    A    
C5    C7    S    
C11   H13   S    
C25   C27   T    
C1    O1    A    
O3    Zn2   S    
C19   N3    S    
C5    O6    A    
C26   C28   S    
C12   O3    A    
O1    Zn1   S    
C12   C25   S    
C7    C18   A    
C2    N2    T    
N1    Zn2   S    
C24   H5    S    
O7    Zn2   S    
C20   O2    S    
C9    C11   A    
C6    O7    A    
N2    Zn1   S    
C24   H6    S    
C22   H2    S    
C5    O8    A    
C16   H10   S    
C22   N3    S    
O5    Zn1   S    
C8    C10   A    
C28   C29   T    
C22   H16   S    
C1    C23   S    
C14   C16   A    
C13   C15   A    
C24   N4    S    
C12   O5    A    
C11   C14   A    
C17   H11   S    
O9    Zn1   S    
H7    O10   S    
C27   C29   S    
C9    H1    S    
C3    C4    T    
C8    C19   A    
C14   C20   S    
C30   N1    T    
C15   C21   S    
C22   H15   S    
H8    O2    S    
C20   C21   D    
C18   N4    S    
C21   O10   S    
C16   C18   A    
C23   C26   T    
C7    C9    A    
O6    Zn1   S    
C13   H12   S    
C6    C8    S    
O4    Zn2   S    
C17   C19   A    
H3    N4    S    
C15   C17   A    
C6    O9    A    
C24   H4    S    
C10   H9    S    
C10   C13   A    
