data_mof_unit_9802.cif
_audit_creation_date              2012-12-10T17:57:26-0500
_audit_creation_method            fapswitch 2.2
_symmetry_space_group_name_H-M    P1
_symmetry_Int_Tables_number       1
_space_group_crystal_system       triclinic
_cell_length_a                    9.57762
_cell_length_b                    10.848609
_cell_length_c                    13.496234
_cell_angle_alpha                 91.359057
_cell_angle_beta                  72.451977
_cell_angle_gamma                 89.498524
_cell_volume                      1336.49143464

loop_
_atom_site_label
_atom_site_type_symbol
_atom_type_description
_atom_site_fract_x
_atom_site_fract_y
_atom_site_fract_z
_atom_type_partial_charge
C1    C     C_R   0.499387 0.737475 0.500199 0.797869
C2    C     C_R   0.435735 0.486024 0.978998 0.083553
C3    C     C_R   0.474944 0.458887 0.870512 0.087868
C4    C     C_R   0.544210 0.472743 0.031012 0.074043
C5    C     C_R   0.685428 0.424670 0.975885 0.171240
C6    C     C_R   0.715831 0.385920 0.872702 -0.259483
C7    C     C_R   0.611566 0.400251 0.821652 -0.212201
C8    C     C_R   0.517288 0.506155 0.136180 -0.251467
C9    C     C_R   0.762919 0.443348 0.130411 -0.207262
C10   C     C_R   0.375439 0.489680 0.814523 -0.102813
C11   C     C_R   0.601337 0.932948 0.538091 -0.174554
C12   C     C_R   0.421850 0.494060 0.699862 0.777189
C13   C     C_R   0.603691 0.060968 0.541264 0.179811
C14   C     C_R   0.501381 0.127688 0.504912 -0.034669
C15   C     C_R   0.397172 0.064143 0.470096 -0.224036
C16   C     C_R   0.395047 0.936549 0.469309 -0.188276
C17   C     C_R   0.498216 0.870927 0.502255 -0.062985
C18   C     C_R   0.898399 0.574156 0.569423 0.269663
C19   C     C_R   0.046419 0.572072 0.568868 -0.049830
C20   C     C_R   0.105857 0.427167 0.431635 -0.043107
C21   C     C_R   0.958323 0.425344 0.431153 0.258128
C22   C     C_R   0.500018 0.262153 0.502308 0.785402
C23   C     C_R   0.578472 0.499199 0.300243 0.797491
C24   C     C_R   0.794134 0.412720 0.025313 -0.203971
C25   C     C_R   0.622964 0.486702 0.186798 -0.044276
C26   C     C_R   0.232065 0.527995 0.869275 -0.192698
C27   C     C_R   0.189035 0.542321 0.976655 -0.158609
C28   C     C_R   0.289425 0.524105 0.031083 -0.184781
Cu1   Cu    Cu3+1 0.359340 0.499980 0.500000 0.935410
Cu2   Cu    Cu3+1 0.640660 0.500020 0.500000 0.934226
H1    H     H_    0.846348 0.428917 0.168054 0.153797
H2    H     H_    0.317943 0.113085 0.442208 0.156872
H3    H     H_    0.314524 0.889302 0.441315 0.156774
H4    H     H_    0.080936 0.629495 0.623681 0.139108
H5    H     H_    0.187540 0.368883 0.377246 0.141870
H6    H     H_    0.820858 0.343730 0.831064 0.150585
H7    H     H_    0.902213 0.376645 0.983223 0.140900
H8    H     H_    0.414032 0.546426 0.181370 0.148976
H9    H     H_    0.153339 0.549833 0.828834 0.153087
H10   H     H_    0.247635 0.538433 0.114070 0.125921
H11   H     H_    0.077819 0.571422 0.017934 0.148330
H12   H     H_    0.640112 0.361739 0.744004 0.179871
N1    N     N_R   0.147940 0.499970 0.499970 -0.194767
N2    N     N_R   0.852060 0.500060 0.499990 -0.158261
O1    O     O_R   0.381250 0.680340 0.500010 -0.581579
O2    O     O_R   0.618820 0.680370 0.500010 -0.587494
O3    O     O_R   0.323240 0.499950 0.650980 -0.579798
O4    O     O_R   0.560810 0.499980 0.650980 -0.590746
O5    O     O_R   0.381180 0.319630 0.499990 -0.584005
O6    O     O_R   0.618750 0.319660 0.499990 -0.588646
O7    O     O_R   0.439190 0.500020 0.349020 -0.586701
O8    O     O_R   0.676760 0.500050 0.349020 -0.583556
C29   C     C_3   0.711736 0.121451 0.587643 -0.847725
H13   H     H_    0.652427 0.185936 0.651414 0.225906
H14   H     H_    0.770530 0.053331 0.621442 0.213631
H15   H     H_    0.795871 0.170517 0.527327 0.253972
C30   C     C_3   0.800627 0.660578 0.650593 -0.822794
H16   H     H_    0.790858 0.625658 0.729038 0.218749
H17   H     H_    0.850941 0.753077 0.644533 0.184200
H18   H     H_    0.690436 0.675950 0.645630 0.277758
C31   C     C_3   0.929640 0.337567 0.351744 -0.848592
H19   H     H_    0.815545 0.329322 0.353715 0.284215
H20   H     H_    0.993460 0.366326 0.272813 0.198066
H21   H     H_    0.967887 0.243508 0.363113 0.196271
H22   H     H_    0.679230 0.881238 0.565232 0.148927

loop_
_geom_bond_atom_site_label_1
_geom_bond_atom_site_label_2
_ccdc_geom_bond_type
C31   H21   S    
C2    C4    A    
C7    H12   S    
C9    C24   A    
C6    C7    A    
C18   N2    A    
C16   H3    S    
C21   N2    A    
C2    C28   A    
C27   H11   S    
C18   C30   S    
C21   C31   S    
C22   O6    A    
C12   O4    A    
Cu2   N2    S    
C14   C22   S    
C12   O3    A    
C2    C3    A    
C23   O8    A    
C9    C25   A    
C15   H2    S    
C3    C10   A    
Cu1   O5    S    
C29   H13   S    
Cu1   N1    S    
C8    C25   A    
C11   C13   A    
C1    O1    A    
C30   H16   S    
Cu1   Cu2   S    
C5    C24   A    
C8    H8    S    
Cu1   O3    S    
C22   O5    A    
C5    C6    A    
C10   C12   S    
Cu2   O4    S    
C6    H6    S    
C24   H7    S    
C3    C7    A    
C13   C29   S    
C29   H14   S    
C26   C27   A    
C31   H19   S    
C1    O2    A    
C26   H9    S    
C30   H17   S    
C16   C17   A    
C9    H1    S    
C15   C16   A    
C27   C28   A    
C20   N1    A    
C20   C21   A    
C18   C19   A    
Cu1   O7    S    
C29   H15   S    
Cu1   O1    S    
C4    C8    A    
C31   H20   S    
C28   H10   S    
C14   C15   A    
C11   C17   A    
C30   H18   S    
Cu2   O8    S    
Cu2   O6    S    
C23   C25   S    
C13   C14   A    
C20   H5    S    
C1    C17   S    
Cu2   O2    S    
C10   C26   A    
C23   O7    A    
C11   H22   S    
C19   N1    A    
C4    C5    A    
C19   H4    S    
