data_mof_unit_56891.cif
_audit_creation_date              2012-12-10T16:54:31-0500
_audit_creation_method            fapswitch 2.2
_symmetry_space_group_name_H-M    P1
_symmetry_Int_Tables_number       1
_space_group_crystal_system       triclinic
_cell_length_a                    15.092587
_cell_length_b                    10.93452
_cell_length_c                    9.680729
_cell_angle_alpha                 90.0557
_cell_angle_beta                  90.473868
_cell_angle_gamma                 90.125882
_cell_volume                      1597.55330992

loop_
_atom_site_label
_atom_site_type_symbol
_atom_type_description
_atom_site_fract_x
_atom_site_fract_y
_atom_site_fract_z
_atom_type_partial_charge
C1    C     C_R   0.500823 0.265316 0.500005 0.849745
C2    C     C_R   0.904944 0.553109 0.389292 0.150505
C3    C     C_R   0.955417 0.409406 0.731871 0.180155
C4    C     C_R   0.049091 0.414436 0.732426 0.197062
C5    C     C_R   0.093972 0.462333 0.616616 0.030868
C6    C     C_R   0.045881 0.509829 0.503229 -0.047952
C7    C     C_R   0.090609 0.560868 0.388641 0.112287
C8    C     C_R   0.041307 0.608916 0.277397 -0.203616
C9    C     C_R   0.949479 0.604021 0.277310 -0.240490
C10   C     C_R   0.186491 0.461088 0.610828 -0.255251
C11   C     C_R   0.231571 0.509095 0.497288 -0.145245
C12   C     C_R   0.328622 0.503416 0.499092 0.816793
C13   C     C_R   0.183595 0.562496 0.386383 0.191281
C14   C     C_2   0.498863 0.932932 0.386507 -0.162397
C15   C     C_2   0.493634 0.866592 0.502465 -0.324198
C16   C     C_2   0.495024 0.066878 0.386690 -0.155862
C17   C     C_2   0.504810 0.133346 0.502193 -0.317938
C18   C     C_2   0.444619 0.435748 0.921321 -0.061554
C19   C     C_2   0.446258 0.433107 0.077145 -0.080308
C20   C     C_R   0.498723 0.734677 0.500135 0.842333
C21   C     C_R   0.671203 0.500207 0.500539 0.816247
C22   C     C_R   0.812895 0.548855 0.388378 -0.239237
C23   C     C_R   0.767701 0.501816 0.501759 -0.091974
C24   C     C_R   0.814560 0.457426 0.616450 -0.211435
C25   C     C_R   0.907493 0.456903 0.618019 0.031986
C26   C     C_R   0.952861 0.506586 0.503809 0.020350
Cu1   Cu    Cu3+1 0.500020 0.500020 0.638630 0.941371
Cu2   Cu    Cu3+1 0.499980 0.499980 0.361370 0.935621
H1    H     H_    0.776289 0.584495 0.300356 0.150805
H2    H     H_    0.483511 0.907569 0.602818 0.149554
H3    H     H_    0.485368 0.111541 0.287512 0.164958
H4    H     H_    0.517741 0.092448 0.602002 0.147381
H5    H     H_    0.394866 0.380364 0.869167 0.152378
H6    H     H_    0.547898 0.548850 0.894643 0.193055
H7    H     H_    0.399620 0.372821 0.127996 0.146498
H8    H     H_    0.541610 0.558743 0.106628 0.192507
H9    H     H_    0.777930 0.422247 0.703587 0.191906
H10   H     H_    0.224458 0.420408 0.694315 0.198177
H11   H     H_    0.073317 0.649818 0.189048 0.176742
H12   H     H_    0.913208 0.640511 0.189519 0.143510
H13   H     H_    0.505095 0.888209 0.286810 0.166703
N1    N     N_2   0.499020 0.498660 0.846910 -0.281347
N2    N     N_2   0.499000 0.498630 0.153040 -0.281390
O1    O     O_R   0.500020 0.321960 0.617040 -0.579053
O2    O     O_R   0.499980 0.321920 0.382900 -0.572405
O3    O     O_R   0.370270 0.499990 0.617090 -0.583189
O4    O     O_R   0.370240 0.499950 0.382940 -0.581842
O5    O     O_R   0.500020 0.678080 0.617100 -0.576783
O6    O     O_R   0.499980 0.678040 0.382960 -0.579973
O7    O     O_R   0.629760 0.500050 0.617060 -0.584298
O8    O     O_R   0.629730 0.500010 0.382910 -0.578533
N3    N     N_2   0.909015 0.358792 0.846295 -0.440757
H14   H     H_    0.936047 0.378174 0.941933 0.264542
C27   C     C_3   0.884962 0.231325 0.830283 -0.714111
H15   H     H_    0.945254 0.173431 0.826208 0.220946
H16   H     H_    0.845374 0.217283 0.734308 0.239164
H17   H     H_    0.844256 0.202071 0.919405 0.233300
N4    N     N_2   0.098599 0.369539 0.847881 -0.444410
H18   H     H_    0.073183 0.292104 0.893499 0.261630
C28   C     C_3   0.124083 0.462406 0.947212 -0.719755
H19   H     H_    0.064324 0.503078 0.994814 0.224755
H20   H     H_    0.163223 0.535785 0.896866 0.244258
H21   H     H_    0.165641 0.420779 0.029808 0.227949
N5    N     N_2   0.226986 0.619955 0.273221 -0.450844
H22   H     H_    0.267550 0.565120 0.214847 0.273488
C29   C     C_3   0.259981 0.742049 0.299983 -0.648368
H23   H     H_    0.313343 0.740234 0.379499 0.227059
H24   H     H_    0.205334 0.801780 0.335975 0.226232
H25   H     H_    0.287106 0.781291 0.203356 0.220414

loop_
_geom_bond_atom_site_label_1
_geom_bond_atom_site_label_2
_ccdc_geom_bond_type
Cu1   O5    S    
C2    C22   A    
C29   H24   S    
C11   C12   S    
Cu2   O4    S    
C20   O6    A    
C22   H1    S    
Cu2   O6    S    
Cu2   N2    S    
C1    C17   S    
H6    N1    S    
Cu1   O7    S    
C21   O8    A    
C10   H10   S    
N5    H22   S    
C18   N1    D    
C24   H9    S    
C8    C9    A    
C5    C10   A    
C2    C26   A    
C6    C26   A    
N3    H14   S    
C3    N3    S    
C16   H3    S    
C11   C13   A    
Cu1   N1    S    
C1    O2    A    
C20   O5    A    
C13   N5    S    
C14   H13   S    
C5    C6    A    
Cu1   O3    S    
C28   H20   S    
C21   O7    A    
C8    H11   S    
C19   N2    D    
C29   H23   S    
C6    C7    A    
C14   C16   S    
C21   C23   S    
C15   C20   S    
Cu2   O8    S    
C27   H16   S    
Cu2   O2    S    
N4    H18   S    
C29   H25   S    
C7    C8    A    
C18   H5    S    
C23   C24   A    
N4    C28   S    
C3    C4    A    
C28   H21   S    
C7    C13   A    
C3    C25   A    
C16   C17   D    
C24   C25   A    
C15   H2    S    
C12   O3    A    
C18   C19   S    
C10   C11   A    
C4    N4    S    
Cu1   Cu2   S    
C17   H4    S    
C22   C23   A    
C4    C5    A    
H8    N2    S    
C19   H7    S    
C1    O1    A    
C25   C26   A    
C27   H15   S    
C2    C9    A    
Cu1   O1    S    
C9    H12   S    
C14   C15   D    
C12   O4    A    
N3    C27   S    
C28   H19   S    
C27   H17   S    
N5    C29   S    
