data_mof_unit_13481.cif
_audit_creation_date              2012-12-10T17:21:17-0500
_audit_creation_method            fapswitch 2.2
_symmetry_space_group_name_H-M    P1
_symmetry_Int_Tables_number       1
_space_group_crystal_system       triclinic
_cell_length_a                    9.651868
_cell_length_b                    10.824463
_cell_length_c                    13.860029
_cell_angle_alpha                 94.46779
_cell_angle_beta                  84.745292
_cell_angle_gamma                 89.81669
_cell_volume                      1437.49925656

loop_
_atom_site_label
_atom_site_type_symbol
_atom_type_description
_atom_site_fract_x
_atom_site_fract_y
_atom_site_fract_z
_atom_type_partial_charge
C1    C     C_R   0.498633 0.737515 0.509572 0.895402
C2    C     C_1   0.463286 0.499192 0.786021 -0.136079
C3    C     C_R   0.288010 0.886870 0.647121 0.423791
C4    C     C_R   0.174472 0.957994 0.691844 -0.229135
C5    C     C_R   0.166570 0.083871 0.680928 -0.172942
C6    C     C_R   0.273022 0.141663 0.627621 -0.144480
C7    C     C_R   0.385250 0.072545 0.576477 -0.037336
C8    C     C_R   0.388298 0.941719 0.582054 0.066844
C9    C     C_R   0.498443 0.872386 0.527808 -0.135984
C10   C     C_R   0.617462 0.932669 0.492670 -0.317130
C11   C     C_R   0.623636 0.060680 0.498659 0.435820
C12   C     C_R   0.477223 0.500316 0.682779 0.827968
C13   C     C_R   0.500671 0.130679 0.527025 -0.137927
C14   C     C_R   0.884376 0.390269 0.332272 -0.053833
C15   C     C_R   0.970930 0.390841 0.245235 -0.110946
C16   C     C_R   0.112239 0.378219 0.249810 -0.356290
C17   C     C_R   0.163358 0.377193 0.340709 0.461691
C18   C     C_R   0.085074 0.437810 0.423076 0.156075
C19   C     C_R   0.936092 0.439652 0.421475 0.084549
C20   C     C_R   0.917722 0.562813 0.571337 0.050436
C21   C     C_R   0.064750 0.560921 0.571644 -0.099830
C22   C     C_R   0.499390 0.263525 0.509285 0.848171
C23   C     C_R   0.522660 0.500581 0.317294 0.826430
C24   C     C_1   0.536195 0.501072 0.214033 -0.171294
C25   C     C_2   0.556707 0.502775 0.023377 -0.128472
C26   C     C_2   0.441888 0.496359 0.976652 -0.171618
C27   C     C_1   0.452357 0.497928 0.872938 0.019279
C28   C     C_1   0.546532 0.501738 0.127098 0.025026
Cu1   Cu    Cu3+1 0.359340 0.500010 0.500010 0.997322
Cu2   Cu    Cu3+1 0.640660 0.499990 0.499990 0.994498
H1    H     H_    0.339748 0.489963 0.015957 0.157490
H2    H     H_    0.178480 0.350394 0.184158 0.157715
H3    H     H_    0.112454 0.611407 0.629961 0.155600
H4    H     H_    0.658790 0.509240 0.984034 0.175916
H5    H     H_    0.707601 0.879816 0.459825 0.165644
H6    H     H_    0.095223 0.916905 0.739416 0.140662
H7    H     H_    0.081458 0.138538 0.719024 0.164245
H8    H     H_    0.267892 0.241316 0.632474 0.170459
N1    N     N_R   0.852210 0.498790 0.499090 -0.202174
N2    N     N_R   0.148080 0.498710 0.499060 -0.189831
O1    O     O_R   0.381190 0.680360 0.500010 -0.546190
O2    O     O_R   0.618760 0.680340 0.500000 -0.594912
O3    O     O_R   0.364420 0.499990 0.637850 -0.579430
O4    O     O_R   0.601990 0.499960 0.637840 -0.576236
O5    O     O_R   0.381240 0.319660 0.500000 -0.536475
O6    O     O_R   0.618810 0.319640 0.499990 -0.529916
O7    O     O_R   0.398010 0.500040 0.362160 -0.546851
O8    O     O_R   0.635580 0.500010 0.362150 -0.595642
C29   C     C_1   0.776672 0.298104 0.326096 0.414210
N3    N     N_1   0.692009 0.224312 0.314274 -0.283242
C30   C     C_1   0.916708 0.372957 0.151195 0.273169
N4    N     N_1   0.873542 0.358554 0.075986 -0.297488
O9    O     O_3   0.274137 0.300697 0.350642 -0.683636
H9    H     H_    0.311649 0.262143 0.286172 0.309043
O10   O     O_3   0.310443 0.769251 0.674893 -0.745635
H10   H     H_    0.239199 0.750875 0.727923 0.307166
O11   O     O_3   0.749198 0.118062 0.477083 -0.712507
H11   H     H_    0.824423 0.055131 0.461113 0.321021
C31   C     C_1   0.839365 0.641091 0.645679 0.284806
N5    N     N_1   0.777316 0.704829 0.705532 -0.286986

loop_
_geom_bond_atom_site_label_1
_geom_bond_atom_site_label_2
_ccdc_geom_bond_type
Cu2   N1    S    
C23   C24   S    
C4    H6    S    
Cu1   Cu2   S    
C15   C30   S    
C16   H2    S    
C24   C28   T    
C9    C10   A    
C7    C8    A    
C25   H4    S    
O10   H10   S    
C2    C27   T    
C2    C12   S    
C6    H8    S    
C17   C18   A    
C26   C27   S    
C1    C9    S    
C31   N5    T    
C12   O4    A    
O9    H9    S    
Cu1   O3    S    
C25   C28   S    
C11   C13   A    
Cu2   O4    S    
O11   H11   S    
C6    C7    A    
C21   N2    A    
C19   N1    A    
Cu1   O7    S    
C4    C5    A    
Cu1   N2    S    
Cu2   O8    S    
C22   O6    A    
C13   C22   S    
C3    C8    A    
C12   O3    A    
C5    H7    S    
C5    C6    A    
C10   H5    S    
C14   C29   S    
C21   H3    S    
C10   C11   A    
C15   C16   A    
C17   O9    S    
C1    O2    A    
C7    C13   A    
C22   O5    A    
C23   O7    A    
C20   C21   A    
C18   C19   A    
C26   H1    S    
C1    O1    A    
C29   N3    T    
C20   N1    A    
C18   N2    A    
C14   C15   A    
C16   C17   A    
C23   O8    A    
Cu1   O1    S    
C25   C26   D    
C11   O11   S    
C3    O10   S    
C14   C19   A    
Cu2   O6    S    
Cu2   O2    S    
C3    C4    A    
C30   N4    T    
Cu1   O5    S    
C8    C9    A    
C20   C31   S    
