data_mof_unit_51358.cif
_audit_creation_date              2012-10-26T19:38:02-0400
_audit_creation_method            fapswitch 2.2
_symmetry_space_group_name_H-M    P1
_symmetry_Int_Tables_number       1
_space_group_crystal_system       triclinic
_cell_length_a                    10.611597
_cell_length_b                    15.819282
_cell_length_c                    17.008915
_cell_angle_alpha                 94.939303
_cell_angle_beta                  89.881383
_cell_angle_gamma                 92.740413
_cell_volume                      2841.38770972

loop_
_atom_site_label
_atom_site_type_symbol
_atom_type_description
_atom_site_fract_x
_atom_site_fract_y
_atom_site_fract_z
_atom_type_partial_charge
C1    C     C_R   0.498235 0.490883 0.348464 0.549684
C2    C     C_R   0.583074 0.245341 0.516602 0.006209
C3    C     C_R   0.422646 0.843773 0.485444 -0.140180
C4    C     C_R   0.576630 0.156355 0.515671 -0.138848
C5    C     C_R   0.534059 0.890892 0.510327 0.198497
C6    C     C_R   0.466337 0.109084 0.488911 0.198697
C7    C     C_R   0.636623 0.845360 0.534806 -0.032913
C8    C     C_R   0.364724 0.154484 0.462871 -0.032727
C9    C     C_R   0.623593 0.756046 0.534769 0.019031
C10   C     C_R   0.377537 0.243853 0.463387 0.019074
C11   C     C_R   0.259137 0.499945 0.499994 0.553546
C12   C     C_R   0.502490 0.509273 0.651289 0.549684
C13   C     C_R   0.740866 0.500058 0.500061 0.551581
C14   C     C_3   0.035022 0.419236 0.495820 -0.113523
C15   C     C_3   0.964990 0.580778 0.504311 -0.114417
C16   C     C_3   0.955232 0.457795 0.433209 -0.123350
C17   C     C_3   0.044788 0.542218 0.566923 -0.122692
C18   C     C_3   0.877655 0.500403 0.500106 0.045733
C19   C     C_3   0.122355 0.499609 0.500018 0.045847
C20   C     C_3   0.955134 0.461943 0.562728 -0.127513
C21   C     C_3   0.044871 0.538070 0.437404 -0.128548
C22   C     C_R   0.488116 0.490748 0.262513 -0.026821
C23   C     C_R   0.445384 0.501830 0.100956 0.218536
C24   C     C_R   0.510017 0.511437 0.737021 -0.019751
C25   C     C_R   0.523482 0.565034 0.227365 -0.142893
C26   C     C_R   0.577474 0.450362 0.771450 -0.144303
C27   C     C_R   0.500418 0.572549 0.147668 0.033730
C28   C     C_R   0.585691 0.450805 0.853418 0.021673
C29   C     C_R   0.759669 0.889055 0.558046 0.027774
C30   C     C_R   0.872122 0.859816 0.523786 -0.113792
C31   C     C_R   0.988298 0.900651 0.545221 -0.100310
C32   C     C_R   0.993424 0.970958 0.600936 -0.092305
C33   C     C_R   0.882433 0.000313 0.635588 -0.128143
C34   C     C_R   0.521091 0.511501 0.901660 0.220511
C35   C     C_R   0.766047 0.959431 0.614625 -0.081014
C36   C     C_R   0.242959 0.110519 0.437270 0.027398
C37   C     C_R   0.128837 0.139168 0.469571 -0.113488
C38   C     C_R   0.013864 0.098000 0.445935 -0.100363
C39   C     C_R   0.011630 0.027963 0.389938 -0.092891
C40   C     C_R   0.124318 0.999222 0.357192 -0.127728
C41   C     C_R   0.239516 0.040424 0.380378 -0.081007
C42   C     C_3   0.660536 0.384201 0.888433 -0.267604
C43   C     C_3   0.574063 0.309735 0.909489 -0.418946
C44   C     C_3   0.532932 0.657553 0.116007 -0.259320
C45   C     C_R   0.408583 0.426660 0.136242 -0.009479
C46   C     C_3   0.447913 0.726019 0.151779 -0.444072
C47   C     C_R   0.346711 0.352456 0.089690 0.040044
C48   C     C_R   0.241948 0.362597 0.041407 -0.077124
C49   C     C_R   0.185016 0.292573 0.997084 -0.118182
C50   C     C_R   0.231396 0.211848 0.000922 -0.106772
C51   C     C_R   0.334496 0.200924 0.049355 -0.120559
C52   C     C_R   0.391808 0.270755 0.093773 -0.112588
C53   C     C_R   0.384573 0.640064 0.912955 0.048301
C54   C     C_R   0.265375 0.621396 0.944917 -0.067713
C55   C     C_R   0.198568 0.685772 0.985131 -0.121700
C56   C     C_R   0.452264 0.573383 0.866548 -0.006431
C57   C     C_R   0.249312 0.769269 0.992464 -0.112474
C58   C     C_R   0.366924 0.788517 0.959539 -0.121255
C59   C     C_R   0.434212 0.724251 0.919508 -0.113384
C60   C     C_R   0.431634 0.421601 0.216832 -0.166863
C61   C     C_R   0.449372 0.573334 0.784416 -0.166911
C62   C     C_R   0.416009 0.754807 0.484827 0.004040
Cu1   Cu    Cu3+1 0.493870 0.415220 0.496180 0.927263
Cu2   Cu    Cu3+1 0.506130 0.584780 0.503820 0.924533
H1    H     H_    0.915286 0.423301 0.378596 0.111591
H2    H     H_    0.567211 0.618774 0.262734 0.135221
H3    H     H_    0.401170 0.364883 0.244490 0.130625
H4    H     H_    0.397120 0.620523 0.757331 0.130591
H5    H     H_    0.667123 0.280241 0.539370 0.124751
H6    H     H_    0.331008 0.720082 0.463424 0.127835
H7    H     H_    0.656765 0.125316 0.537316 0.119675
H8    H     H_    0.341679 0.874909 0.465058 0.120148
H9    H     H_    0.869772 0.805977 0.479841 0.089301
H10   H     H_    0.074312 0.878147 0.518206 0.108637
H11   H     H_    0.083370 0.002812 0.617086 0.119051
H12   H     H_    0.084775 0.576700 0.621532 0.109773
H13   H     H_    0.886589 0.054664 0.678901 0.097428
H14   H     H_    0.681228 0.982314 0.642950 0.121823
H15   H     H_    0.128931 0.192772 0.513713 0.090554
H16   H     H_    0.926530 0.120020 0.471479 0.109825
H17   H     H_    0.922601 0.995846 0.372085 0.116700
H18   H     H_    0.122412 0.945090 0.313650 0.097029
H19   H     H_    0.325731 0.018000 0.353538 0.121195
H20   H     H_    0.500638 0.332033 0.951727 0.199473
H21   H     H_    0.630088 0.262632 0.937079 0.128202
H22   H     H_    0.527493 0.278265 0.855529 0.148807
H23   H     H_    0.701426 0.721746 0.554755 0.129881
H24   H     H_    0.732667 0.359876 0.845839 0.120076
H25   H     H_    0.712592 0.412160 0.941818 0.161609
H26   H     H_    0.347260 0.706496 0.140269 0.167250
H27   H     H_    0.463236 0.737561 0.216434 0.142507
H28   H     H_    0.469877 0.786439 0.124777 0.139706
H29   H     H_    0.633036 0.676732 0.130055 0.127738
H30   H     H_    0.523313 0.655135 0.051349 0.197001
H31   H     H_    0.203793 0.424528 0.038424 0.111590
H32   H     H_    0.104687 0.300884 0.959883 0.099762
H33   H     H_    0.187245 0.157727 0.966521 0.104123
H34   H     H_    0.300551 0.278154 0.442234 0.127918
H35   H     H_    0.370291 0.138345 0.052313 0.102790
H36   H     H_    0.472483 0.261307 0.130362 0.105489
H37   H     H_    0.224105 0.557213 0.938308 0.112239
H38   H     H_    0.107139 0.671028 0.010200 0.099926
H39   H     H_    0.197441 0.819056 0.023541 0.102387
H40   H     H_    0.405880 0.853244 0.964979 0.102044
H41   H     H_    0.524846 0.739926 0.893714 0.104521
H42   H     H_    0.066361 0.353052 0.492285 0.108633
H43   H     H_    0.933672 0.646967 0.507836 0.108422
H44   H     H_    0.915032 0.430849 0.613898 0.099261
H45   H     H_    0.084945 0.569172 0.386233 0.103996
H46   H     H_    0.625008 0.402705 0.734253 0.118312
N1    N     N_2   0.430296 0.503839 0.018576 -0.264335
N2    N     N_2   0.533519 0.511648 0.984465 -0.265992
N3    N     N_R   0.515330 0.712130 0.509560 -0.230290
N4    N     N_R   0.484670 0.287870 0.490440 -0.229144
N5    N     N_2   0.548457 0.981815 0.508820 -0.250576
N6    N     N_2   0.451890 0.018151 0.490306 -0.250527
O1    O     O_R   0.494270 0.420530 0.382500 -0.495489
O2    O     O_R   0.505730 0.579470 0.617500 -0.494513
O3    O     O_R   0.504620 0.563720 0.388950 -0.501740
O4    O     O_R   0.495380 0.436280 0.611050 -0.496906
O5    O     O_R   0.311680 0.428420 0.496760 -0.515802
O6    O     O_R   0.688320 0.571580 0.503240 -0.517490
O7    O     O_R   0.322030 0.571610 0.503210 -0.511220
O8    O     O_R   0.677970 0.428390 0.496790 -0.511883

loop_
_geom_bond_atom_site_label_1
_geom_bond_atom_site_label_2
_ccdc_geom_bond_type
C15   C18   S    
C45   C60   A    
C34   C56   A    
C24   C61   A    
C23   C45   A    
C48   H31   S    
C34   N2    S    
C54   H37   S    
N1    N2    D    
C32   H11   S    
Cu1   O8    S    
C53   C59   A    
C53   C54   A    
C37   H15   S    
C55   H38   S    
C11   C19   S    
C59   H41   S    
Cu2   O3    S    
C13   C18   S    
C7    C29   S    
C36   C37   A    
C19   C21   S    
C24   C26   A    
C1    O3    A    
C30   C31   A    
Cu1   O1    S    
C53   C56   S    
C46   H28   S    
N5    N6    D    
C41   H19   S    
C17   C20   S    
Cu2   O2    S    
C62   H6    S    
C15   C17   S    
C8    C36   S    
C15   H43   S    
C10   H34   S    
Cu1   O4    S    
C44   H29   S    
C17   C19   S    
C12   O4    A    
Cu1   N4    S    
C27   C44   S    
C31   C32   A    
C60   H3    S    
C22   C25   A    
C17   H12   S    
C23   C27   A    
C2    H5    S    
C26   H46   S    
C10   N4    A    
C28   C34   A    
C1    C22   S    
C5    N5    S    
C43   H20   S    
C36   C41   A    
C11   O5    A    
Cu1   O5    S    
C44   C46   S    
C45   C47   S    
C51   H35   S    
C57   H39   S    
C51   C52   A    
C43   H21   S    
C14   C20   S    
C39   H17   S    
C62   N3    A    
C4    C6    A    
C39   C40   A    
C5    C7    A    
C30   H9    S    
C31   H10   S    
C6    C8    A    
C46   H27   S    
C58   C59   A    
C52   H36   S    
C2    C4    A    
C37   C38   A    
C40   H18   S    
C47   C48   A    
C14   H42   S    
C50   C51   A    
C1    O1    A    
C6    N6    S    
C12   O2    A    
C16   C18   S    
C48   C49   A    
C55   C57   A    
C14   C16   S    
C42   H24   S    
C42   C43   S    
C3    C62   A    
C7    C9    A    
C12   C24   S    
C54   C55   A    
C40   C41   A    
C50   H33   S    
Cu2   N3    S    
C43   H22   S    
C14   C19   S    
C11   O7    A    
C25   H2    S    
C3    C5    A    
C21   H45   S    
C16   C21   S    
C47   C52   A    
C46   H26   S    
C25   C27   A    
Cu2   O7    S    
C23   N1    S    
C29   C35   A    
C35   H14   S    
C26   C28   A    
C42   H25   S    
C9    N3    A    
C32   C33   A    
C3    H8    S    
C9    H23   S    
C22   C60   A    
C13   O6    A    
C2    N4    A    
C61   H4    S    
C33   H13   S    
C57   C58   A    
C38   C39   A    
C38   H16   S    
Cu2   O6    S    
C28   C42   S    
C33   C35   A    
C13   O8    A    
C18   C20   S    
C49   H32   S    
C44   H30   S    
C29   C30   A    
Cu1   Cu2   S    
C15   C21   S    
C58   H40   S    
C8    C10   A    
C49   C50   A    
C56   C61   A    
C16   H1    S    
C4    H7    S    
C20   H44   S    
