data_mof_unit_53221.cif
_audit_creation_date              2012-12-11T14:08:32-0500
_audit_creation_method            fapswitch 2.2
_symmetry_space_group_name_H-M    P1
_symmetry_Int_Tables_number       1
_space_group_crystal_system       triclinic
_cell_length_a                    28.103046
_cell_length_b                    7.201281
_cell_length_c                    17.220614
_cell_angle_alpha                 90.108791
_cell_angle_beta                  101.571577
_cell_angle_gamma                 90.089972
_cell_volume                      3414.22479335

loop_
_atom_site_label
_atom_site_type_symbol
_atom_type_description
_atom_site_fract_x
_atom_site_fract_y
_atom_site_fract_z
_atom_type_partial_charge
O1    O     O_R   0.000700 0.436510 0.857920 -0.532863
O2    O     O_R   0.999300 0.563490 0.142080 -0.532868
O3    O     O_R   0.999300 0.936510 0.642080 -0.533333
O4    O     O_R   0.000700 0.063490 0.357920 -0.533337
O5    O     O_R   0.930080 0.766380 0.721890 -0.541754
O6    O     O_R   0.069920 0.233620 0.278110 -0.541742
O7    O     O_R   0.069920 0.266380 0.778110 -0.542253
O8    O     O_R   0.930080 0.733620 0.221890 -0.542254
C1    C     C_R   0.910534 0.597459 0.709048 0.695264
C2    C     C_R   0.089464 0.402540 0.290948 0.695256
C3    C     C_R   0.089493 0.097827 0.790581 0.696175
C4    C     C_R   0.910507 0.902173 0.209418 0.696185
O9    O     O_R   0.996180 0.766230 0.862310 -0.542765
O10   O     O_R   0.003820 0.233770 0.137690 -0.542766
O11   O     O_R   0.003820 0.266230 0.637690 -0.542897
O12   O     O_R   0.996180 0.733770 0.362310 -0.542891
O13   O     O_R   0.065870 0.936460 0.783500 -0.539015
O14   O     O_R   0.934130 0.063540 0.216500 -0.539015
O15   O     O_R   0.934130 0.436460 0.716500 -0.539258
O16   O     O_R   0.065870 0.563540 0.283500 -0.539255
C5    C     C_R   0.998485 0.596510 0.894491 0.760309
C6    C     C_R   0.001515 0.403490 0.105509 0.760290
C7    C     C_R   0.001518 0.096356 0.605549 0.760099
C8    C     C_R   0.998482 0.903644 0.394451 0.760107
O17   O     O_3   0.022790 0.603020 0.723980 -0.378230
O18   O     O_3   0.977210 0.396980 0.276020 -0.378229
O19   O     O_3   0.977210 0.103020 0.776020 -0.378032
O20   O     O_3   0.022790 0.896980 0.223980 -0.378035
V1    V     V_3+5 0.995770 0.877900 0.754830 1.411691
V2    V     V_3+5 0.004230 0.122100 0.245170 1.411691
V3    V     V_3+5 0.004230 0.377900 0.745170 1.411330
V4    V     V_3+5 0.995770 0.622100 0.254830 1.411323
C9    C     C_2   0.001707 0.082522 0.519638 -0.330481
C10   C     C_2   0.998293 0.917478 0.480362 -0.330477
C11   C     C_2   0.998309 0.582594 0.980463 -0.329115
C12   C     C_2   0.001691 0.417406 0.019537 -0.329111
H1    H     H_    0.004499 0.211262 0.488079 0.153907
H2    H     H_    0.995501 0.788738 0.511921 0.153910
H3    H     H_    0.995548 0.711308 0.012225 0.153771
H4    H     H_    0.004452 0.288692 0.987775 0.153772
C13   C     C_R   0.684353 0.009118 0.034340 0.588086
C14   C     C_R   0.315642 0.990800 0.965638 0.588096
C15   C     C_R   0.316662 0.438374 0.473363 0.587776
C16   C     C_R   0.683337 0.561698 0.526629 0.587818
O21   O     O_2   0.715290 0.067310 0.988762 -0.517656
O22   O     O_2   0.284705 0.932501 0.011194 -0.517653
O23   O     O_2   0.287125 0.411074 0.525166 -0.511199
O24   O     O_2   0.712874 0.589036 0.474829 -0.511157
N1    N     N_R   0.702254 0.938573 0.108319 -0.557402
N2    N     N_R   0.297743 0.061422 0.891673 -0.557421
N3    N     N_R   0.297327 0.449200 0.393863 -0.560991
N4    N     N_R   0.702671 0.550852 0.606127 -0.561033
C17   C     C_R   0.671421 0.871912 0.154232 0.571831
C18   C     C_R   0.328575 0.128158 0.845775 0.571855
C19   C     C_R   0.326404 0.482155 0.340312 0.570309
C20   C     C_R   0.673597 0.517878 0.659679 0.570358
C21   C     C_R   0.782056 0.092477 0.148998 -0.085555
C22   C     C_R   0.222282 0.243058 0.850641 -0.079205
C23   C     C_R   0.217970 0.596714 0.344716 -0.089134
C24   C     C_R   0.778169 0.736450 0.637253 -0.086705
C25   C     C_R   0.832619 0.083801 0.172984 -0.191680
C26   C     C_R   0.171688 0.252160 0.826578 -0.193060
C27   C     C_R   0.167491 0.585676 0.319933 -0.191037
C28   C     C_R   0.828703 0.748115 0.662561 -0.190615
C29   C     C_R   0.828303 0.747858 0.173578 -0.193093
C30   C     C_R   0.167391 0.916197 0.826857 -0.191675
C31   C     C_R   0.171266 0.251992 0.337816 -0.190729
C32   C     C_R   0.832528 0.414212 0.679659 -0.190909
C33   C     C_R   0.777709 0.756961 0.149512 -0.079173
C34   C     C_R   0.217953 0.907523 0.850844 -0.085573
C35   C     C_R   0.221800 0.263675 0.363128 -0.086666
C36   C     C_R   0.782050 0.403187 0.654871 -0.089187
C37   C     C_R   0.754210 0.929266 0.136694 0.374070
C38   C     C_R   0.245789 0.070743 0.863301 0.374159
C39   C     C_R   0.245419 0.436098 0.366728 0.383444
C40   C     C_R   0.754578 0.563923 0.633258 0.383691
C41   C     C_R   0.601724 0.958423 0.052418 -0.048031
C42   C     C_R   0.398272 0.041575 0.947575 -0.048032
C43   C     C_R   0.397740 0.484462 0.447189 -0.049416
C44   C     C_R   0.602260 0.515600 0.552804 -0.049413
C45   C     C_R   0.633885 0.017598 0.004731 -0.072224
C46   C     C_R   0.366110 0.982349 0.995254 -0.072211
C47   C     C_R   0.367079 0.459693 0.501525 -0.075205
C48   C     C_R   0.632920 0.540376 0.498468 -0.075220
C49   C     C_R   0.615243 0.068541 0.926307 -0.127864
C50   C     C_R   0.384751 0.931398 0.073677 -0.127884
C51   C     C_R   0.386701 0.473543 0.582610 -0.130918
C52   C     C_R   0.613298 0.526528 0.417382 -0.130914
C53   C     C_R   0.620688 0.879807 0.126960 -0.015797
C54   C     C_R   0.379308 0.120240 0.873043 -0.015812
C55   C     C_R   0.377050 0.500359 0.365975 -0.013241
C56   C     C_R   0.622950 0.499689 0.634018 -0.013269
C57   C     C_R   0.856552 0.911259 0.185235 -0.053016
C58   C     C_R   0.143449 0.088747 0.814764 -0.053018
C59   C     C_R   0.143346 0.413136 0.316210 -0.052060
C60   C     C_R   0.856651 0.586860 0.683777 -0.052100
H5    H     H_    0.845221 0.612480 0.182312 0.133651
H6    H     H_    0.147128 0.787256 0.818228 0.135017
H7    H     H_    0.154099 0.116897 0.335991 0.131909
H8    H     H_    0.852579 0.287005 0.695593 0.136083
H9    H     H_    0.756800 0.629607 0.139708 0.125939
H10   H     H_    0.235532 0.773420 0.860287 0.123062
H11   H     H_    0.242616 0.138590 0.380032 0.117584
H12   H     H_    0.764260 0.269093 0.651840 0.116139
H13   H     H_    0.639962 0.100928 0.887377 0.178994
H14   H     H_    0.360031 0.898995 0.112605 0.178977
H15   H     H_    0.362766 0.468317 0.624632 0.182764
H16   H     H_    0.637233 0.531754 0.375360 0.182757
C61   C     C_R   0.481225 0.076541 0.924187 0.048879
C62   C     C_R   0.518771 0.923476 0.075809 0.048887
C63   C     C_R   0.520434 0.489823 0.582098 0.050518
C64   C     C_R   0.479566 0.510238 0.417896 0.050527
C65   C     C_R   0.467998 0.960902 0.053164 -0.010882
C66   C     C_R   0.531997 0.039096 0.946828 -0.010896
C67   C     C_R   0.531099 0.500377 0.443232 -0.013065
C68   C     C_R   0.468900 0.499687 0.556762 -0.013071
C69   C     C_R   0.449358 0.023968 0.974797 0.050698
C70   C     C_R   0.550638 0.976035 0.025196 0.050695
C71   C     C_R   0.551006 0.504303 0.525862 0.050563
C72   C     C_R   0.448993 0.495761 0.474132 0.050558
C73   C     C_R   0.461422 0.180524 0.855857 -0.215432
C74   C     C_R   0.538574 0.819522 0.144147 -0.215432
C75   C     C_R   0.542669 0.448370 0.661103 -0.217548
C76   C     C_R   0.457331 0.551682 0.338890 -0.217555
C77   C     C_R   0.411384 0.196056 0.829148 -0.154812
C78   C     C_R   0.588613 0.804016 0.170862 -0.154829
C79   C     C_R   0.592846 0.457892 0.687100 -0.155882
C80   C     C_R   0.407154 0.542149 0.312892 -0.155902
O25   O     O_2   0.310320 0.200285 0.773726 -0.518062
O26   O     O_2   0.689674 0.799890 0.226302 -0.518072
O27   O     O_2   0.693561 0.503408 0.737497 -0.516936
O28   O     O_2   0.306444 0.496569 0.262490 -0.516983
C81   C     C_R   0.565371 0.053888 0.894233 0.117528
C82   C     C_R   0.434622 0.946093 0.105756 0.117534
C83   C     C_R   0.435788 0.520160 0.609648 0.115747
C84   C     C_R   0.564211 0.479905 0.390346 0.115745
H17   H     H_    0.154762 0.387540 0.817976 0.133633
H18   H     H_    0.852888 0.212738 0.181481 0.135008
H19   H     H_    0.845848 0.883305 0.664703 0.131894
H20   H     H_    0.147457 0.712782 0.303678 0.136172
H21   H     H_    0.243185 0.370409 0.860569 0.125892
H22   H     H_    0.764486 0.226577 0.139432 0.123108
H23   H     H_    0.757332 0.861630 0.620659 0.117395
H24   H     H_    0.235778 0.730729 0.347437 0.116374
H25   H     H_    0.397924 0.268561 0.774115 0.162324
H26   H     H_    0.602073 0.731543 0.225902 0.162326
H27   H     H_    0.607926 0.432217 0.749109 0.163460
H28   H     H_    0.392074 0.567811 0.250883 0.163463
H29   H     H_    0.484382 0.253152 0.822635 0.119366
H30   H     H_    0.515616 0.746903 0.177374 0.119363
H31   H     H_    0.521569 0.405153 0.703691 0.116800
H32   H     H_    0.478431 0.594898 0.296301 0.116804
C85   C     C_3   0.551052 0.025021 0.804916 -0.400189
C86   C     C_3   0.579313 0.867473 0.775282 -0.710263
H33   H     H_    0.618497 0.901174 0.782799 0.240609
H34   H     H_    0.574869 0.737036 0.807454 0.230211
H35   H     H_    0.565056 0.845430 0.710982 0.222179
H36   H     H_    0.512511 0.984393 0.786131 0.198969
H37   H     H_    0.557683 0.154791 0.774595 0.181430
C87   C     C_3   0.448935 0.975007 0.195070 -0.400204
C88   C     C_3   0.420673 0.132583 0.224680 -0.710237
H38   H     H_    0.425128 0.263006 0.192506 0.230203
H39   H     H_    0.381486 0.098906 0.217146 0.240621
H40   H     H_    0.434920 0.154641 0.288982 0.222181
H41   H     H_    0.442301 0.845257 0.225402 0.181433
H42   H     H_    0.487476 0.015635 0.213861 0.198966
C89   C     C_3   0.448892 0.618673 0.689651 -0.400049
C90   C     C_3   0.414940 0.780868 0.697404 -0.706303
H43   H     H_    0.413561 0.879703 0.647538 0.235864
H44   H     H_    0.377717 0.731852 0.699001 0.236552
H45   H     H_    0.428780 0.855242 0.753864 0.221589
H46   H     H_    0.448051 0.518224 0.738065 0.176104
H47   H     H_    0.485402 0.682435 0.698426 0.202664
C91   C     C_3   0.551108 0.381379 0.310345 -0.400066
C92   C     C_3   0.585061 0.219184 0.302598 -0.706275
H48   H     H_    0.622283 0.268201 0.300996 0.236553
H49   H     H_    0.586442 0.120363 0.352470 0.235867
H50   H     H_    0.571219 0.144794 0.246143 0.221593
H51   H     H_    0.514598 0.317615 0.301571 0.202665
H52   H     H_    0.551949 0.481821 0.261929 0.176109

loop_
_geom_bond_atom_site_label_1
_geom_bond_atom_site_label_2
_ccdc_geom_bond_type
O17   V3    S    
C82   C87   S    
N1    C17   A    
C22   C26   A    
C30   H6    S    
C91   H52   S    
O19   V1    S    
O13   V1    S    
C27   H20   S    
O3    C7    A    
C11   C12   D    
C14   C46   A    
C44   C48   A    
O4    V2    S    
O15   V3    S    
C62   C70   A    
C88   H38   S    
C78   H26   S    
C61   C69   A    
C92   H49   S    
C68   C83   A    
C42   C54   A    
O1    C5    A    
C41   C53   A    
C32   C60   A    
C21   H22   S    
C81   C85   S    
C74   H30   S    
C63   C71   A    
N3    C39   S    
C18   C54   A    
N2    C38   S    
C24   H23   S    
C11   H3    S    
C52   H16   S    
C25   C57   A    
C25   H18   S    
C31   C35   A    
C67   C84   A    
C27   C59   A    
O1    V3    S    
C15   C47   A    
O2    V4    S    
C14   O22   S    
C21   C37   A    
C85   H36   S    
O3    V1    S    
C34   C38   A    
C19   C55   A    
C73   C77   A    
C91   C92   S    
C1    O15   A    
C90   H45   S    
C2    O16   A    
C7    C9    S    
O2    C6    A    
C33   C37   A    
C63   C68   A    
O14   V2    S    
C87   H42   S    
C79   H27   S    
C86   H34   S    
C31   H7    S    
C30   C58   A    
C16   N4    A    
O11   C7    A    
C76   H32   S    
C44   C71   A    
O12   C8    A    
C31   C59   A    
C50   H14   S    
O10   V2    S    
C49   H13   S    
C13   N1    A    
C88   H39   S    
C50   C82   A    
C92   H50   S    
O5    V1    S    
C53   C78   A    
C84   C91   S    
O7    V3    S    
C55   C80   A    
C63   C75   A    
O8    V4    S    
C51   C83   A    
C12   H4    S    
C42   C69   A    
C52   C84   A    
C86   H35   S    
C41   C70   A    
C89   C90   S    
C64   C72   A    
O18   V4    S    
C80   H28   S    
C36   H12   S    
N4    C40   S    
C46   C50   A    
O11   V3    S    
C24   C40   A    
C8    C10   S    
C68   C72   A    
C32   C36   A    
C74   C78   A    
O7    C3    A    
C32   H8    S    
O5    C1    A    
C54   C77   A    
C42   C46   A    
C75   C79   A    
C92   H48   S    
C1    C60   S    
C41   C45   A    
O8    C4    A    
C13   C45   A    
C43   C72   A    
C9    C10   D    
O9    C5    A    
C36   C40   A    
N2    C18   A    
C87   H41   S    
C21   C25   A    
C44   C56   A    
C62   C65   A    
C28   C60   A    
C86   H33   S    
C66   C70   A    
C61   C66   A    
C14   N2    A    
C65   C69   A    
C3    C58   S    
C90   H43   S    
O6    V2    S    
C23   H24   S    
C67   C71   A    
C65   C82   A    
C26   C58   A    
C17   C53   A    
N1    C37   S    
C4    C57   S    
C56   C79   A    
C23   C39   A    
C76   C80   A    
C88   H40   S    
C85   H37   S    
C22   C38   A    
O16   V4    S    
O9    V1    S    
C18   O25   S    
C35   H11   S    
C3    O13   A    
C83   C89   S    
C10   H2    S    
C43   C55   A    
C75   H31   S    
C48   C52   A    
C17   O26   S    
C16   C48   A    
C47   C51   A    
O6    C2    A    
C34   H10   S    
C64   C76   A    
C89   H46   S    
C5    C11   S    
C33   H9    S    
O12   V4    S    
C6    C12   S    
C23   C27   A    
C89   H47   S    
C24   C28   A    
C87   C88   S    
O10   C6    A    
O20   V2    S    
C29   H5    S    
C77   H25   S    
C62   C74   A    
C35   C39   A    
C22   H21   S    
C15   N3    A    
C30   C34   A    
C2    C59   S    
O4    C8    A    
C29   C33   A    
C90   H44   S    
C29   C57   A    
C66   C81   A    
C73   H29   S    
N3    C19   A    
C26   H17   S    
C9    H1    S    
C20   O27   S    
C43   C47   A    
N4    C20   A    
C20   C56   A    
C51   H15   S    
C19   O28   S    
C4    O14   A    
C13   O21   S    
C61   C73   A    
C85   C86   S    
C15   O23   S    
C91   H51   S    
C64   C67   A    
C45   C49   A    
C16   O24   S    
C49   C81   A    
C28   H19   S    
