data_mof_unit_53247.cif
_audit_creation_date              2012-12-10T17:40:50-0500
_audit_creation_method            fapswitch 2.2
_symmetry_space_group_name_H-M    P1
_symmetry_Int_Tables_number       1
_space_group_crystal_system       triclinic
_cell_length_a                    14.750983
_cell_length_b                    15.575796
_cell_length_c                    9.940842
_cell_angle_alpha                 90.00002
_cell_angle_beta                  91.305297
_cell_angle_gamma                 90.0
_cell_volume                      2283.39830015

loop_
_atom_site_label
_atom_site_type_symbol
_atom_type_description
_atom_site_fract_x
_atom_site_fract_y
_atom_site_fract_z
_atom_type_partial_charge
C1    C     C_R   0.383961 0.875898 0.501354 0.964676
C2    C     C_R   0.688250 0.245151 0.391862 0.352290
C3    C     C_R   0.188250 0.254849 0.391861 0.352291
C4    C     C_R   0.211885 0.724059 0.374976 0.362248
C5    C     C_R   0.665473 0.795509 0.493861 -0.253193
C6    C     C_R   0.671945 0.200430 0.511872 -0.212585
C7    C     C_R   0.171945 0.299569 0.511872 -0.212585
C8    C     C_R   0.165472 0.704491 0.493861 -0.253193
C9    C     C_R   0.327408 0.009089 0.123921 0.450869
C10   C     C_R   0.827408 0.490911 0.123921 0.450867
C11   C     C_R   0.249404 0.023074 0.041841 0.567556
C12   C     C_R   0.385165 0.124592 0.498572 0.966278
C13   C     C_R   0.749404 0.476926 0.041841 0.567556
C14   C     C_R   0.254794 0.022661 0.904728 0.478119
C15   C     C_R   0.754794 0.477339 0.904728 0.478119
C16   C     C_R   0.337191 0.009839 0.846774 -0.330109
C17   C     C_R   0.837191 0.490161 0.846774 -0.330108
C18   C     C_R   0.418736 0.005195 0.922575 0.021242
C19   C     C_R   0.918736 0.494805 0.922575 0.021242
C20   C     C_R   0.416822 0.004997 0.067007 -0.034962
C21   C     C_R   0.916822 0.495003 0.067007 -0.034961
C22   C     C_R   0.578308 0.995598 0.076788 0.515695
C23   C     C_R   0.885165 0.375408 0.498572 0.966278
C24   C     C_R   0.078308 0.504402 0.076788 0.515696
C25   C     C_R   0.614121 0.125191 0.502665 0.917578
C26   C     C_R   0.611726 0.873467 0.499043 0.960151
C27   C     C_R   0.111726 0.626533 0.499043 0.960151
C28   C     C_R   0.114121 0.374809 0.502665 0.917579
C29   C     C_R   0.578623 0.995184 0.932857 0.424312
C30   C     C_R   0.078623 0.504816 0.932857 0.424313
C31   C     C_R   0.380038 0.255803 0.712783 0.619919
C32   C     C_R   0.303141 0.802837 0.762859 0.623595
C33   C     C_R   0.803141 0.697163 0.762859 0.623594
C34   C     C_R   0.883961 0.624102 0.501354 0.964675
C35   C     C_R   0.880038 0.244197 0.712783 0.619918
C36   C     C_R   0.358712 0.286991 0.839447 0.564280
C37   C     C_R   0.243361 0.800121 0.869894 0.505667
C38   C     C_R   0.743361 0.699879 0.869894 0.505668
C39   C     C_R   0.858713 0.213009 0.839447 0.564280
C40   C     C_R   0.652637 0.719225 0.846403 -0.311920
C41   C     C_R   0.769417 0.192573 0.866925 -0.399535
C42   C     C_R   0.269417 0.307427 0.866925 -0.399535
C43   C     C_R   0.152637 0.780774 0.846404 -0.311920
C44   C     C_R   0.624061 0.745661 0.718891 0.671925
C45   C     C_R   0.265399 0.206287 0.382989 0.650235
C46   C     C_R   0.703383 0.194312 0.764099 0.707750
C47   C     C_R   0.203383 0.305688 0.764099 0.707750
C48   C     C_R   0.124061 0.754339 0.718892 0.671925
C49   C     C_R   0.686184 0.751571 0.613483 -0.200072
C50   C     C_R   0.726987 0.215696 0.629813 -0.146274
C51   C     C_R   0.226987 0.284304 0.629813 -0.146274
C52   C     C_R   0.186184 0.748429 0.613483 -0.200073
C53   C     C_R   0.311521 0.245775 0.612036 -0.307384
C54   C     C_R   0.271669 0.786603 0.628148 -0.240195
C55   C     C_R   0.771669 0.713397 0.628148 -0.240196
C56   C     C_R   0.289521 0.772069 0.383394 0.633657
C57   C     C_R   0.811521 0.254225 0.612036 -0.307384
C58   C     C_R   0.324265 0.197257 0.494750 -0.243631
C59   C     C_R   0.318929 0.806239 0.507093 -0.245005
C60   C     C_R   0.818929 0.693761 0.507093 -0.245005
C61   C     C_R   0.824265 0.302743 0.494750 -0.243631
C62   C     C_R   0.789522 0.727931 0.383394 0.633657
C63   C     C_R   0.765399 0.293713 0.382989 0.650236
C64   C     C_R   0.711885 0.775941 0.374976 0.362248
F1    F     F_    0.281016 0.166917 0.264236 -0.602128
F2    F     F_    0.968124 0.259721 0.685712 -0.569971
F3    F     F_    0.423923 0.293823 0.937263 -0.529697
F4    F     F_    0.273677 0.816930 0.996936 -0.567522
F5    F     F_    0.773677 0.683070 0.996936 -0.567523
F6    F     F_    0.923923 0.206177 0.937263 -0.529698
F7    F     F_    0.534797 0.760210 0.695205 -0.581860
F8    F     F_    0.616200 0.185909 0.801887 -0.539045
F9    F     F_    0.116200 0.314091 0.801887 -0.539045
F10   F     F_    0.034797 0.739790 0.695205 -0.581860
F11   F     F_    0.166240 0.033512 0.095699 -0.554021
F12   F     F_    0.335099 0.786277 0.268095 -0.550253
F13   F     F_    0.666240 0.466488 0.095699 -0.554021
F14   F     F_    0.835099 0.713723 0.268095 -0.550253
F15   F     F_    0.781015 0.333083 0.264236 -0.602128
F16   F     F_    0.178614 0.030513 0.826527 -0.577873
F17   F     F_    0.678613 0.469487 0.826527 -0.577873
F18   F     F_    0.468124 0.240279 0.685712 -0.569971
F19   F     F_    0.391969 0.811050 0.796678 -0.549944
F20   F     F_    0.891969 0.688949 0.796678 -0.549944
H1    H     H_    0.333147 0.002046 0.741347 0.245197
H2    H     H_    0.566795 0.237574 0.315003 0.354735
H3    H     H_    0.066795 0.262426 0.315002 0.354735
H4    H     H_    0.116506 0.708328 0.242491 0.358061
H5    H     H_    0.710584 0.990270 0.095305 0.389087
H6    H     H_    0.210584 0.509730 0.095305 0.389087
H7    H     H_    0.248847 0.990044 0.277931 0.373570
H8    H     H_    0.748847 0.509957 0.277931 0.373570
H9    H     H_    0.833146 0.497954 0.741347 0.245197
H10   H     H_    0.605171 0.716739 0.927798 0.245006
H11   H     H_    0.751112 0.174961 0.968143 0.255546
H12   H     H_    0.251112 0.325039 0.968143 0.255546
H13   H     H_    0.105171 0.783261 0.927798 0.245006
H14   H     H_    0.652848 0.999978 0.775934 0.388287
H15   H     H_    0.152848 0.500022 0.775934 0.388287
H16   H     H_    0.616506 0.791672 0.242490 0.358061
N1    N     N_R   0.498810 1.000000 0.142780 -0.122574
N2    N     N_R   0.998810 0.500000 0.142780 -0.122574
N3    N     N_R   0.498740 1.000000 0.857170 -0.111456
N4    N     N_R   0.998740 0.500000 0.857170 -0.111456
O1    O     O_R   0.408390 0.908380 0.614690 -0.584862
O2    O     O_R   0.591620 0.908390 0.614640 -0.604366
O3    O     O_R   0.091620 0.591610 0.614640 -0.604366
O4    O     O_R   0.091620 0.408390 0.614640 -0.577053
O5    O     O_R   0.591610 0.091610 0.385310 -0.577607
O6    O     O_R   0.591610 0.908390 0.385310 -0.578054
O7    O     O_R   0.091610 0.591610 0.385310 -0.578053
O8    O     O_R   0.091610 0.408390 0.385310 -0.577608
O9    O     O_3   0.661419 0.989580 0.872456 -0.779615
O10   O     O_3   0.161419 0.510420 0.872456 -0.779615
O11   O     O_3   0.682884 0.801690 0.248504 -0.626389
O12   O     O_R   0.408390 0.091620 0.614690 -0.619637
O13   O     O_3   0.629315 0.244248 0.281906 -0.625264
O14   O     O_3   0.129315 0.255752 0.281906 -0.625264
O15   O     O_3   0.182884 0.698310 0.248504 -0.626390
O16   O     O_3   0.657319 0.992431 0.153853 -0.672690
O17   O     O_3   0.157319 0.507569 0.153853 -0.672691
O18   O     O_3   0.313892 0.996893 0.257482 -0.659015
O19   O     O_3   0.813892 0.503107 0.257482 -0.659015
O20   O     O_R   0.908390 0.408380 0.614690 -0.619637
O21   O     O_R   0.908390 0.591620 0.614690 -0.584862
O22   O     O_R   0.408370 0.908380 0.385360 -0.525263
O23   O     O_R   0.408370 0.091620 0.385360 -0.539266
O24   O     O_R   0.908370 0.408380 0.385360 -0.539265
O25   O     O_R   0.908370 0.591620 0.385360 -0.525263
O26   O     O_R   0.591620 0.091610 0.614640 -0.577053
Zn1   Zn    Zn3+2 0.500010 1.000000 0.653130 1.070670
Zn2   Zn    Zn3+2 0.000010 0.500000 0.653130 1.070670
Zn3   Zn    Zn3+2 0.499980 1.000000 0.346870 1.112091
Zn4   Zn    Zn3+2 0.999980 0.500000 0.346870 1.112091

loop_
_geom_bond_atom_site_label_1
_geom_bond_atom_site_label_2
_ccdc_geom_bond_type
C44   C49   A    
C33   C55   A    
C56   F12   S    
C22   C29   A    
C36   C42   A    
C4    C8    A    
C26   O2    A    
H15   O10   S    
C36   F3    S    
C15   F17   S    
C12   O23   A    
C63   F15   S    
C28   O8    A    
C22   O16   S    
C29   N3    A    
C22   N1    A    
C42   H12   S    
C19   C21   A    
C3    C7    A    
C1    C59   S    
C11   C14   A    
C6    C25   S    
C37   F4    S    
C62   F14   S    
O20   Zn2   S    
C44   F7    S    
C60   C62   A    
C61   C63   A    
C62   C64   A    
O23   Zn3   S    
O22   Zn3   S    
H7    O18   S    
C41   C46   A    
C4    O15   S    
C14   F16   S    
C43   C48   A    
C8    C52   A    
C40   C44   A    
C46   F8    S    
C25   O5    A    
C18   N3    A    
C12   C58   S    
C38   F5    S    
C27   O7    A    
C64   O11   S    
C55   C60   A    
C4    C56   A    
C34   C60   S    
C5    C49   A    
C2    C6    A    
H16   O11   S    
C25   O26   A    
C32   C54   A    
C2    O13   S    
C52   C54   A    
C54   C59   A    
C10   C21   A    
O2    Zn1   S    
C13   F13   S    
C45   C58   A    
O5    Zn3   S    
C48   F10   S    
C1    O22   A    
C47   F9    S    
H3    O14   S    
O1    Zn1   S    
C10   O19   S    
H8    O19   S    
C40   H10   S    
H14   O9    S    
C47   C51   A    
C20   N1    A    
C35   F2    S    
C49   C55   A    
C3    C45   A    
C6    C50   A    
C7    C28   S    
O25   Zn4   S    
C5    C64   A    
C51   C53   A    
C37   C43   A    
C35   C39   A    
N2    Zn4   S    
C3    O14   S    
O24   Zn4   S    
C24   N2    A    
C9    C11   A    
C19   N4    A    
C9    C20   A    
H5    O16   S    
C27   O3    A    
C9    O18   S    
C32   C37   A    
C31   C53   A    
H4    O15   S    
C31   F18   S    
C21   N2    A    
C13   C15   A    
C45   F1    S    
C16   H1    S    
H6    O17   S    
C14   C16   A    
C17   H9    S    
C30   N4    A    
C2    C63   A    
C30   O10   S    
C23   C61   S    
C15   C17   A    
C32   F19   S    
C26   O6    A    
C50   C57   A    
C34   O25   A    
C43   H13   S    
O8    Zn4   S    
O3    Zn2   S    
C10   C13   A    
C53   C58   A    
O7    Zn4   S    
C57   C61   A    
C23   O20   A    
N1    Zn3   S    
C46   C50   A    
C33   C38   A    
C56   C59   A    
C35   C57   A    
O26   Zn1   S    
C7    C51   A    
C11   F11   S    
C38   C40   A    
O21   Zn2   S    
C41   H11   S    
O12   Zn1   S    
C28   O4    A    
C34   O21   A    
C24   O17   S    
C17   C19   A    
C39   F6    S    
H2    O13   S    
C18   C20   A    
C42   C47   A    
C33   F20   S    
C24   C30   A    
O4    Zn2   S    
C5    C26   S    
C48   C52   A    
C39   C41   A    
C16   C18   A    
N4    Zn2   S    
C29   O9    S    
C8    C27   S    
C31   C36   A    
O6    Zn3   S    
N3    Zn1   S    
C1    O1    A    
C23   O24   A    
C12   O12   A    
