data_mof_unit_46043.cif
_audit_creation_date              2012-12-10T17:02:13-0500
_audit_creation_method            fapswitch 2.2
_symmetry_space_group_name_H-M    P1
_symmetry_Int_Tables_number       1
_space_group_crystal_system       triclinic
_cell_length_a                    10.65135
_cell_length_b                    10.742399
_cell_length_c                    10.04003
_cell_angle_alpha                 88.110295
_cell_angle_beta                  89.546518
_cell_angle_gamma                 90.851372
_cell_volume                      1147.99867394

loop_
_atom_site_label
_atom_site_type_symbol
_atom_type_description
_atom_site_fract_x
_atom_site_fract_y
_atom_site_fract_z
_atom_type_partial_charge
C1    C     C_R   0.494362 0.262504 0.502701 0.800599
C2    C     C_R   0.062523 0.391465 0.571747 0.107567
C3    C     C_R   0.127672 0.488660 0.501284 -0.075222
C4    C     C_R   0.065964 0.580262 0.426979 -0.206153
C5    C     C_R   0.937626 0.580028 0.425635 -0.211983
C6    C     C_R   0.871286 0.488135 0.498545 -0.064480
C7    C     C_2   0.447684 0.933004 0.404315 -0.160770
C8    C     C_2   0.518311 0.867531 0.489127 -0.236306
C9    C     C_2   0.453202 0.067499 0.401995 -0.292707
C10   C     C_2   0.476026 0.130446 0.512773 0.376146
C11   C     C_2   0.575338 0.569333 0.921974 -0.118236
C12   C     C_R   0.260373 0.496489 0.500583 0.860793
C13   C     C_2   0.579435 0.564693 0.072066 -0.129510
C14   C     C_R   0.504114 0.736812 0.497481 0.890927
C15   C     C_R   0.739353 0.497507 0.499549 0.866782
C16   C     C_R   0.124607 0.293272 0.639318 -0.299934
C17   C     C_R   0.056784 0.198397 0.706933 -0.220889
C18   C     C_R   0.925965 0.197982 0.708259 0.603797
C19   C     C_R   0.863383 0.292132 0.635526 -0.305223
C20   C     C_R   0.931101 0.390948 0.569954 0.033740
H1    H     H_    0.117501 0.653516 0.372213 0.151766
H2    H     H_    0.640194 0.632953 0.869667 0.169333
H3    H     H_    0.443949 0.436683 0.900484 0.158489
H4    H     H_    0.651787 0.619756 0.119028 0.161496
H5    H     H_    0.429198 0.453604 0.104477 0.164069
H6    H     H_    0.225591 0.288072 0.638708 0.163150
H7    H     H_    0.106117 0.124186 0.758643 0.149404
H8    H     H_    0.762548 0.285441 0.627703 0.165102
H9    H     H_    0.889708 0.653342 0.370325 0.148641
H10   H     H_    0.384548 0.887510 0.335889 0.159134
H11   H     H_    0.589278 0.908377 0.551650 0.203047
H12   H     H_    0.435662 0.115621 0.307227 0.149184
N1    N     N_2   0.501340 0.501330 0.852150 -0.194447
N2    N     N_2   0.501380 0.501360 0.147810 -0.191169
O1    O     O_R   0.499980 0.319060 0.613040 -0.608392
O2    O     O_R   0.500020 0.319100 0.386900 -0.636452
O3    O     O_R   0.316750 0.499980 0.613090 -0.613728
O4    O     O_R   0.316790 0.500020 0.386950 -0.614853
O5    O     O_R   0.499980 0.680900 0.613100 -0.597301
O6    O     O_R   0.500020 0.680940 0.386960 -0.611408
O7    O     O_R   0.683210 0.499980 0.613050 -0.618220
O8    O     O_R   0.683250 0.500020 0.386910 -0.609576
Zn1   Zn    Zn3+2 0.499970 0.499970 0.650990 0.943300
Zn2   Zn    Zn3+2 0.500030 0.500030 0.349010 0.938750
O9    O     O_3   0.487153 0.072352 0.637780 -0.615595
C21   C     C_3   0.368060 0.059882 0.699223 -0.316391
H13   H     H_    0.291636 0.036755 0.628493 0.163768
H14   H     H_    0.346505 0.145821 0.752624 0.168634
H15   H     H_    0.371379 0.982479 0.774948 0.197299
O10   O     O_3   0.863159 0.098233 0.771598 -0.615192
C22   C     C_3   0.765334 0.140017 0.853934 -0.287838
H16   H     H_    0.680258 0.160799 0.794566 0.213007
H17   H     H_    0.794185 0.222244 0.911953 0.150557
H18   H     H_    0.739508 0.063928 0.926859 0.193498

loop_
_geom_bond_atom_site_label_1
_geom_bond_atom_site_label_2
_ccdc_geom_bond_type
O3    Zn1   S    
O5    Zn1   S    
O4    Zn2   S    
C19   H8    S    
C2    C16   A    
C9    C10   D    
C11   H2    S    
C5    H9    S    
C19   C20   A    
C11   N1    D    
H5    N2    S    
C22   H18   S    
O1    Zn1   S    
C10   O9    S    
C17   C18   A    
C14   O5    A    
C13   N2    D    
C7    H10   S    
O9    C21   S    
C12   O4    A    
C4    H1    S    
O7    Zn1   S    
C21   H15   S    
C18   O10   S    
O8    Zn2   S    
C6    C20   A    
C15   O8    A    
O10   C22   S    
C2    C3    A    
C16   H6    S    
C5    C6    A    
C21   H14   S    
O2    Zn2   S    
C11   C13   S    
C7    C8    D    
C2    C20   A    
C3    C4    A    
N1    Zn1   S    
O6    Zn2   S    
N2    Zn2   S    
C15   O7    A    
C18   C19   A    
C12   O3    A    
C7    C9    S    
C1    O1    A    
C21   H13   S    
C4    C5    A    
C8    C14   S    
C3    C12   S    
C9    H12   S    
C22   H17   S    
C6    C15   S    
C1    O2    A    
C8    H11   S    
C14   O6    A    
C1    C10   S    
C22   H16   S    
C13   H4    S    
C16   C17   A    
H3    N1    S    
C17   H7    S    
