data_mof_unit_48350.cif
_audit_creation_date              2013-03-05T15:57:41-0500
_audit_creation_method            fapswitch 2.2
_symmetry_space_group_name_H-M    P1
_symmetry_Int_Tables_number       1
_space_group_crystal_system       triclinic
_cell_length_a                    19.396038
_cell_length_b                    17.698468
_cell_length_c                    12.610387
_cell_angle_alpha                 89.996736
_cell_angle_beta                  100.233493
_cell_angle_gamma                 90.001041
_cell_volume                      4260.03122624

loop_
_atom_site_label
_atom_site_type_symbol
_atom_site_description
_atom_site_fract_x
_atom_site_fract_y
_atom_site_fract_z
_atom_type_partial_charge
O1    O     O_R   0.448200 0.076800 0.373930 -0.615648
O2    O     O_R   0.448200 0.923200 0.373930 -0.605330
O3    O     O_R   0.948200 0.576800 0.373930 -0.605314
O4    O     O_R   0.948200 0.423200 0.373930 -0.615667
O5    O     O_R   0.414750 0.076790 0.542400 -0.630120
O6    O     O_R   0.414750 0.923210 0.542400 -0.601603
O7    O     O_R   0.914750 0.576790 0.542400 -0.601585
O8    O     O_R   0.914750 0.423210 0.542400 -0.630147
C1    C     C_R   0.412464 0.104055 0.444289 0.836230
C2    C     C_R   0.408491 0.900063 0.441653 0.848187
C3    C     C_R   0.908494 0.599940 0.441652 0.848200
C4    C     C_R   0.912482 0.395926 0.444309 0.836255
Zn1   Zn    Zn3+2 0.522330 0.000000 0.387520 0.934404
Zn2   Zn    Zn3+2 0.022330 0.500000 0.387520 0.934406
Zn3   Zn    Zn3+2 0.477660 0.000000 0.612480 0.924790
Zn4   Zn    Zn3+2 0.977660 0.500000 0.612480 0.924765
O9    O     O_R   0.585240 0.923200 0.457600 -0.612988
O10   O     O_R   0.585240 0.076800 0.457600 -0.611834
O11   O     O_R   0.085240 0.423200 0.457600 -0.611807
O12   O     O_R   0.085240 0.576800 0.457600 -0.612997
O13   O     O_R   0.551780 0.923190 0.626070 -0.607555
O14   O     O_R   0.551780 0.076810 0.626070 -0.625444
O15   O     O_R   0.051780 0.423190 0.626070 -0.625478
O16   O     O_R   0.051780 0.576810 0.626070 -0.607552
C5    C     C_R   0.589318 0.897780 0.556644 0.852189
C6    C     C_R   0.589981 0.102233 0.556940 0.842003
C7    C     C_R   0.089976 0.397763 0.556943 0.841996
C8    C     C_R   0.089318 0.602220 0.556641 0.852208
C9    C     C_R   0.739992 0.202633 0.729711 -0.191054
C10   C     C_R   0.639606 0.700869 0.641079 -0.194299
C11   C     C_R   0.139629 0.799114 0.641130 -0.194305
C12   C     C_R   0.240039 0.297425 0.729661 -0.191060
H1    H     H_    0.647202 0.153117 0.763921 0.152984
H2    H     H_    0.567294 0.780594 0.687544 0.161514
H3    H     H_    0.067324 0.719377 0.687600 0.161528
H4    H     H_    0.147308 0.347009 0.763956 0.153009
H5    H     H_    0.760505 0.209891 0.814634 0.149113
H6    H     H_    0.620791 0.656535 0.687636 0.153624
H7    H     H_    0.120832 0.843435 0.687723 0.153626
H8    H     H_    0.260612 0.290241 0.814581 0.149125
C13   C     C_R   0.646791 0.155927 0.592486 -0.054203
C14   C     C_R   0.631916 0.830901 0.583476 -0.053114
C15   C     C_R   0.131916 0.669097 0.583470 -0.053127
C16   C     C_R   0.146762 0.344043 0.592486 -0.054172
C17   C     C_R   0.371562 0.786960 0.332351 -0.181521
C18   C     C_R   0.339972 0.178751 0.300732 -0.188231
C19   C     C_R   0.840152 0.321037 0.300818 -0.188253
C20   C     C_R   0.871598 0.713079 0.332396 -0.181529
C21   C     C_R   0.329934 0.722981 0.312599 -0.153485
C22   C     C_R   0.287362 0.231276 0.268556 -0.151261
C23   C     C_R   0.787636 0.268404 0.268672 -0.151246
C24   C     C_R   0.829992 0.777076 0.312676 -0.153479
C25   C     C_R   0.276169 0.710950 0.370437 -0.173185
C26   C     C_R   0.257218 0.268939 0.345667 -0.175284
C27   C     C_R   0.757474 0.230767 0.345794 -0.175340
C28   C     C_R   0.776223 0.789102 0.370508 -0.173181
C29   C     C_R   0.261114 0.765213 0.446017 0.085575
C30   C     C_R   0.281944 0.256730 0.457263 0.081409
C31   C     C_R   0.782095 0.243113 0.457376 0.081416
C32   C     C_R   0.761141 0.734817 0.446047 0.085573
C33   C     C_R   0.296358 0.834891 0.452716 0.036673
C34   C     C_R   0.343340 0.214387 0.488141 0.030339
C35   C     C_R   0.843430 0.285549 0.488264 0.030388
C36   C     C_R   0.796370 0.665130 0.452721 0.036694
C37   C     C_R   0.747086 0.216823 0.539254 0.028258
C38   C     C_R   0.712369 0.747441 0.515107 0.036825
C39   C     C_R   0.212356 0.752574 0.515094 0.036823
C40   C     C_R   0.246989 0.283072 0.539173 0.028279
C41   C     C_R   0.778296 0.224429 0.649918 0.148573
C42   C     C_R   0.689951 0.686835 0.575161 0.146833
C43   C     C_R   0.189960 0.813165 0.575190 0.146839
C44   C     C_R   0.278280 0.275567 0.649824 0.148542
C45   C     C_R   0.217518 0.886108 0.566224 0.170111
C46   C     C_R   0.346674 0.246443 0.677324 0.160645
C47   C     C_R   0.846667 0.253606 0.677469 0.160608
C48   C     C_R   0.717503 0.613892 0.566177 0.170119
C49   C     C_R   0.271014 0.895858 0.506628 -0.206472
C50   C     C_R   0.378947 0.217728 0.595718 -0.213054
C51   C     C_R   0.878976 0.282304 0.595881 -0.213074
C52   C     C_R   0.771009 0.604153 0.506601 -0.206481
C53   C     C_R   0.680203 0.186008 0.513517 -0.233554
C54   C     C_R   0.686079 0.819602 0.526936 -0.233840
C55   C     C_R   0.186066 0.680411 0.526909 -0.233858
C56   C     C_R   0.180095 0.313870 0.513494 -0.233497
C57   C     C_R   0.674499 0.169262 0.700887 -0.218465
C58   C     C_R   0.609929 0.772318 0.643684 -0.201618
C59   C     C_R   0.109947 0.727665 0.643717 -0.201617
C60   C     C_R   0.174541 0.330790 0.700886 -0.218507
C61   C     C_R   0.356411 0.841951 0.404906 -0.101918
C62   C     C_R   0.366688 0.168308 0.410712 -0.097590
C63   C     C_R   0.866776 0.331606 0.410797 -0.097628
C64   C     C_R   0.856426 0.658069 0.404915 -0.101918
H9    H     H_    0.653023 0.183576 0.431359 0.155848
H10   H     H_    0.704849 0.868219 0.488915 0.136396
H11   H     H_    0.204827 0.631804 0.488862 0.136422
H12   H     H_    0.152852 0.316248 0.431368 0.155764
H13   H     H_    0.416838 0.792306 0.293457 0.160522
H14   H     H_    0.358556 0.145168 0.239722 0.150152
H15   H     H_    0.858744 0.354588 0.239780 0.150193
H16   H     H_    0.916878 0.707735 0.293510 0.160510
H17   H     H_    0.715965 0.191682 0.315656 0.128647
H18   H     H_    0.746185 0.840238 0.352319 0.121256
H19   H     H_    0.246113 0.659828 0.352225 0.121270
H20   H     H_    0.215634 0.307931 0.315497 0.128652
H21   H     H_    0.341155 0.681000 0.255573 0.139075
H22   H     H_    0.267607 0.240263 0.183657 0.137775
H23   H     H_    0.767964 0.259309 0.183779 0.137777
H24   H     H_    0.841232 0.819074 0.255680 0.139076
H25   H     H_    0.291886 0.952124 0.500529 0.160404
H26   H     H_    0.432169 0.197192 0.617003 0.176663
H27   H     H_    0.932178 0.302889 0.617209 0.176738
H28   H     H_    0.791875 0.547887 0.500487 0.160389
C65   C     C_R   0.629373 0.935663 0.141958 -0.302680
C66   C     C_R   0.129379 0.564330 0.141949 -0.302692
H29   H     H_    0.653495 0.962724 0.309489 0.129089
H30   H     H_    0.153498 0.537267 0.309484 0.129096
H31   H     H_    0.648631 0.899643 0.949604 0.159429
H32   H     H_    0.148639 0.600346 0.949589 0.159429
H33   H     H_    0.680001 0.909910 0.141241 0.138844
H34   H     H_    0.180009 0.590077 0.141228 0.138836
N1    N     N_R   0.552340 0.000000 0.237260 -0.110087
N2    N     N_R   0.052340 0.500000 0.237260 -0.110088
C67   C     C_R   0.380954 0.023162 0.759428 0.015996
C68   C     C_R   0.880950 0.476853 0.759432 0.015966
C69   C     C_R   0.353288 0.028796 0.853912 0.171282
C70   C     C_R   0.853277 0.471246 0.853916 0.171320
C71   C     C_R   0.395234 0.008979 0.951278 -0.205505
C72   C     C_R   0.895226 0.491059 0.951279 -0.205508
C73   C     C_R   0.465009 0.985657 0.954493 -0.064475
C74   C     C_R   0.965006 0.514360 0.954491 -0.064482
C75   C     C_R   0.490658 0.979835 0.856520 0.170924
C76   C     C_R   0.990657 0.520172 0.856516 0.170927
C77   C     C_R   0.512826 0.975086 0.051686 0.004858
C78   C     C_R   0.012826 0.524924 0.051683 0.004860
C79   C     C_R   0.578519 0.940567 0.048859 0.145410
C80   C     C_R   0.078523 0.559433 0.048851 0.145416
C81   C     C_R   0.596333 0.921243 0.950659 -0.283607
C82   C     C_R   0.096338 0.578754 0.950648 -0.283609
C83   C     C_R   0.561938 0.959734 0.860606 0.204798
C84   C     C_R   0.061938 0.540266 0.860602 0.204826
C85   C     C_R   0.500726 0.002965 0.150422 -0.040667
C86   C     C_R   0.000724 0.497044 0.150422 -0.040694
C87   C     C_R   0.615558 0.967717 0.235840 0.022914
C88   C     C_R   0.115561 0.532277 0.235835 0.022947
N3    N     N_R   0.448170 1.000000 0.762060 -0.144827
N4    N     N_R   0.948170 0.500000 0.762060 -0.144841
H35   H     H_    0.451328 0.026864 0.161174 0.117748
H36   H     H_    0.951324 0.473149 0.161175 0.117762
H37   H     H_    0.348782 0.037769 0.683231 0.152276
H38   H     H_    0.848776 0.462245 0.683239 0.152285
H39   H     H_    0.372344 0.012296 0.023198 0.146051
H40   H     H_    0.872335 0.487759 0.023200 0.146071
C89   C     C_3   0.280434 0.057836 0.852622 -0.959532
H41   H     H_    0.255343 0.076494 0.770809 0.247427
H42   H     H_    0.247980 0.012846 0.880476 0.250566
H43   H     H_    0.282247 0.107074 0.907616 0.242003
C90   C     C_3   0.780409 0.442248 0.852630 -0.959577
H44   H     H_    0.755320 0.423572 0.770827 0.247428
H45   H     H_    0.782192 0.393034 0.907665 0.241994
H46   H     H_    0.747971 0.487269 0.880434 0.250581
C91   C     C_3   0.609385 0.015841 0.821437 -0.808423
H47   H     H_    0.656918 0.028036 0.882752 0.197086
H48   H     H_    0.629151 0.995906 0.749554 0.259388
H49   H     H_    0.581218 0.070301 0.811118 0.236020
C92   C     C_3   0.109375 0.484154 0.821439 -0.808518
H50   H     H_    0.129154 0.504095 0.749567 0.259386
H51   H     H_    0.156899 0.471941 0.882765 0.197077
H52   H     H_    0.081195 0.429700 0.811106 0.236045
C93   C     C_3   0.191370 0.953880 0.619714 -0.942212
H53   H     H_    0.217773 0.006757 0.601430 0.239359
H54   H     H_    0.134296 0.961121 0.590527 0.245910
H55   H     H_    0.201362 0.945807 0.708324 0.249684
C94   C     C_3   0.385605 0.243939 0.792142 -0.931126
H56   H     H_    0.439375 0.220805 0.797631 0.244004
H57   H     H_    0.390114 0.301867 0.826465 0.241029
H58   H     H_    0.357327 0.207248 0.841436 0.246732
C95   C     C_3   0.885532 0.256193 0.792317 -0.931187
H59   H     H_    0.939291 0.279365 0.797850 0.244016
H60   H     H_    0.857197 0.292888 0.841514 0.246750
H61   H     H_    0.890058 0.198286 0.826718 0.241038
C96   C     C_3   0.691333 0.546107 0.619624 -0.942188
H62   H     H_    0.717752 0.493236 0.601363 0.239357
H63   H     H_    0.701287 0.554168 0.708235 0.249664
H64   H     H_    0.634264 0.538864 0.590380 0.245910

loop_
_geom_bond_atom_site_label_1
_geom_bond_atom_site_label_2
_geom_bond_distance
_ccdc_geom_bond_type
C30   C34   1.402345 A    
C67   H37   1.080007 S    
C39   C55   1.392962 A    
C92   H50   1.103035 S    
Zn2   N2    2.078730 S    
C27   C31   1.420201 A    
C36   C52   1.409601 A    
C93   H53   1.110466 S    
N1    C87   1.355772 A    
C4    C63   1.458518 S    
C14   C54   1.384974 A    
N2    C88   1.355767 A    
C91   H47   1.114071 S    
C19   H15   1.083368 S    
C12   C44   1.406698 A    
C35   C51   1.409914 A    
C94   H56   1.111071 S    
H4    C60   1.069235 S    
O7    C3    1.319793 A    
C81   C83   1.389052 A    
C90   H44   1.109892 S    
Zn1   O10   1.932446 S    
C54   H10   1.079235 S    
C26   H20   1.078179 S    
C53   H9    1.076616 S    
H32   C82   1.086319 S    
C56   H12   1.076621 S    
C37   C41   1.425443 A    
C67   C69   1.394539 A    
C38   C54   1.392988 A    
C12   C60   1.389413 A    
C43   C45   1.409457 A    
C15   C55   1.384955 A    
C76   N4    1.369901 A    
C10   H6    1.081485 S    
Zn4   N4    2.066040 S    
H2    C58   1.083392 S    
O2    Zn1   1.963840 S    
H1    C57   1.069255 S    
O13   C5    1.313541 A    
C10   C42   1.412329 A    
O6    Zn3   1.932324 S    
H30   C88   1.081194 S    
H3    C59   1.083395 S    
C3    C64   1.458325 S    
C72   H40   1.079886 S    
Zn3   O14   1.963821 S    
C76   C84   1.419611 A    
C67   N3    1.361421 A    
C2    C61   1.458306 S    
C69   C89   1.501024 S    
C95   H60   1.109020 S    
O10   C6    1.318904 A    
C20   C64   1.402240 A    
C48   C52   1.395791 A    
C41   C47   1.407926 A    
C14   C58   1.395821 A    
O15   C7    1.319389 A    
O4    C4    1.311118 A    
O11   C7    1.318916 A    
C23   C27   1.390631 A    
C40   C44   1.425515 A    
C71   H39   1.079886 S    
C11   C43   1.412327 A    
C18   H14   1.083375 S    
C32   C38   1.412782 A    
O8    Zn4   1.932324 S    
C65   H33   1.084101 S    
C77   C79   1.419240 A    
C93   H54   1.110221 S    
C74   C78   1.411909 A    
C19   C63   1.403796 A    
C29   C39   1.412756 A    
C23   H23   1.082778 S    
C7    C16   1.463750 S    
C91   H48   1.103026 S    
C33   C61   1.409025 A    
C9    C41   1.406705 A    
C94   H57   1.110259 S    
C20   H16   1.083392 S    
H29   C87   1.081196 S    
C11   C59   1.392197 A    
C40   C56   1.391440 A    
Zn2   O12   1.932446 S    
C83   C91   1.496122 S    
O1    C1    1.311079 A    
O14   C6    1.319417 A    
C46   C94   1.509990 S    
C44   C46   1.407921 A    
C96   H63   1.108879 S    
C33   C49   1.409612 A    
Zn3   N3    2.066040 S    
C75   C83   1.419630 A    
C25   C29   1.419493 A    
C19   C23   1.386684 A    
O12   C8    1.316624 A    
C96   H62   1.110496 S    
C68   N4    1.361424 A    
C65   C87   1.381317 A    
C66   C88   1.381318 A    
C90   H45   1.110380 S    
C74   C76   1.415257 A    
C71   C73   1.408594 A    
O5    C1    1.321350 A    
C69   C71   1.391947 A    
N1    C85   1.347068 A    
C78   C86   1.397397 A    
Zn1   N1    2.078730 S    
C37   C53   1.391413 A    
C17   C21   1.387326 A    
O8    C4    1.321335 A    
C95   H61   1.110250 S    
C13   C53   1.387213 A    
C52   H28   1.082814 S    
C50   H26   1.082280 S    
C22   C26   1.390631 A    
C55   H11   1.079242 S    
C89   H43   1.110390 S    
C49   H25   1.082810 S    
C86   H36   1.077720 S    
C89   H42   1.110010 S    
O3    Zn2   1.963862 S    
C82   C84   1.389053 A    
C73   C77   1.411896 A    
C80   C82   1.386323 A    
O7    Zn4   1.932283 S    
Zn4   O15   1.963844 S    
C21   H21   1.082698 S    
C65   C79   1.395447 A    
C9    H5    1.081794 S    
C93   H55   1.108867 S    
C10   C58   1.392192 A    
N2    C86   1.347083 A    
C1    C62   1.458481 S    
C45   C93   1.507528 S    
C48   C96   1.507524 S    
O2    C2    1.312961 A    
C91   H49   1.104162 S    
C17   C61   1.402259 A    
C68   C70   1.394554 A    
C26   C30   1.420302 A    
C96   H64   1.110249 S    
C30   C40   1.411679 A    
C84   C92   1.496078 S    
C79   C81   1.386327 A    
C68   H38   1.080010 S    
C70   C72   1.391951 A    
C9    C57   1.389451 A    
Zn2   O11   1.932406 S    
C34   C50   1.409930 A    
H31   C81   1.086322 S    
O16   C8    1.313522 A    
C16   C56   1.387210 A    
C72   C74   1.408577 A    
C5    C14   1.448735 S    
O6    C2    1.319805 A    
C78   C80   1.419231 A    
C29   C33   1.405233 A    
C92   H52   1.104183 S    
C18   C62   1.403834 A    
C51   H27   1.082264 S    
C90   H46   1.109995 S    
C13   C57   1.397201 A    
C18   C22   1.386711 A    
C8    C15   1.448722 S    
C31   C35   1.402292 A    
Zn1   O9    1.932406 S    
C32   C36   1.405256 A    
C15   C59   1.395837 A    
C70   C90   1.501014 S    
O9    C5    1.316612 A    
C17   H13   1.083393 S    
C31   C37   1.411644 A    
C42   C48   1.409457 A    
C66   C80   1.395449 A    
C38   C42   1.424799 A    
Zn3   O13   1.963844 S    
C25   H19   1.078734 S    
C21   C25   1.391059 A    
C34   C62   1.407396 A    
C27   H17   1.078160 S    
C94   H58   1.109059 S    
C11   H7    1.081492 S    
C75   N3    1.369885 A    
C39   C43   1.424802 A    
C12   H8    1.081820 S    
O4    Zn2   1.963840 S    
C47   C95   1.509948 S    
Zn4   O16   1.963821 S    
O5    Zn3   1.932283 S    
O3    C3    1.312983 A    
C85   H35   1.077718 S    
C28   H18   1.078726 S    
C28   C32   1.419484 A    
C20   C24   1.387326 A    
O1    Zn1   1.963862 S    
C24   H24   1.082690 S    
C45   C49   1.395791 A    
C92   H51   1.114077 S    
C95   H59   1.111057 S    
C46   C50   1.392164 A    
C35   C63   1.407448 A    
C22   H22   1.082837 S    
C36   C64   1.409044 A    
C77   C85   1.397392 A    
C89   H41   1.109893 S    
C16   C60   1.397210 A    
C47   C51   1.392204 A    
C66   H34   1.084098 S    
C24   C28   1.391067 A    
C6    C13   1.463784 S    
C73   C75   1.415259 A    
