data_mof_unit_22269.cif
_audit_creation_date              2012-12-10T16:52:02-0500
_audit_creation_method            fapswitch 2.2
_symmetry_space_group_name_H-M    P1
_symmetry_Int_Tables_number       1
_space_group_crystal_system       triclinic
_cell_length_a                    7.751473
_cell_length_b                    8.566076
_cell_length_c                    14.904988
_cell_angle_alpha                 90.872326
_cell_angle_beta                  86.080818
_cell_angle_gamma                 93.365079
_cell_volume                      985.607498783

loop_
_atom_site_label
_atom_site_type_symbol
_atom_type_description
_atom_site_fract_x
_atom_site_fract_y
_atom_site_fract_z
_atom_type_partial_charge
C1    C     C_R   0.544815 0.794629 0.497803 0.943219
C2    C     C_R   0.584283 0.632466 0.811675 0.109741
C3    C     C_R   0.491062 0.496945 0.232293 -0.101160
C4    C     C_R   0.508938 0.503055 0.767707 -0.101159
C5    C     C_R   0.566819 0.626003 0.186527 -0.223084
C6    C     C_R   0.433181 0.373997 0.813473 -0.223084
C7    C     C_R   0.570090 0.630098 0.093649 0.070769
C8    C     C_R   0.429910 0.369902 0.906351 0.070769
C9    C     C_R   0.497472 0.499538 0.047009 0.016295
C10   C     C_R   0.502528 0.500462 0.952991 0.016295
C11   C     C_R   0.420052 0.367906 0.094373 0.054108
C12   C     C_R   0.455185 0.205371 0.502197 0.943219
C13   C     C_R   0.579947 0.632094 0.905627 0.054108
C14   C     C_R   0.644961 0.760740 0.046313 0.162494
C15   C     C_R   0.355039 0.239260 0.953687 0.162494
C16   C     C_R   0.649569 0.760409 0.953269 -0.175466
C17   C     C_R   0.350431 0.239591 0.046731 -0.175467
C18   C     C_2   0.563137 0.955275 0.482425 -0.061907
C19   C     C_2   0.436863 0.044725 0.517575 -0.061907
C20   C     C_R   0.502903 0.501600 0.672741 0.917625
C21   C     C_R   0.497097 0.498400 0.327259 0.917625
C22   C     C_R   0.415717 0.367534 0.188325 0.109741
H1    H     H_    0.622813 0.722405 0.224739 0.189950
H2    H     H_    0.377187 0.277595 0.775261 0.189950
H3    H     H_    0.708167 0.862656 0.919359 0.210482
H4    H     H_    0.291833 0.137344 0.080641 0.210482
H5    H     H_    0.014194 0.382806 0.432219 0.224995
H6    H     H_    0.985806 0.617193 0.567780 0.224995
I1    I     I_    0.303401 0.172540 0.265759 -0.292624
I2    I     I_    0.696599 0.827460 0.734241 -0.292625
I3    I     I_    0.753915 0.965963 0.108110 -0.283463
I4    I     I_    0.246085 0.034037 0.891890 -0.283463
I5    I     I_    0.767589 0.020020 0.382021 -0.220787
I6    I     I_    0.232411 0.979980 0.617978 -0.220787
N1    N     N_2   0.950330 0.457950 0.475660 -0.153004
N2    N     N_2   0.049670 0.542050 0.524340 -0.153004
O1    O     O_R   0.389250 0.738570 0.505970 -0.598750
O2    O     O_R   0.610750 0.261430 0.494030 -0.598750
O3    O     O_R   0.678390 0.711620 0.490370 -0.604423
O4    O     O_R   0.321610 0.288380 0.509630 -0.604424
O5    O     O_R   0.355420 0.513510 0.639950 -0.597405
O6    O     O_R   0.644580 0.486490 0.360050 -0.597405
O7    O     O_R   0.644560 0.486560 0.624350 -0.614612
O8    O     O_R   0.355440 0.513440 0.375650 -0.614612
Zn1   Zn    Zn3+2 0.306940 0.517990 0.510420 1.027006
Zn2   Zn    Zn3+2 0.693060 0.482010 0.489580 1.027006

loop_
_geom_bond_atom_site_label_1
_geom_bond_atom_site_label_2
_ccdc_geom_bond_type
C12   O4    A    
C2    C4    A    
C15   C17   A    
C22   I1    S    
C21   O8    A    
C9    C10   A    
C11   C22   A    
N1    N2    D    
C5    H1    S    
C1    O1    A    
C14   I3    S    
C2    I2    S    
C6    H2    S    
C20   O5    A    
C15   I4    S    
C9    C11   A    
C1    C18   S    
O3    Zn2   S    
C17   H4    S    
C12   C19   S    
C4    C6    A    
O7    Zn2   S    
C8    C15   A    
C5    C7    A    
C12   O2    A    
O4    Zn1   S    
C18   I5    S    
C14   C16   A    
O2    Zn2   S    
C3    C21   S    
C1    O3    A    
O1    Zn1   S    
C21   O6    A    
C4    C20   S    
N2    Zn1   S    
C20   O7    A    
O8    Zn1   S    
H6    N2    S    
C8    C10   A    
C18   C19   D    
O6    Zn2   S    
C13   C16   A    
C16   H3    S    
C7    C9    A    
C2    C13   A    
O5    Zn1   S    
C11   C17   A    
C3    C22   A    
C6    C8    A    
H5    N1    S    
N1    Zn2   S    
C19   I6    S    
C7    C14   A    
C3    C5    A    
C10   C13   A    
