data_mof_unit_54019.cif
_audit_creation_date              2012-12-10T19:11:29-0500
_audit_creation_method            fapswitch 2.2
_symmetry_space_group_name_H-M    P1
_symmetry_Int_Tables_number       1
_space_group_crystal_system       triclinic
_cell_length_a                    10.642221
_cell_length_b                    9.707657
_cell_length_c                    10.492633
_cell_angle_alpha                 90.321928
_cell_angle_beta                  90.271378
_cell_angle_gamma                 89.402611
_cell_volume                      1083.91684354

loop_
_atom_site_label
_atom_site_type_symbol
_atom_type_description
_atom_site_fract_x
_atom_site_fract_y
_atom_site_fract_z
_atom_type_partial_charge
C1    C     C_R   0.257406 0.500475 0.499870 0.820225
C2    C     C_3   0.500504 0.498615 0.122181 0.042224
C3    C     C_3   0.071145 0.610357 0.594425 -0.393936
C4    C     C_3   0.073500 0.360184 0.552911 -0.456435
C5    C     C_3   0.927731 0.614067 0.592155 -0.404149
C6    C     C_3   0.930259 0.357356 0.551979 -0.421681
C7    C     C_3   0.066522 0.523095 0.355826 0.343518
C8    C     C_3   0.120398 0.500488 0.497654 0.129797
C9    C     C_3   0.877986 0.497764 0.504096 0.129756
C10   C     C_3   0.920332 0.519294 0.364784 -0.382638
C11   C     C_3   0.372956 0.082362 0.470046 -0.233875
C12   C     C_3   0.373324 0.920080 0.469483 -0.239867
C13   C     C_3   0.586066 0.079774 0.399465 -0.232989
C14   C     C_3   0.586486 0.917196 0.399805 -0.233028
C15   C     C_3   0.540654 0.081384 0.622118 -0.230452
C16   C     C_3   0.540284 0.919108 0.622234 -0.233176
C17   C     C_R   0.499885 0.499550 0.257105 0.858668
C18   C     C_R   0.742171 0.499223 0.505624 0.848843
C19   C     C_R   0.501242 0.500454 0.742763 0.864788
C20   C     C_3   0.401698 0.573325 0.041576 -0.185519
C21   C     C_3   0.493413 0.368815 0.039338 -0.139097
C22   C     C_3   0.394521 0.443669 0.956123 -0.182091
C23   C     C_3   0.501997 0.501422 0.877662 0.035406
C24   C     C_3   0.509263 0.631182 0.960460 -0.145250
C25   C     C_3   0.601015 0.426749 0.958119 -0.188832
C26   C     C_3   0.608136 0.556356 0.043764 -0.186945
H1    H     H_    0.307949 0.397908 0.915217 0.122247
H2    H     H_    0.875080 0.612755 0.324069 0.154807
H3    H     H_    0.881128 0.433413 0.306752 0.148747
H4    H     H_    0.338275 0.121300 0.376598 0.141828
H5    H     H_    0.340525 0.881836 0.375065 0.153975
H6    H     H_    0.305350 0.120449 0.542987 0.143291
H7    H     H_    0.305701 0.883333 0.541880 0.140440
H8    H     H_    0.558015 0.117193 0.303369 0.143547
H9    H     H_    0.559385 0.878673 0.303629 0.149059
H10   H     H_    0.636362 0.118959 0.646116 0.138574
H11   H     H_    0.635705 0.879176 0.646749 0.139345
H12   H     H_    0.477438 0.120185 0.698720 0.149524
H13   H     H_    0.476558 0.882983 0.698528 0.142952
H14   H     H_    0.683074 0.117440 0.416576 0.141549
H15   H     H_    0.683627 0.878305 0.417719 0.141522
H16   H     H_    0.321135 0.633959 0.079448 0.116298
H17   H     H_    0.486750 0.261933 0.075653 0.125033
H18   H     H_    0.515824 0.738107 0.924238 0.123473
H19   H     H_    0.682049 0.367471 0.919072 0.119618
H20   H     H_    0.694905 0.601825 0.084569 0.118756
H21   H     H_    0.108866 0.714075 0.579622 0.183874
H22   H     H_    0.110780 0.268807 0.500960 0.169884
H23   H     H_    0.103418 0.583345 0.692443 0.151057
H24   H     H_    0.107653 0.347133 0.652740 0.174771
H25   H     H_    0.891665 0.600385 0.690715 0.153595
H26   H     H_    0.895395 0.336201 0.649786 0.168282
H27   H     H_    0.894468 0.716851 0.559449 0.178527
H28   H     H_    0.898673 0.271739 0.488801 0.177325
N1    N     N_3   0.499750 0.138610 0.497240 -0.029012
N2    N     N_3   0.499750 0.861390 0.497240 -0.028906
O1    O     O_R   0.314910 0.616040 0.499970 -0.626271
O2    O     O_R   0.314910 0.383960 0.499970 -0.639369
O3    O     O_R   0.500080 0.616020 0.313900 -0.629973
O4    O     O_R   0.500080 0.383980 0.313900 -0.633495
O5    O     O_R   0.685320 0.616040 0.499930 -0.635336
O6    O     O_R   0.685320 0.383960 0.499930 -0.632985
O7    O     O_R   0.500150 0.616060 0.686000 -0.634701
O8    O     O_R   0.500150 0.383940 0.686000 -0.630630
Zn1   Zn    Zn3+2 0.500150 0.654960 0.499940 0.895194
Zn2   Zn    Zn3+2 0.500150 0.345040 0.499940 0.893070
C27   C     C_3   0.110749 0.660573 0.289867 -0.341208
C28   C     C_3   0.066687 0.801225 0.342048 -0.955125
H29   H     H_    0.967946 0.802949 0.373658 0.257368
H30   H     H_    0.128124 0.838612 0.418929 0.247900
H31   H     H_    0.074228 0.879002 0.265224 0.236831
H32   H     H_    0.214725 0.661011 0.282748 0.197229
H33   H     H_    0.075231 0.660840 0.190439 0.213247
C29   C     C_3   0.112141 0.399528 0.267555 -0.447220
C30   C     C_3   0.074666 0.406896 0.125915 -0.957871
H34   H     H_    0.974909 0.438032 0.112898 0.260070
H35   H     H_    0.135424 0.479448 0.073998 0.252523
H36   H     H_    0.088405 0.303953 0.081064 0.254122
H37   H     H_    0.216127 0.389525 0.271133 0.209839
H38   H     H_    0.073476 0.301055 0.302018 0.209545

loop_
_geom_bond_atom_site_label_1
_geom_bond_atom_site_label_2
_ccdc_geom_bond_type
C7    C10   S    
C14   N2    S    
O7    Zn1   S    
C1    C8    S    
C4    C8    S    
C6    C9    S    
C3    H23   S    
C7    C8    S    
C5    H27   S    
C24   C26   S    
C15   C16   S    
C27   H32   S    
C13   H14   S    
C21   H17   S    
O2    Zn2   S    
C20   C24   S    
C11   H4    S    
C19   O7    A    
C28   H29   S    
C23   C24   S    
C27   H33   S    
C9    C10   S    
C16   H11   S    
O4    Zn2   S    
C29   H38   S    
C21   C22   S    
C2    C17   S    
C6    H28   S    
C7    C29   S    
C29   C30   S    
O6    Zn2   S    
C2    C20   S    
C27   C28   S    
C4    C6    S    
C3    C8    S    
C14   H9    S    
C18   O6    A    
C17   O4    A    
C25   C26   S    
C4    H24   S    
O8    Zn2   S    
C19   C23   S    
C30   H34   S    
C16   N2    S    
C15   H12   S    
C5    C9    S    
C1    O1    A    
C19   O8    A    
C2    C21   S    
C2    C26   S    
C30   H35   S    
C12   N2    S    
C17   O3    A    
C14   H15   S    
C20   C22   S    
C11   H6    S    
C29   H37   S    
C12   H5    S    
C24   H18   S    
C25   H19   S    
C15   H10   S    
N1    Zn2   S    
C11   N1    S    
C4    H22   S    
C10   H2    S    
C21   C25   S    
O1    Zn1   S    
C3    C5    S    
C20   H16   S    
C11   C12   S    
C18   O5    A    
C22   H1    S    
C13   H8    S    
C1    O2    A    
O3    Zn1   S    
C10   H3    S    
C28   H31   S    
C3    H21   S    
C23   C25   S    
C30   H36   S    
C26   H20   S    
C16   H13   S    
C7    C27   S    
O5    Zn1   S    
C9    C18   S    
C28   H30   S    
C22   C23   S    
C5    H25   S    
C6    H26   S    
C12   H7    S    
C13   C14   S    
N2    Zn1   S    
C15   N1    S    
C13   N1    S    
