data_mof_unit_5513.cif
_audit_creation_date              2012-12-10T17:50:38-0500
_audit_creation_method            fapswitch 2.2
_symmetry_space_group_name_H-M    P1
_symmetry_Int_Tables_number       1
_space_group_crystal_system       triclinic
_cell_length_a                    15.719417
_cell_length_b                    10.688693
_cell_length_c                    9.927311
_cell_angle_alpha                 88.502962
_cell_angle_beta                  89.987963
_cell_angle_gamma                 92.855017
_cell_volume                      1665.34613768

loop_
_atom_site_label
_atom_site_type_symbol
_atom_type_description
_atom_site_fract_x
_atom_site_fract_y
_atom_site_fract_z
_atom_type_partial_charge
C1    C     C_R   0.511775 0.262196 0.502381 0.974877
C2    C     C_R   0.481859 0.044856 0.871697 -0.064240
C3    C     C_R   0.433733 0.934201 0.851954 -0.093841
C4    C     C_R   0.338075 0.499417 0.500039 0.901544
C5    C     C_R   0.432372 0.880645 0.725293 -0.061516
C6    C     C_R   0.480314 0.937538 0.616889 0.033784
C7    C     C_R   0.511818 0.060538 0.630159 0.053988
C8    C     C_R   0.530544 0.130956 0.510148 -0.304100
C9    C     C_R   0.552708 0.070064 0.392331 0.283581
C10   C     C_R   0.544171 0.940630 0.390425 0.437526
C11   C     C_R   0.501511 0.875102 0.498142 -0.292998
C12   C     C_3   0.082946 0.490306 0.500432 -0.100803
C13   C     C_R   0.371408 0.367599 0.148349 -0.312479
C14   C     C_R   0.291586 0.340891 0.090880 0.427429
C15   C     C_R   0.283153 0.360343 0.952888 0.317814
C16   C     C_R   0.497210 0.740354 0.498711 0.912006
C17   C     C_R   0.356591 0.380873 0.873247 0.298833
C18   C     C_R   0.432974 0.436700 0.931069 -0.074649
C19   C     C_R   0.435856 0.434624 0.075377 0.068442
C20   C     C_R   0.560861 0.564146 0.070114 -0.081647
C21   C     C_R   0.560952 0.564808 0.927492 0.418028
C22   C     C_R   0.661931 0.500520 0.499822 0.878530
C23   C     C_3   0.976339 0.599144 0.551340 0.308009
C24   C     C_3   0.967469 0.395840 0.569552 0.497769
C25   C     C_3   0.024073 0.383460 0.443922 -0.365036
C26   C     C_1   0.249121 0.495156 0.500588 -0.105455
C27   C     C_1   0.750730 0.498815 0.498692 -0.094107
C28   C     C_3   0.027430 0.499771 0.628027 -0.303043
C29   C     C_3   0.659967 0.852849 0.303455 -0.128754
C30   C     C_3   0.237764 0.207842 0.262915 -0.221315
C31   C     C_3   0.984587 0.230943 0.718964 -0.105604
C32   C     C_3   0.001140 0.444641 0.149576 -0.080024
C33   C     C_3   0.916740 0.494991 0.495733 -0.095028
C34   C     C_3   0.033039 0.591006 0.425838 0.325972
C35   C     C_3   0.973496 0.485824 0.371498 0.408899
C36   C     C_1   0.173783 0.491685 0.501098 0.142470
C37   C     C_1   0.825919 0.496952 0.496630 0.165807
C38   C     C_R   0.520679 0.108293 0.761633 -0.016660
Cl1   Cl    Cl    0.182695 0.329309 0.878049 -0.603002
Cl2   Cl    Cl    0.354339 0.272327 0.743812 -0.572012
Cl3   Cl    Cl    0.639036 0.660153 0.843324 -0.541856
Cl4   Cl    Cl    0.078864 0.721470 0.331094 -0.532433
Cl5   Cl    Cl    0.942669 0.740437 0.621057 -0.495890
Cl6   Cl    Cl    0.596747 0.151136 0.248468 -0.569785
H1    H     H_    0.045802 0.294907 0.402718 0.188446
H2    H     H_    0.666244 0.787403 0.391512 0.131601
H3    H     H_    0.700462 0.939763 0.318326 0.192291
H4    H     H_    0.264277 0.250419 0.355737 0.157567
H5    H     H_    0.281005 0.137867 0.223282 0.165982
H6    H     H_    0.177100 0.156563 0.291579 0.208906
H7    H     H_    0.004055 0.287207 0.807277 0.184038
H8    H     H_    0.041260 0.206707 0.659456 0.181958
H9    H     H_    0.953442 0.141875 0.757980 0.208419
H10   H     H_    0.012194 0.343435 0.165522 0.170107
H11   H     H_    0.062205 0.501293 0.157270 0.195512
H12   H     H_    0.399640 0.887870 0.935472 0.151735
H13   H     H_    0.977078 0.457506 0.045332 0.190922
H14   H     H_    0.394329 0.794453 0.713830 0.148097
H15   H     H_    0.610140 0.617192 0.122950 0.172308
H16   H     H_    0.381357 0.339053 0.250108 0.230711
H17   H     H_    0.051479 0.505622 0.732906 0.214571
H18   H     H_    0.557897 0.193730 0.780935 0.167503
H19   H     H_    0.486728 0.083801 0.971149 0.179873
H20   H     H_    0.684734 0.806731 0.213764 0.193493
N1    N     N_R   0.499210 0.498800 0.142780 -0.103971
N2    N     N_R   0.499180 0.498720 0.857170 -0.131963
O1    O     O_R   0.500000 0.316780 0.614690 -0.589380
O2    O     O_3   0.219780 0.301732 0.165845 -0.577607
O3    O     O_3   0.925309 0.294619 0.640151 -0.595412
O4    O     O_3   0.939227 0.483385 0.240134 -0.578192
O5    O     O_R   0.499990 0.316750 0.385360 -0.592708
O6    O     O_R   0.376780 0.500000 0.614650 -0.580621
O7    O     O_R   0.376770 0.499980 0.385310 -0.640047
O8    O     O_R   0.500010 0.683250 0.614640 -0.601675
O9    O     O_R   0.500000 0.683220 0.385310 -0.570835
O10   O     O_R   0.623230 0.500020 0.614690 -0.563570
O11   O     O_R   0.623220 0.500000 0.385350 -0.611407
O12   O     O_3   0.574013 0.879360 0.279992 -0.572284
Zn1   Zn    Zn3+2 0.500010 0.500020 0.653130 1.030868
Zn2   Zn    Zn3+2 0.499990 0.499980 0.346870 1.005736

loop_
_geom_bond_atom_site_label_1
_geom_bond_atom_site_label_2
_ccdc_geom_bond_type
C21   N2    A    
C16   O9    A    
C34   Cl4   S    
O10   Zn1   S    
C22   O10   A    
C31   H8    S    
C10   O12   S    
C7    C8    A    
C13   H16   S    
N2    Zn1   S    
C1    O5    A    
C5    H14   S    
C29   H3    S    
C16   O8    A    
C30   H4    S    
C18   C19   A    
O6    Zn1   S    
C5    C6    A    
C1    C8    S    
C23   Cl5   S    
C34   C35   S    
C3    H12   S    
C33   C35   S    
O7    Zn2   S    
C29   O12   S    
C35   O4    S    
C8    C9    A    
C23   C33   S    
C12   C36   S    
C9    C10   A    
C32   H11   S    
C28   H17   S    
C30   H6    S    
C29   H20   S    
N1    Zn2   S    
C13   C14   A    
C32   H13   S    
C32   H10   S    
O5    Zn2   S    
C24   O3    S    
C13   C19   A    
C20   N1    A    
O1    Zn1   S    
C24   C25   S    
C6    C11   A    
C32   O4    S    
C33   C37   S    
C17   Cl2   S    
C11   C16   S    
C2    C38   A    
C23   C34   S    
C17   C18   A    
C23   C28   S    
C31   H9    S    
C20   H15   S    
C15   Cl1   S    
C4    O7    A    
C25   C35   S    
C21   Cl3   S    
C26   C36   T    
C30   H5    S    
C12   C28   S    
O8    Zn1   S    
C12   C34   S    
C25   H1    S    
C4    O6    A    
C2    H19   S    
O9    Zn2   S    
O11   Zn2   S    
C15   C17   A    
C9    Cl6   S    
C24   C28   S    
C22   O11   A    
C31   H7    S    
C3    C5    A    
C4    C26   S    
C6    C7    A    
C18   N2    A    
C12   C25   S    
C24   C33   S    
C29   H2    S    
C22   C27   S    
C2    C3    A    
C27   C37   T    
C1    O1    A    
C7    C38   A    
C19   N1    A    
C10   C11   A    
C31   O3    S    
C20   C21   A    
C14   O2    S    
C14   C15   A    
C30   O2    S    
C38   H18   S    
