data_mof_unit_19356.cif
_audit_creation_date              2012-12-11T14:51:38-0500
_audit_creation_method            fapswitch 2.2
_symmetry_space_group_name_H-M    P1
_symmetry_Int_Tables_number       1
_space_group_crystal_system       triclinic
_cell_length_a                    6.935202
_cell_length_b                    16.642138
_cell_length_c                    16.948581
_cell_angle_alpha                 101.26718
_cell_angle_beta                  90.818392
_cell_angle_gamma                 90.126978
_cell_volume                      1918.22536019

loop_
_atom_site_label
_atom_site_type_symbol
_atom_type_description
_atom_site_fract_x
_atom_site_fract_y
_atom_site_fract_z
_atom_type_partial_charge
O1    O     O_R   0.506340 0.439070 0.579550 -0.511926
O2    O     O_R   0.170010 0.404890 0.412100 -0.524753
O3    O     O_R   0.005010 0.560930 0.420450 -0.535034
C1    C     C_R   0.339311 0.381419 0.383444 0.764554
O4    O     O_R   0.176280 0.429360 0.578400 -0.522284
O5    O     O_R   0.011320 0.585570 0.587940 -0.525056
C2    C     C_R   0.344794 0.415242 0.606415 0.850576
O6    O     O_R   0.500030 0.414430 0.412060 -0.543322
O7    O     O_3   0.340950 0.551220 0.502940 -0.396883
V1    V     V_3+5 0.064020 0.490500 0.499460 1.610569
O8    O     O_R   0.681910 0.595110 0.587900 -0.551501
C3    C     C_R   0.852158 0.618635 0.616480 0.745164
O9    O     O_R   0.675640 0.570640 0.421600 -0.560871
C4    C     C_R   0.841888 0.586198 0.394548 0.717596
V2    V     V_3+5 0.564670 0.509500 0.500540 1.531617
O10   O     O_3   0.837610 0.448780 0.497060 -0.349688
C5    C     C_R   0.928832 0.860705 0.166918 -0.052984
C6    C     C_R   0.836796 0.639125 0.333060 -0.044205
C7    C     C_R   0.645614 0.697532 0.235692 -0.172416
C8    C     C_R   0.665752 0.642286 0.287601 -0.114242
C9    C     C_R   0.990103 0.691696 0.323838 -0.205201
C10   C     C_R   0.969821 0.748264 0.272066 0.152898
C11   C     C_R   0.795782 0.751550 0.227890 0.149214
C12   C     C_R   0.775530 0.808113 0.176105 -0.201597
C13   C     C_R   0.099819 0.857567 0.212418 -0.125430
C14   C     C_R   0.119964 0.802300 0.264297 -0.181006
H1    H     H_    0.643704 0.809248 0.141187 0.120019
H2    H     H_    0.220515 0.897528 0.207140 0.154270
H3    H     H_    0.511533 0.698490 0.202256 0.137078
H4    H     H_    0.254022 0.801351 0.297750 0.128082
H5    H     H_    0.545029 0.602357 0.292932 0.160155
H6    H     H_    0.121966 0.690549 0.358730 0.113793
C15   C     C_3   0.706053 0.774776 0.774612 -0.126842
C16   C     C_3   0.786387 0.775247 0.689885 -0.179036
H7    H     H_    0.706399 0.795510 0.640096 0.109657
H8    H     H_    0.559686 0.795203 0.795217 0.119759
C17   C     C_3   0.867650 0.688857 0.687235 -0.007727
C18   C     C_3   0.787424 0.687572 0.771154 -0.087979
C19   C     C_3   0.979508 0.725005 0.809877 -0.105991
C20   C     C_3   0.059802 0.725524 0.725153 -0.057695
C21   C     C_3   0.978418 0.812689 0.728627 -0.177785
C22   C     C_3   0.898275 0.811385 0.812546 -0.029586
H9    H     H_    0.708166 0.635611 0.788142 0.154397
H10   H     H_    0.059781 0.704815 0.859628 0.130872
H11   H     H_    0.206282 0.705462 0.704421 0.137893
H12   H     H_    0.057727 0.864608 0.711596 0.110577
C23   C     C_3   0.556076 0.282573 0.276272 -0.161863
C24   C     C_3   0.494447 0.192886 0.272740 0.514983
H13   H     H_    0.698951 0.308204 0.298433 0.208870
C25   C     C_3   0.410453 0.188380 0.187781 -0.203641
C26   C     C_3   0.470530 0.278192 0.190252 -0.269343
C27   C     C_3   0.274543 0.306386 0.227977 0.457472
C28   C     C_3   0.212037 0.216796 0.224524 -0.192776
C29   C     C_3   0.298186 0.221006 0.310607 -0.259837
C30   C     C_3   0.357639 0.310909 0.312950 -0.180402
H14   H     H_    0.540990 0.302146 0.141100 0.189419
H15   H     H_    0.068566 0.191020 0.203109 0.202826
H16   H     H_    0.227290 0.196958 0.359577 0.165019
C31   C     C_R   0.417403 0.136759 0.831714 -0.051299
C32   C     C_R   0.348000 0.364979 0.670355 -0.277811
C33   C     C_R   0.219020 0.333993 0.794762 -0.226979
C34   C     C_R   0.233944 0.387052 0.740152 0.423137
C35   C     C_R   0.449279 0.289882 0.658120 0.353919
C36   C     C_R   0.441498 0.238994 0.716241 0.059256
C37   C     C_R   0.320996 0.260335 0.783684 0.010975
C38   C     C_R   0.306478 0.208345 0.840052 -0.153449
C39   C     C_R   0.540472 0.117029 0.765714 -0.184756
C40   C     C_R   0.550569 0.166728 0.708109 -0.119371
H17   H     H_    0.214901 0.225095 0.891961 0.116217
H18   H     H_    0.629304 0.062687 0.758705 0.114397
H19   H     H_    0.128493 0.350656 0.846941 0.196818
H20   H     H_    0.646403 0.148946 0.657876 0.159067
O11   O     O_R   0.266070 0.085680 0.087850 -0.542822
O12   O     O_R   0.590090 0.070660 0.921580 -0.541397
O13   O     O_R   0.754780 0.914400 0.912080 -0.546877
C41   C     C_R   0.421246 0.086295 0.894848 0.673691
O14   O     O_R   0.596110 0.095130 0.087880 -0.509578
O15   O     O_R   0.760850 0.939050 0.079570 -0.522169
C42   C     C_R   0.427146 0.118303 0.116824 0.794574
O16   O     O_R   0.260010 0.061030 0.920360 -0.542989
O17   O     O_3   0.425070 0.948840 0.997010 -0.379570
V3    V     V_3+5 0.702100 0.009490 0.000550 1.503707
O18   O     O_R   0.090200 0.929250 0.078500 -0.551510
C43   C     C_R   0.923873 0.913633 0.105427 0.762088
O19   O     O_R   0.084180 0.904770 0.912200 -0.546758
C44   C     C_R   0.913933 0.881517 0.883375 0.666575
V4    V     V_3+5 0.201420 0.990350 0.999580 1.443028
O20   O     O_3   0.928580 0.051150 0.002990 -0.362273
S1    S     S_3+6 0.650157 0.119151 0.303754 -0.048037
O21   O     O_2   0.530836 0.054288 0.330696 -0.350001
O22   O     O_2   0.774460 0.080319 0.235005 -0.353195
O23   O     O_3   0.792810 0.166057 0.380063 -0.528763
H21   H     H_    0.877627 0.122356 0.392798 0.361569
S2    S     S_3+6 0.128257 0.382368 0.196108 0.017192
O24   O     O_2   0.960080 0.401842 0.251291 -0.332942
O25   O     O_2   0.245288 0.458901 0.198329 -0.327753
O26   O     O_3   0.046022 0.347095 0.101890 -0.478839
H22   H     H_    0.162998 0.330931 0.069876 0.323395
S3    S     S_3+6 0.108545 0.481163 0.762259 -0.024968
O27   O     O_2   0.229198 0.548390 0.740292 -0.375107
O28   O     O_2   0.922712 0.472959 0.714579 -0.348871
O29   O     O_3   0.058880 0.504861 0.860923 -0.495755
H23   H     H_    0.971114 0.552443 0.866558 0.355051
O30   O     O_3   0.553612 0.265837 0.588597 -0.543588
C45   C     C_3   0.430223 0.219783 0.529602 -0.207399
H24   H     H_    0.508884 0.204617 0.472429 0.226956
H25   H     H_    0.300191 0.255029 0.517892 0.092589
H26   H     H_    0.386557 0.161143 0.546564 0.142201

loop_
_geom_bond_atom_site_label_1
_geom_bond_atom_site_label_2
_ccdc_geom_bond_type
O18   V4    S    
V4    O20   S    
C16   C17   S    
C21   C22   S    
C4    C6    S    
O2    C1    A    
C7    C8    A    
C12   H1    S    
C1    O6    A    
C25   C42   S    
O26   H22   S    
C23   H13   S    
C28   C29   S    
C13   H2    S    
C24   C29   S    
C45   H25   S    
O12   C41   A    
C32   C35   A    
C15   C22   S    
C36   C40   A    
C26   H14   S    
C17   C20   S    
C31   C38   A    
O5    C3    A    
C18   C19   S    
C38   H17   S    
V2    O10   S    
C6    C9    A    
C15   H8    S    
C32   C34   A    
C16   H7    S    
C3    C17   S    
O11   V4    S    
C31   C39   A    
O8    V2    S    
O18   C43   A    
C21   H12   S    
C27   S2    S    
C22   C44   S    
S1    O22   D    
O7    V1    S    
C27   C30   S    
C33   H19   S    
O14   C42   A    
O9    C4    A    
C33   C34   A    
C16   C21   S    
O12   V3    S    
O30   C45   S    
C9    H6    S    
O17   V3    S    
C19   C22   S    
O19   V4    S    
C20   H11   S    
C45   H26   S    
C5    C12   A    
C39   C40   A    
C25   C28   S    
C23   C24   S    
C19   C20   S    
O4    C2    A    
C28   H15   S    
C23   C26   S    
S2    O26   S    
C13   C14   A    
O19   C44   A    
C26   C27   S    
C7    C11   A    
C17   C18   S    
O15   C43   A    
O15   V3    S    
O13   C44   A    
S3    O27   D    
C40   H20   S    
C25   C26   S    
O11   C42   A    
S2    O24   D    
S1    O23   S    
S2    O25   D    
O17   V4    S    
O3    C4    A    
O1    V2    S    
C20   C21   S    
S3    O28   D    
C14   H4    S    
O6    V2    S    
C24   S1    S    
O9    V2    S    
C1    C30   S    
O2    V1    S    
C2    C32   S    
C27   C28   S    
C23   C30   S    
C29   H16   S    
C29   C30   S    
O1    C2    A    
C41   O16   A    
C35   O30   S    
O5    V1    S    
O8    C3    A    
O13   V3    S    
C19   H10   S    
O16   V4    S    
C45   H24   S    
C15   C18   S    
C5    C43   S    
C5    C13   A    
C36   C37   A    
C39   H18   S    
O7    V2    S    
O4    V1    S    
O3    V1    S    
V1    O10   S    
C34   S3    S    
O14   V3    S    
V3    O20   S    
C24   C25   S    
O23   H21   S    
C15   C16   S    
C6    C8    A    
O29   H23   S    
C11   C12   A    
C35   C36   A    
C33   C37   A    
C18   H9    S    
S3    O29   S    
C37   C38   A    
C10   C14   A    
C10   C11   A    
S1    O21   D    
C9    C10   A    
C31   C41   S    
C8    H5    S    
C7    H3    S    
