data_mof_unit_40155.cif
_audit_creation_date              2012-12-11T17:34:15-0500
_audit_creation_method            fapswitch 2.2
_symmetry_space_group_name_H-M    P1
_symmetry_Int_Tables_number       1
_space_group_crystal_system       triclinic
_cell_length_a                    23.751017
_cell_length_b                    7.221985
_cell_length_c                    20.663047
_cell_angle_alpha                 89.997988
_cell_angle_beta                  105.430109
_cell_angle_gamma                 89.999304
_cell_volume                      3416.56935341

loop_
_atom_site_label
_atom_site_type_symbol
_atom_type_description
_atom_site_fract_x
_atom_site_fract_y
_atom_site_fract_z
_atom_type_partial_charge
O1    O     O_R   0.449110 0.494310 0.552140 -0.537704
O2    O     O_R   0.550890 0.994310 0.447860 -0.537702
O3    O     O_R   0.440010 0.824420 0.415850 -0.533643
O4    O     O_R   0.559990 0.324420 0.584150 -0.533640
C1    C     C_R   0.425284 0.655788 0.391004 0.683761
C2    C     C_R   0.574715 0.155780 0.608995 0.683763
O5    O     O_R   0.442260 0.824040 0.549660 -0.540121
O6    O     O_R   0.557740 0.324040 0.450340 -0.540122
O7    O     O_R   0.553160 0.993960 0.582620 -0.531489
O8    O     O_R   0.446840 0.493960 0.417380 -0.531488
C3    C     C_R   0.428589 0.655396 0.567580 0.678299
C4    C     C_R   0.571411 0.155397 0.432420 0.678295
O9    O     O_3   0.536380 0.660670 0.510660 -0.372683
O10   O     O_3   0.463620 0.160670 0.489340 -0.372686
V1    V     V_3+5 0.493250 0.935680 0.498020 1.407711
V2    V     V_3+5 0.506750 0.435680 0.501980 1.407709
C5    C     C_R   0.825806 0.910502 0.173643 -0.134161
C6    C     C_R   0.174189 0.410506 0.826354 -0.134158
H1    H     H_    0.810297 0.784526 0.191604 0.106622
H2    H     H_    0.189695 0.284530 0.808391 0.106621
C7    C     C_R   0.864857 0.898489 0.133334 -0.163832
C8    C     C_R   0.135138 0.398492 0.866662 -0.163820
H3    H     H_    0.878657 0.762742 0.121383 0.121773
H4    H     H_    0.121335 0.262746 0.878611 0.121769
C9    C     C_R   0.886060 0.059792 0.109365 -0.055266
C10   C     C_R   0.113939 0.559795 0.890634 -0.055249
C11   C     C_R   0.866739 0.233038 0.126727 -0.178584
C12   C     C_R   0.133264 0.733040 0.873276 -0.178606
H5    H     H_    0.881880 0.360620 0.109536 0.130434
H6    H     H_    0.118126 0.860622 0.890469 0.130437
C13   C     C_R   0.827801 0.244553 0.166999 -0.141052
C14   C     C_R   0.172203 0.744555 0.833004 -0.141063
H7    H     H_    0.813900 0.379513 0.179715 0.108454
H8    H     H_    0.186107 0.879514 0.820289 0.108455
C15   C     C_R   0.807163 0.083602 0.190785 0.130742
C16   C     C_R   0.192836 0.583605 0.809215 0.130748
C17   C     C_1   0.767080 0.096718 0.232783 -0.059333
C18   C     C_1   0.232920 0.596719 0.767217 -0.059334
C19   C     C_1   0.733578 0.108419 0.267852 -0.059906
C20   C     C_1   0.266422 0.608418 0.732148 -0.059906
C21   C     C_R   0.670527 0.960234 0.330708 -0.139757
C22   C     C_R   0.329470 0.460230 0.669291 -0.139756
H9    H     H_    0.682893 0.825377 0.316024 0.106128
H10   H     H_    0.317102 0.325373 0.683974 0.106128
C23   C     C_R   0.631325 0.971503 0.370674 -0.168935
C24   C     C_R   0.368673 0.471499 0.629325 -0.168937
H11   H     H_    0.614493 0.843826 0.385694 0.125094
H12   H     H_    0.385502 0.343822 0.614303 0.125091
C25   C     C_R   0.614031 0.144643 0.390647 -0.052301
C26   C     C_R   0.385969 0.644640 0.609353 -0.052299
C27   C     C_R   0.637465 0.306043 0.369473 -0.168592
C28   C     C_R   0.362538 0.806041 0.630529 -0.168591
H13   H     H_    0.625347 0.441750 0.383543 0.122003
H14   H     H_    0.374658 0.941749 0.616460 0.122003
C29   C     C_R   0.676724 0.294265 0.329400 -0.136446
C30   C     C_R   0.323279 0.794263 0.670601 -0.136448
H15   H     H_    0.693959 0.420341 0.313623 0.106196
H16   H     H_    0.306046 0.920339 0.686380 0.106195
C31   C     C_R   0.693379 0.121306 0.309720 0.131840
C32   C     C_R   0.306621 0.621303 0.690280 0.131842
C33   C     C_R   0.643426 0.201646 0.794667 -0.160272
C34   C     C_R   0.356558 0.701908 0.205343 -0.160280
H17   H     H_    0.557083 0.230225 0.729464 0.107367
H18   H     H_    0.442898 0.730508 0.270547 0.107377
H19   H     H_    0.728490 0.205572 0.907485 0.125906
H20   H     H_    0.271489 0.705929 0.092531 0.125904
H21   H     H_    0.629158 0.237690 0.838707 0.115408
H22   H     H_    0.370819 0.738074 0.161309 0.115409
C35   C     C_R   0.618806 0.150154 0.674682 -0.037405
C36   C     C_R   0.381192 0.650192 0.325318 -0.037420
C37   C     C_R   0.902894 0.006728 0.766895 0.289015
C38   C     C_R   0.097116 0.506556 0.233100 0.289034
C39   C     C_R   0.863263 0.000314 0.703482 -0.129223
C40   C     C_R   0.136751 0.500088 0.296510 -0.129222
C41   C     C_R   0.804158 0.036010 0.694875 -0.231265
C42   C     C_R   0.195851 0.535845 0.305118 -0.231264
C43   C     C_R   0.782038 0.081084 0.749890 0.080069
C44   C     C_R   0.217964 0.581045 0.250109 0.080069
C45   C     C_R   0.822500 0.090665 0.815114 0.031934
C46   C     C_R   0.177498 0.590699 0.184889 0.031936
C47   C     C_R   0.721078 0.116686 0.742258 0.087549
C48   C     C_R   0.278921 0.616709 0.257742 0.087546
C49   C     C_R   0.702432 0.162738 0.800146 0.134833
C50   C     C_R   0.297557 0.662914 0.199860 0.134838
C51   C     C_R   0.742687 0.170891 0.863265 -0.200146
C52   C     C_R   0.257298 0.671136 0.136745 -0.200149
C53   C     C_R   0.801567 0.135166 0.870753 -0.172804
C54   C     C_R   0.198423 0.635337 0.129254 -0.172821
C55   C     C_R   0.677758 0.109532 0.679410 -0.213278
C56   C     C_R   0.322245 0.609476 0.320586 -0.213285
C57   C     C_R   0.602198 0.196872 0.732515 -0.164545
C58   C     C_R   0.397790 0.697075 0.267492 -0.164536
C59   C     C_R   0.883041 0.053312 0.823500 -0.155944
C60   C     C_R   0.116961 0.553274 0.176499 -0.155968
H23   H     H_    0.688326 0.076154 0.633190 0.096207
H24   H     H_    0.311684 0.575975 0.366801 0.096220
H25   H     H_    0.776912 0.027368 0.644185 0.126402
H26   H     H_    0.223101 0.527154 0.355807 0.126400
H27   H     H_    0.878537 0.967460 0.659883 0.135796
H28   H     H_    0.121482 0.467142 0.340107 0.135783
H29   H     H_    0.830660 0.143310 0.920857 0.114256
H30   H     H_    0.169327 0.643537 0.079154 0.114284
O11   O     O_R   0.053190 0.709680 0.082610 -0.534894
O12   O     O_R   0.946810 0.209680 0.917390 -0.534895
O13   O     O_R   0.057740 0.380240 0.950340 -0.540026
O14   O     O_R   0.942260 0.880240 0.049660 -0.540028
C61   C     C_R   0.071390 0.548961 0.932434 0.671056
C62   C     C_R   0.928610 0.048959 0.067565 0.671067
O15   O     O_R   0.060000 0.379940 0.084150 -0.529563
O16   O     O_R   0.940000 0.879940 0.915850 -0.529567
O17   O     O_R   0.949110 0.210100 0.052140 -0.536623
O18   O     O_R   0.050890 0.710100 0.947860 -0.536631
C63   C     C_R   0.074576 0.548144 0.109135 0.686691
C64   C     C_R   0.925425 0.048152 0.890864 0.686709
O19   O     O_3   0.963630 0.543720 0.989330 -0.372070
O20   O     O_3   0.036370 0.043720 0.010670 -0.372073
V3    V     V_3+5 0.006750 0.268680 0.001980 1.397673
V4    V     V_3+5 0.993250 0.768680 0.998020 1.397658
N1    N     N_2   0.963022 0.970006 0.772424 -0.527579
H31   H     H_    0.992479 0.032705 0.812158 0.244193
C65   C     C_3   0.976611 0.777596 0.764203 -0.520495
H32   H     H_    0.023408 0.764344 0.765266 0.200967
H33   H     H_    0.950081 0.723681 0.715225 0.198123
H34   H     H_    0.968160 0.693125 0.805588 0.197432
N2    N     N_2   0.036992 0.469767 0.227568 -0.527568
H35   H     H_    0.007527 0.532448 0.187833 0.244187
C66   C     C_3   0.023423 0.277340 0.235798 -0.520433
H36   H     H_    0.976623 0.264037 0.234717 0.200951
H37   H     H_    0.049947 0.223457 0.284787 0.198098
H38   H     H_    0.031898 0.192872 0.194427 0.197423

loop_
_geom_bond_atom_site_label_1
_geom_bond_atom_site_label_2
_ccdc_geom_bond_type
C2    C35   S    
O18   V4    S    
O4    V2    S    
C20   C32   S    
C29   C31   A    
C11   H5    S    
C39   C41   A    
C61   O18   A    
O1    C3    A    
O2    C4    A    
O16   V4    S    
C2    O7    A    
C45   C53   A    
C4    C25   S    
O15   V3    S    
O5    C3    A    
O13   C61   A    
C40   C42   A    
C14   C16   A    
O11   C63   A    
C42   C44   A    
C45   C59   A    
C52   C54   A    
C42   H26   S    
C41   H25   S    
O20   V3    S    
C22   C24   A    
C33   H21   S    
C65   H34   S    
C7    C9    A    
C53   H29   S    
C25   C27   A    
C34   C58   A    
C26   C28   A    
C13   H7    S    
C43   C47   A    
O16   C64   A    
C6    H2    S    
O15   C63   A    
C38   C60   A    
C23   H11   S    
O6    V2    S    
O14   V4    S    
C21   H9    S    
O13   V3    S    
C36   C56   A    
C22   H10   S    
C35   C55   A    
C47   C49   A    
C60   C63   S    
C28   H14   S    
N1    C65   S    
C24   H12   S    
C51   C53   A    
C11   C13   A    
C12   C14   A    
C21   C31   A    
C38   C40   A    
C33   C49   A    
C22   C32   A    
C37   C39   A    
C40   H28   S    
O5    V1    S    
C27   C29   A    
C5    C7    A    
C30   C32   A    
C27   H13   S    
C14   H8    S    
C55   H23   S    
C66   H37   S    
C29   H15   S    
C1    C36   S    
C44   C48   A    
C23   C25   A    
O6    C4    A    
O19   V4    S    
C19   C31   S    
C43   C45   A    
O1    V2    S    
C56   H24   S    
O2    V1    S    
C41   C43   A    
C65   H32   S    
O12   C64   A    
O4    C2    A    
C49   C51   A    
C48   C50   A    
C7    H3    S    
N2    H35   S    
C8    H4    S    
O11   V4    S    
H18   C58   S    
C46   C60   A    
C66   H36   S    
O3    V1    S    
O12   V3    S    
C39   H27   S    
C34   C50   A    
C15   C17   S    
C6    C8    A    
C36   C58   A    
C50   C52   A    
O3    C1    A    
C10   C61   S    
H20   C52   S    
C54   H30   S    
N1    H31   S    
H19   C51   S    
C37   C59   A    
C34   H22   S    
C9    C11   A    
C24   C26   A    
C10   C12   A    
C48   C56   A    
C62   O17   A    
C37   N1    S    
C38   N2    S    
O17   V3    S    
C12   H6    S    
O7    V1    S    
C66   H38   S    
C47   C55   A    
C1    O8    A    
C46   C54   A    
C3    C26   S    
O8    V2    S    
C18   C20   T    
O14   C62   A    
C13   C15   A    
C16   C18   S    
C5    H1    S    
C30   H16   S    
C44   C46   A    
C59   C64   S    
C65   H33   S    
C28   C30   A    
C17   C19   T    
C8    C10   A    
O9    V2    S    
H17   C57   S    
N2    C66   S    
C21   C23   A    
O10   V1    S    
C5    C15   A    
C35   C57   A    
C6    C16   A    
C33   C57   A    
C9    C62   S    
