data_mof_unit_22971.cif
_audit_creation_date              2012-12-10T19:43:25-0500
_audit_creation_method            fapswitch 2.2
_symmetry_space_group_name_H-M    P1
_symmetry_Int_Tables_number       1
_space_group_crystal_system       triclinic
_cell_length_a                    10.870471
_cell_length_b                    10.922132
_cell_length_c                    9.636743
_cell_angle_alpha                 88.209285
_cell_angle_beta                  91.612224
_cell_angle_gamma                 95.894954
_cell_volume                      1137.1943408

loop_
_atom_site_label
_atom_site_type_symbol
_atom_type_description
_atom_site_fract_x
_atom_site_fract_y
_atom_site_fract_z
_atom_type_partial_charge
C1    C     C_R   0.503256 0.262558 0.503530 0.819511
C2    C     C_R   0.136230 0.110531 0.172796 -0.140367
C3    C     C_R   0.924102 0.423972 0.404126 -0.244925
C4    C     C_R   0.871415 0.484461 0.510310 -0.090239
C5    C     C_R   0.948466 0.528751 0.622929 0.011780
C6    C     C_R   0.075549 0.542475 0.606074 -0.202519
C7    C     C_R   0.128244 0.488023 0.496862 -0.074291
C8    C     C_R   0.051995 0.418656 0.401134 0.034210
C9    C     C_R   0.959386 0.627529 0.854372 -0.161325
C10   C     C_R   0.942812 0.618576 0.997223 -0.115292
C11   C     C_R   0.868337 0.519355 0.054529 -0.192281
C12   C     C_R   0.262374 0.493806 0.498371 0.811075
C13   C     C_R   0.817365 0.423058 0.971065 0.175473
C14   C     C_R   0.840738 0.428683 0.828951 -0.064450
C15   C     C_R   0.907915 0.532909 0.768168 0.068094
C16   C     C_R   0.481616 0.099262 0.770160 -0.200109
C17   C     C_R   0.431113 0.026208 0.881011 0.175405
C18   C     C_R   0.373553 0.908570 0.855820 0.315346
C19   C     C_R   0.381127 0.859412 0.725329 -0.219326
C20   C     C_R   0.446955 0.926605 0.618323 -0.021166
C21   C     C_R   0.478683 0.054074 0.633677 0.058146
C22   C     C_R   0.506821 0.128359 0.511802 -0.138980
C23   C     C_R   0.493118 0.736787 0.498245 0.801165
C24   C     C_R   0.527174 0.071694 0.388104 -0.259186
C25   C     C_R   0.522828 0.944862 0.382255 0.144771
C26   C     C_R   0.482912 0.870292 0.497213 -0.088008
C27   C     C_R   0.657446 0.677039 0.141690 -0.096001
C28   C     C_R   0.727398 0.769841 0.067937 -0.211468
C29   C     C_R   0.725060 0.771363 0.924548 -0.187041
C30   C     C_R   0.657204 0.676931 0.854308 -0.094590
C31   C     C_R   0.577558 0.586823 0.924444 0.184991
C32   C     C_R   0.577191 0.587124 0.073679 0.218371
C33   C     C_R   0.422468 0.420301 0.074913 -0.071671
C34   C     C_R   0.737574 0.495356 0.502918 0.757832
C35   C     C_R   0.420615 0.421463 0.927420 0.334858
C36   C     C_R   0.101211 0.215585 0.102489 -0.180126
C37   C     C_R   0.083952 0.320620 0.175511 -0.150798
C38   C     C_R   0.097365 0.320147 0.320448 0.061634
C39   C     C_R   0.133142 0.214449 0.391032 -0.151478
C40   C     C_R   0.152508 0.109307 0.317886 0.210117
Cu1   Cu    Cu3+1 0.499990 0.499990 0.640660 0.967391
Cu2   Cu    Cu3+1 0.500010 0.500010 0.359340 0.956544
H1    H     H_    0.148156 0.029655 0.114471 0.179118
H2    H     H_    0.849996 0.518826 0.163607 0.152727
H3    H     H_    0.807227 0.351068 0.766085 0.133645
H4    H     H_    0.552351 0.126309 0.295519 0.172690
H5    H     H_    0.528574 0.187513 0.796075 0.198583
H6    H     H_    0.334821 0.768393 0.708821 0.186504
H7    H     H_    0.358596 0.355674 0.131027 0.166788
H8    H     H_    0.084689 0.214661 0.991390 0.193429
H9    H     H_    0.670272 0.678371 0.251652 0.202511
H10   H     H_    0.788565 0.837711 0.122496 0.146327
H11   H     H_    0.783612 0.840734 0.867840 0.147389
H12   H     H_    0.673474 0.675597 0.745896 0.189872
H13   H     H_    0.057872 0.401176 0.119452 0.173352
H14   H     H_    0.140281 0.211686 0.503490 0.156415
H15   H     H_    0.864361 0.371023 0.331230 0.142565
H16   H     H_    0.135280 0.584263 0.687271 0.176036
H17   H     H_    0.014818 0.707073 0.811430 0.152923
H18   H     H_    0.983546 0.691276 0.063004 0.171257
N1    N     N_R   0.501190 0.501210 0.147910 -0.217697
N2    N     N_R   0.501230 0.501290 0.852040 -0.216409
O1    O     O_R   0.499990 0.319640 0.618810 -0.562335
O2    O     O_R   0.500000 0.319660 0.381240 -0.591041
O3    O     O_R   0.319640 0.500000 0.618780 -0.541540
O4    O     O_R   0.319650 0.500020 0.381210 -0.565007
O5    O     O_R   0.500000 0.680340 0.618760 -0.615790
O6    O     O_R   0.500010 0.680360 0.381190 -0.551527
O7    O     O_R   0.680350 0.499980 0.618790 -0.604836
O8    O     O_R   0.680360 0.500000 0.381220 -0.614690
N3    N     N_3   0.741725 0.319432 0.028372 -0.625804
H19   H     H_    0.792173 0.243068 0.025941 0.208562
H20   H     H_    0.724480 0.333288 0.132581 0.222845
N4    N     N_3   0.439015 0.071210 0.019111 -0.594037
H21   H     H_    0.388695 0.147102 0.023026 0.255273
H22   H     H_    0.531696 0.100852 0.041939 0.208951
Br1   Br    Br    0.288863 0.810008 0.998544 -0.606465
N5    N     N_3   0.560994 0.892865 0.258785 -0.568360
H23   H     H_    0.492087 0.900881 0.182887 0.295177
H24   H     H_    0.641621 0.944687 0.225681 0.202869
Br2   Br    Br    0.294502 0.315210 0.837192 -0.591440
N6    N     N_3   0.180643 0.999898 0.393122 -0.592465
H25   H     H_    0.195896 0.931187 0.324252 0.239533
H26   H     H_    0.263873 0.021230 0.447578 0.233023

loop_
_geom_bond_atom_site_label_1
_geom_bond_atom_site_label_2
_ccdc_geom_bond_type
C16   C21   A    
C11   C13   A    
Cu1   Cu2   S    
C6    H16   S    
C19   C20   A    
C35   Br2   S    
C7    C8    A    
Cu1   O5    S    
C30   H12   S    
C37   C38   A    
N4    H22   S    
C36   C37   A    
C32   N1    A    
C5    C6    A    
N5    H24   S    
C33   H7    S    
Cu2   O8    S    
C18   C19   A    
C23   C26   S    
C23   O5    A    
C31   C32   A    
C16   C17   A    
C9    C10   A    
C34   O8    A    
C1    C22   S    
C21   C22   A    
Cu2   O6    S    
C31   N2    A    
C8    C38   S    
Cu1   N2    S    
C1    O1    A    
C16   H5    S    
C27   H9    S    
C14   H3    S    
C7    C12   S    
C4    C34   S    
N4    H21   S    
C25   N5    S    
C40   N6    S    
C24   C25   A    
C3    C8    A    
C39   C40   A    
N3    H20   S    
N5    H23   S    
Cu1   O3    S    
C13   N3    S    
C25   C26   A    
C12   O4    A    
C9    H17   S    
C23   O6    A    
C10   H18   S    
C29   C30   A    
C39   H14   S    
Cu2   N1    S    
C2    H1    S    
C17   C18   A    
C11   H2    S    
C34   O7    A    
C3    H15   S    
N6    H26   S    
C17   N4    S    
C22   C24   A    
Cu1   O1    S    
C3    C4    A    
C1    O2    A    
Cu2   O2    S    
C36   H8    S    
Cu1   O7    S    
C2    C36   A    
C28   C29   A    
C27   C32   A    
C19   H6    S    
C4    C5    A    
C20   C26   A    
C6    C7    A    
C12   O3    A    
C24   H4    S    
C9    C15   A    
N3    H19   S    
C28   H10   S    
C30   C31   A    
C38   C39   A    
C29   H11   S    
C18   Br1   S    
C33   C35   A    
C35   N2    A    
C5    C15   S    
C10   C11   A    
C37   H13   S    
C2    C40   A    
C20   C21   A    
C33   N1    A    
N6    H25   S    
C27   C28   A    
Cu2   O4    S    
C14   C15   A    
C13   C14   A    
