data_mof_unit_10444.cif
_audit_creation_date              2012-12-11T14:49:49-0500
_audit_creation_method            fapswitch 2.2
_symmetry_space_group_name_H-M    P1
_symmetry_Int_Tables_number       1
_space_group_crystal_system       triclinic
_cell_length_a                    16.898661
_cell_length_b                    16.720646
_cell_length_c                    19.513314
_cell_angle_alpha                 117.914356
_cell_angle_beta                  63.468142
_cell_angle_gamma                 100.59965
_cell_volume                      4356.78617558

loop_
_atom_site_label
_atom_site_type_symbol
_atom_type_description
_atom_site_fract_x
_atom_site_fract_y
_atom_site_fract_z
_atom_type_partial_charge
C1    C     C_R   0.056829 0.753621 0.995476 -0.153233
C2    C     C_R   0.250810 0.529273 0.826989 0.024998
C3    C     C_R   0.184010 0.489880 0.087746 -0.134526
C4    C     C_R   0.762599 0.423255 0.164696 -0.147394
C5    C     C_R   0.989039 0.339720 0.759067 -0.139203
C6    C     C_R   0.257159 0.541246 0.066734 0.054549
C7    C     C_R   0.941557 0.262580 0.757520 0.079638
C8    C     C_R   0.254594 0.470137 0.746646 0.008344
C9    C     C_R   0.012735 0.224167 0.018848 0.055665
C10   C     C_R   0.856878 0.128319 0.700292 -0.265989
C11   C     C_R   0.906637 0.203572 0.693666 0.115757
C12   C     C_R   0.766623 0.446472 0.240159 0.075742
C13   C     C_R   0.928831 0.218419 0.622029 -0.261546
C14   C     C_R   0.913500 0.152694 0.552417 0.141311
C15   C     C_R   0.872770 0.072353 0.555605 0.026352
C16   C     C_R   0.806234 0.563538 0.963155 -0.130209
C17   C     C_R   0.840185 0.062155 0.631335 0.143286
C18   C     C_R   0.946078 0.162284 0.476858 -0.208621
C19   C     C_R   0.947266 0.088759 0.402180 -0.209883
C20   C     C_R   0.915524 0.005502 0.402880 0.140832
C21   C     C_R   0.873280 0.998714 0.480693 0.029956
C22   C     C_R   0.840420 0.915474 0.482055 0.130012
C23   C     C_R   0.725438 0.551153 0.021999 0.058851
C24   C     C_R   0.798721 0.909128 0.559569 -0.217208
C25   C     C_R   0.798996 0.982189 0.633990 -0.203115
C26   C     C_R   0.934483 0.927034 0.326591 -0.263188
C27   C     C_R   0.913998 0.842368 0.327822 0.123909
C28   C     C_R   0.952913 0.673669 0.246939 -0.129756
C29   C     C_R   0.858825 0.837982 0.405246 -0.277309
C30   C     C_R   0.383233 0.385417 0.619738 -0.280398
C31   C     C_R   0.327685 0.462038 0.670043 0.113118
C32   C     C_R   0.342650 0.534938 0.650565 -0.230005
C33   C     C_R   0.416174 0.533054 0.579838 0.124309
C34   C     C_R   0.959699 0.759727 0.251517 0.074583
C35   C     C_R   0.474182 0.456473 0.528142 0.025880
C36   C     C_R   0.457348 0.381931 0.547874 0.149377
C37   C     C_R   0.432675 0.607065 0.561182 -0.271458
C38   C     C_R   0.507679 0.606655 0.490763 -0.000086
C39   C     C_R   0.565476 0.529523 0.437806 0.066064
C40   C     C_R   0.739702 0.484482 0.038877 -0.125560
C41   C     C_R   0.548698 0.454422 0.456938 0.019959
C42   C     C_R   0.606178 0.376799 0.404332 0.156267
C43   C     C_R   0.589211 0.303349 0.424250 -0.212919
C44   C     C_R   0.514985 0.306000 0.496056 -0.209258
C45   C     C_R   0.248219 0.571077 0.015509 -0.130932
C46   C     C_R   0.638618 0.524098 0.364846 -0.263914
C47   C     C_R   0.693799 0.447337 0.313728 0.107346
C48   C     C_R   0.679343 0.373974 0.332252 -0.273141
C49   C     C_R   0.639478 0.594745 0.056116 0.133596
C50   C     C_R   0.325950 0.569037 0.099454 0.130134
C51   C     C_R   0.408023 0.541107 0.161366 -0.229115
C52   C     C_R   0.020237 0.752722 0.171532 -0.130570
C53   C     C_R   0.331361 0.532096 0.148775 -0.173921
C54   C     C_R   0.393499 0.624487 0.072167 -0.283206
C55   C     C_R   0.472201 0.628705 0.079525 0.189650
C56   C     C_R   0.922328 0.260663 0.833836 -0.139679
C57   C     C_R   0.480740 0.583597 0.121521 0.186347
C58   C     C_R   0.564160 0.571452 0.113392 -0.278738
C59   C     C_R   0.629595 0.648983 0.022950 -0.176726
C60   C     C_R   0.545737 0.667492 0.036149 -0.228763
C61   C     C_R   0.165351 0.086521 0.827995 0.111958
C62   C     C_R   0.036373 0.837547 0.922065 0.128343
C63   C     C_R   0.998123 0.914752 0.860947 -0.230711
C64   C     C_R   0.842043 0.492546 0.240937 -0.152683
C65   C     C_R   0.980613 0.849631 0.891274 -0.177417
C66   C     C_R   0.109601 0.893308 0.923333 -0.288828
C67   C     C_R   0.169850 0.455573 0.751701 -0.148906
C68   C     C_R   0.127895 0.958623 0.892586 0.191723
C69   C     C_R   0.071935 0.969014 0.860606 0.187251
C70   C     C_R   0.091304 0.033089 0.828308 -0.277276
C71   C     C_R   0.220324 0.076778 0.860019 -0.162786
C72   C     C_R   0.201887 0.013115 0.892236 -0.231180
C73   C     C_R   0.977360 0.684653 0.920106 -0.146979
C74   C     C_R   0.019279 0.764856 0.949911 0.064003
C75   C     C_R   0.323604 0.585904 0.844540 0.118027
C76   C     C_R   0.404691 0.545694 0.817679 -0.130611
C77   C     C_R   0.473868 0.599718 0.833767 -0.113542
C78   C     C_R   0.042385 0.308815 0.060786 -0.125464
C79   C     C_R   0.462905 0.694014 0.875643 -0.109372
C80   C     C_R   0.382824 0.734479 0.901293 -0.121855
C81   C     C_R   0.313358 0.680711 0.885611 -0.179559
C82   C     C_R   0.523428 0.687585 0.474598 0.143681
C83   C     C_R   0.595452 0.742562 0.482618 -0.170020
C84   C     C_R   0.609716 0.819077 0.467591 -0.109274
C85   C     C_R   0.552308 0.841191 0.444647 -0.083418
C86   C     C_R   0.480258 0.787057 0.437050 -0.106979
C87   C     C_R   0.465549 0.710647 0.452285 -0.159573
C88   C     C_R   0.963278 0.239669 0.984756 -0.120741
H1    H     H_    0.105216 0.796380 0.017013 0.083510
H2    H     H_    0.976156 0.224443 0.474148 0.128673
H3    H     H_    0.714966 0.380281 0.141935 0.096325
H4    H     H_    0.978472 0.095247 0.343031 0.129490
H5    H     H_    0.972743 0.931921 0.267135 0.118952
H6    H     H_    0.837218 0.773768 0.407141 0.120440
H7    H     H_    0.771754 0.845816 0.561526 0.128407
H8    H     H_    0.772109 0.974139 0.692199 0.126903
H9    H     H_    0.369261 0.330032 0.637376 0.130682
H10   H     H_    0.297591 0.593698 0.691869 0.129763
H11   H     H_    0.387689 0.665795 0.602129 0.142241
H12   H     H_    0.876037 0.217609 0.859771 0.086024
H13   H     H_    0.653174 0.578543 0.345978 0.147336
H14   H     H_    0.819244 0.609722 0.935416 0.090813
H15   H     H_    0.724402 0.315333 0.290442 0.127946
H16   H     H_    0.633190 0.243981 0.384241 0.132026
H17   H     H_    0.502498 0.248814 0.510955 0.131699
H18   H     H_    0.570013 0.534439 0.143927 0.119614
H19   H     H_    0.686202 0.671493 0.981680 0.113364
H20   H     H_    0.413410 0.507291 0.194900 0.127431
H21   H     H_    0.539597 0.703898 0.005052 0.125299
H22   H     H_    0.279353 0.491315 0.172874 0.114601
H23   H     H_    0.149900 0.419643 0.699615 0.113290
H24   H     H_    0.390236 0.656557 0.036632 0.130239
H25   H     H_    0.049420 0.041997 0.803409 0.125172
H26   H     H_    0.912608 0.653383 0.296759 0.094533
H27   H     H_    0.277409 0.118617 0.859644 0.123111
H28   H     H_    0.954288 0.922198 0.837177 0.125153
H29   H     H_    0.245516 0.006230 0.916468 0.126204
H30   H     H_    0.923151 0.808601 0.890568 0.115093
H31   H     H_    0.153844 0.884737 0.946069 0.116002
H32   H     H_    0.692247 0.456025 0.080071 0.093689
H33   H     H_    0.041704 0.806584 0.152296 0.095636
H34   H     H_    0.079020 0.323631 0.098554 0.095535
H35   H     H_    0.867792 0.513278 0.288357 0.097347
H36   H     H_    0.954436 0.663351 0.870667 0.088751
H37   H     H_    0.281770 0.626715 0.002548 0.118199
H38   H     H_    0.413879 0.472703 0.785309 0.112768
H39   H     H_    0.535958 0.568505 0.813830 0.113647
H40   H     H_    0.516519 0.735719 0.888055 0.099843
H41   H     H_    0.374569 0.807506 0.933318 0.108342
H42   H     H_    0.251870 0.712813 0.905281 0.111690
H43   H     H_    0.640345 0.726093 0.500408 0.111433
H44   H     H_    0.665096 0.861386 0.473884 0.126728
H45   H     H_    0.926218 0.190026 0.951569 0.093686
H46   H     H_    0.563543 0.900383 0.432947 0.104558
H47   H     H_    0.435772 0.804332 0.419401 0.113310
H48   H     H_    0.409561 0.669126 0.446138 0.114124
H49   H     H_    0.162490 0.466913 0.136531 0.085934
H50   H     H_    0.003635 0.370835 0.717351 0.086095
H51   H     H_    0.836689 0.117196 0.756062 0.116148
H52   H     H_    0.964361 0.277354 0.616572 0.116713
N1    N     N_R   0.036080 0.671900 0.995420 -0.037396
N2    N     N_R   0.867430 0.509300 0.948100 -0.039038
N3    N     N_R   0.003360 0.617250 0.167070 -0.041105
N4    N     N_R   0.825450 0.461270 0.995400 -0.040917
N5    N     N_R   0.045340 0.665280 0.119770 -0.040807
N6    N     N_R   0.883740 0.497640 0.167070 -0.037638
N7    N     N_R   0.987050 0.628910 0.948110 -0.035347
N8    N     N_R   0.174550 0.538730 0.004600 -0.044131
N9    N     N_R   0.954660 0.334720 0.880230 -0.039133
N10   N     N_R   0.116260 0.502360 0.832930 -0.048225
N11   N     N_R   0.012950 0.371090 0.051890 -0.040583
N12   N     N_R   0.963920 0.328100 0.004580 -0.041021
N13   N     N_R   0.165290 0.545350 0.880240 -0.061877
N14   N     N_R   0.132570 0.490700 0.051900 -0.039329
N15   N     N_R   0.996640 0.382750 0.832930 -0.038317
N16   N     N_R   0.834710 0.454650 0.119760 -0.037859
Ni1   Ni    Ni4+2 0.104370 0.604370 0.000010 0.207078
Ni2   Ni    Ni4+2 0.895630 0.395630 0.999990 0.209500
Ni3   Ni    Ni4+2 0.991920 0.505780 0.891500 0.208250
Ni4   Ni    Ni4+2 0.008080 0.494220 0.108500 0.209306

loop_
_geom_bond_atom_site_label_1
_geom_bond_atom_site_label_2
_ccdc_geom_bond_type
C53   H22   S    
C61   C70   A    
C66   C68   A    
C79   H40   S    
C63   C65   A    
C52   N5    A    
C6    C45   A    
C27   C29   A    
C45   N8    A    
C76   H38   S    
C41   C42   A    
C14   C18   A    
C35   C36   A    
N2    Ni3   S    
C75   C76   A    
C3    C6    A    
N7    Ni3   S    
C57   C58   A    
N3    Ni4   S    
C39   C41   A    
C44   H17   S    
C7    C11   S    
C30   H9    S    
C26   C27   A    
C50   C54   A    
C73   N7    A    
C83   C84   A    
C1    C74   A    
C22   C29   A    
C88   H45   S    
C60   H21   S    
C9    C88   A    
C29   H6    S    
C12   C64   A    
C23   C49   S    
N6    Ni4   S    
C10   C17   A    
C23   C40   A    
C15   C17   A    
C18   C19   A    
C73   C74   A    
C43   H16   S    
C19   H4    S    
C54   C55   A    
C84   C85   A    
C63   C69   A    
C45   H37   S    
C68   C69   A    
N10   N13   A    
C72   H29   S    
N11   N12   A    
C51   C57   A    
C4    C12   A    
N9    Ni2   S    
C77   H39   S    
C68   C72   A    
C85   H46   S    
N8    Ni1   S    
C4    H3    S    
C55   C60   A    
C61   C71   A    
C26   H5    S    
C28   C34   A    
C59   C60   A    
C70   H25   S    
C13   C14   A    
C38   C82   S    
C67   N10   A    
C88   N12   A    
N8    N14   A    
C7    C56   A    
C12   C47   S    
C35   C41   A    
C78   N11   A    
C77   C79   A    
C27   C34   S    
C46   H13   S    
N12   Ni2   S    
C50   C53   A    
N10   Ni3   S    
C62   C66   A    
N15   Ni3   S    
C18   H2    S    
C13   H52   S    
C5    H50   S    
C24   C25   A    
C24   H7    S    
C5    C7    A    
C86   C87   A    
C75   C81   A    
C85   C86   A    
C48   H15   S    
C84   H44   S    
C3    N14   A    
C33   C37   A    
C49   C58   A    
C58   H18   S    
C16   N2    A    
C43   C44   A    
N14   Ni4   S    
C37   C38   A    
N5    Ni1   S    
C52   H33   S    
C47   C48   A    
C30   C31   A    
C65   H30   S    
C73   H36   S    
C54   H24   S    
C28   N3    A    
C42   C48   A    
C76   C77   A    
C28   H26   S    
C8    C67   A    
C39   C46   A    
C3    H49   S    
C63   H28   S    
N1    Ni1   S    
C4    N16   A    
C51   H20   S    
C16   C23   A    
C66   H31   S    
C55   C57   A    
C22   C24   A    
C36   C44   A    
C42   C43   A    
C56   H12   S    
N4    Ni2   S    
C40   H32   S    
C37   H11   S    
C67   H23   S    
N3    N5    A    
C46   C47   A    
C1    H1    S    
C80   H41   S    
C6    C50   S    
C62   C65   A    
C64   N6    A    
C8    C31   S    
C87   H48   S    
C31   C32   A    
C2    C8    A    
C80   C81   A    
C2    N13   A    
C64   H35   S    
C34   C52   A    
C49   C59   A    
C30   C36   A    
C17   C25   A    
C32   C33   A    
C19   C20   A    
C40   N4    A    
C83   H43   S    
N9    N15   A    
C71   C72   A    
C5    N15   A    
N11   Ni4   S    
C11   C13   A    
C81   H42   S    
C38   C39   A    
C20   C26   A    
C16   H14   S    
N16   Ni2   S    
C33   C35   A    
C32   H10   S    
N2    N4    A    
C9    C78   A    
N13   Ni1   S    
C69   C70   A    
C78   H34   S    
C59   H19   S    
C1    N1    A    
C10   C11   A    
N1    N7    A    
C79   C80   A    
C71   H27   S    
C86   H47   S    
C15   C21   A    
N6    N16   A    
C20   C21   A    
C25   H8    S    
C82   C83   A    
C10   H51   S    
C14   C15   A    
C62   C74   S    
C51   C53   A    
C56   N9    A    
C21   C22   A    
C2    C75   S    
C82   C87   A    
