data_mof_unit_51986.cif
_audit_creation_date              2012-12-10T17:33:47-0500
_audit_creation_method            fapswitch 2.2
_symmetry_space_group_name_H-M    P1
_symmetry_Int_Tables_number       1
_space_group_crystal_system       triclinic
_cell_length_a                    11.686114
_cell_length_b                    12.332498
_cell_length_c                    13.107676
_cell_angle_alpha                 116.555378
_cell_angle_beta                  77.990432
_cell_angle_gamma                 101.083579
_cell_volume                      1642.12745873

loop_
_atom_site_label
_atom_site_type_symbol
_atom_type_description
_atom_site_fract_x
_atom_site_fract_y
_atom_site_fract_z
_atom_type_partial_charge
C1    C     C_R   0.512029 0.854628 0.285867 0.809392
C2    C     C_R   0.461679 0.227880 0.835880 -0.127907
C3    C     C_R   0.595025 0.811093 0.080882 0.467014
C4    C     C_R   0.603781 0.733501 0.962650 0.052273
C5    C     C_R   0.555732 0.611768 0.927313 -0.306420
C6    C     C_R   0.494277 0.566292 0.007585 0.092179
C7    C     C_R   0.463814 0.650496 0.122596 0.028908
C8    C     C_R   0.460355 0.439682 0.976543 0.051570
C9    C     C_R   0.386232 0.399963 0.056844 0.056070
C10   C     C_R   0.341590 0.486632 0.163649 -0.209291
C11   C     C_R   0.377609 0.609913 0.194982 -0.179965
C12   C     C_R   0.715720 0.999521 0.499794 0.810364
C13   C     C_R   0.501135 0.351195 0.868653 -0.254405
C14   C     C_R   0.391742 0.188751 0.916257 -0.279128
C15   C     C_R   0.520467 0.772185 0.161458 -0.237583
C16   C     C_R   0.686617 0.344965 0.327420 -0.271194
C17   C     C_R   0.344003 0.760847 0.647285 0.084471
C18   C     C_R   0.311343 0.665766 0.680928 -0.274031
C19   C     C_R   0.370777 0.562255 0.625792 -0.164260
C20   C     C_R   0.464564 0.552712 0.535940 -0.008019
C21   C     C_R   0.495789 0.653329 0.505573 0.217274
C22   C     C_R   0.528494 0.447857 0.475604 -0.112315
C23   C     C_R   0.483677 0.145034 0.713774 0.823224
C24   C     C_R   0.623485 0.446825 0.387764 0.048965
C25   C     C_R   0.655627 0.547914 0.361907 0.423412
C26   C     C_R   0.591170 0.647532 0.418757 -0.276612
C27   C     C_R   0.502415 0.342884 0.498239 0.043805
C28   C     C_R   0.656780 0.245588 0.354380 0.073071
C29   C     C_R   0.284271 0.000284 0.499976 0.813417
C30   C     C_1   0.837325 0.998884 0.499725 -0.199633
C31   C     C_1   0.939944 0.999058 0.499572 -0.012989
C32   C     C_1   0.059966 0.999812 0.499468 -0.005888
C33   C     C_1   0.162623 0.000399 0.499576 -0.186484
C34   C     C_R   0.356678 0.274034 0.028022 0.491363
Cu1   Cu    Cu3+1 0.526510 0.098270 0.475420 0.946412
Cu2   Cu    Cu3+1 0.473490 0.901730 0.524580 0.909187
H1    H     H_    0.361633 0.092847 0.891962 0.165403
H2    H     H_    0.759339 0.341948 0.260092 0.189965
H3    H     H_    0.431710 0.335589 0.562971 0.124528
H4    H     H_    0.297628 0.841013 0.690773 0.126688
H5    H     H_    0.341821 0.491726 0.655699 0.134473
H6    H     H_    0.239791 0.672366 0.750063 0.145432
H7    H     H_    0.620320 0.718892 0.391784 0.222712
H8    H     H_    0.279079 0.459537 0.224032 0.185705
H9    H     H_    0.563567 0.375816 0.807296 0.163524
H10   H     H_    0.565177 0.554918 0.835936 0.151264
H11   H     H_    0.335235 0.672318 0.276172 0.173895
H12   H     H_    0.705769 0.167549 0.308738 0.153808
N1    N     N_R   0.566700 0.246290 0.438210 -0.182351
N2    N     N_R   0.434010 0.754320 0.561170 -0.188398
O1    O     O_R   0.533340 0.972510 0.318140 -0.530746
O2    O     O_R   0.488570 0.806530 0.359650 -0.606029
O3    O     O_R   0.685190 0.083000 0.479260 -0.572508
O4    O     O_R   0.640410 0.917020 0.520770 -0.600812
O5    O     O_R   0.511430 0.193470 0.640350 -0.585416
O6    O     O_R   0.466660 0.027490 0.681860 -0.596697
O7    O     O_R   0.359590 0.082980 0.479230 -0.578772
O8    O     O_R   0.314810 0.917000 0.520740 -0.584555
O9    O     O_3   0.746411 0.546596 0.274713 -0.575354
C35   C     C_3   0.846355 0.619359 0.324810 -0.337967
H13   H     H_    0.872704 0.586978 0.382522 0.162921
H14   H     H_    0.831467 0.717153 0.372523 0.164039
H15   H     H_    0.920950 0.612274 0.255019 0.196492
O10   O     O_3   0.286742 0.234044 0.106229 -0.594757
C36   C     C_3   0.361017 0.206768 0.161745 -0.309872
H16   H     H_    0.305614 0.176947 0.226364 0.197590
H17   H     H_    0.421044 0.288652 0.208609 0.172102
H18   H     H_    0.412793 0.130669 0.099615 0.165803
O11   O     O_3   0.658610 0.925609 0.116632 -0.581986
C37   C     C_3   0.767543 0.917634 0.142132 -0.319891
H19   H     H_    0.823330 0.005983 0.159911 0.182025
H20   H     H_    0.816426 0.845924 0.068675 0.148664
H21   H     H_    0.755265 0.900396 0.220266 0.157808
C38   C     C_3   0.669091 0.778092 0.873439 -0.364550
C39   C     C_3   0.600004 0.865590 0.862886 -0.340002
C40   C     C_3   0.665225 0.908625 0.771589 -0.794604
H22   H     H_    0.754845 0.953075 0.792026 0.246326
H23   H     H_    0.672340 0.830279 0.685293 0.257506
H24   H     H_    0.616344 0.976120 0.769642 0.260899
H25   H     H_    0.511948 0.818697 0.838723 0.221006
H26   H     H_    0.587124 0.946626 0.946659 0.245797
H27   H     H_    0.757501 0.824126 0.896581 0.208782
H28   H     H_    0.683831 0.699915 0.787619 0.183867

loop_
_geom_bond_atom_site_label_1
_geom_bond_atom_site_label_2
_ccdc_geom_bond_type
C16   C28   A    
C21   C26   A    
C8    C13   A    
Cu1   O3    S    
C11   H11   S    
C19   C20   A    
C40   H24   S    
C38   H28   S    
Cu2   N2    S    
C23   O6    A    
C7    C11   A    
C35   H15   S    
C3    O11   S    
C40   H23   S    
Cu2   O8    S    
C18   H6    S    
C5    C6    A    
C29   C33   S    
C35   H14   S    
C18   C19   A    
C2    C13   A    
Cu1   Cu2   S    
C27   H3    S    
C8    C9    A    
C36   H17   S    
Cu1   N1    S    
C37   H19   S    
C1    C15   S    
C39   H25   S    
C4    C38   S    
C12   O3    A    
Cu2   O2    S    
C7    C15   A    
O9    C35   S    
C16   C24   A    
C38   H27   S    
C21   N2    A    
C26   H7    S    
C38   C39   S    
C10   H8    S    
C40   H22   S    
C39   H26   S    
C6    C8    A    
C25   C26   A    
Cu1   O5    S    
C35   H13   S    
C17   H4    S    
C39   C40   S    
Cu2   O6    S    
C28   N1    A    
C31   C32   S    
C36   H18   S    
C20   C21   A    
C37   H21   S    
C34   O10   S    
C17   C18   A    
C24   C25   A    
C1    O1    A    
C29   O7    A    
C22   C27   A    
Cu1   O1    S    
C9    C34   A    
C22   C24   A    
C3    C4    A    
C3    C15   A    
C9    C10   A    
C28   H12   S    
C12   C30   S    
C20   C22   A    
C4    C5    A    
C17   N2    A    
C14   C34   A    
C23   O5    A    
C6    C7    A    
C5    H10   S    
Cu1   O7    S    
O10   C36   S    
C32   C33   T    
C14   H1    S    
C13   H9    S    
C30   C31   T    
O11   C37   S    
C2    C14   A    
C1    O2    A    
Cu2   O4    S    
C10   C11   A    
C27   N1    A    
C29   O8    A    
C36   H16   S    
C2    C23   S    
C37   H20   S    
C25   O9    S    
C12   O4    A    
C19   H5    S    
C16   H2    S    
