data_mof_unit_16966.cif
_audit_creation_date              2012-12-10T17:43:19-0500
_audit_creation_method            fapswitch 2.2
_symmetry_space_group_name_H-M    P1
_symmetry_Int_Tables_number       1
_space_group_crystal_system       triclinic
_cell_length_a                    15.107274
_cell_length_b                    13.717158
_cell_length_c                    10.657006
_cell_angle_alpha                 91.468855
_cell_angle_beta                  87.601829
_cell_angle_gamma                 88.401125
_cell_volume                      2204.85164638

loop_
_atom_site_label
_atom_site_type_symbol
_atom_type_description
_atom_site_fract_x
_atom_site_fract_y
_atom_site_fract_z
_atom_type_partial_charge
C1    C     C_R   0.328819 0.501681 0.510851 0.900543
C2    C     C_R   0.671199 0.498305 0.489300 0.894632
C3    C     C_R   0.953336 0.498235 0.497375 -0.011556
C4    C     C_R   0.046711 0.501219 0.503147 -0.004707
C5    C     C_R   0.914466 0.477863 0.381165 -0.044601
C6    C     C_R   0.085596 0.521764 0.619298 -0.051569
C7    C     C_R   0.938025 0.533347 0.723741 0.398024
C8    C     C_R   0.061988 0.465916 0.276834 0.317705
C9    C     C_R   0.029990 0.532592 0.728407 -0.133946
C10   C     C_R   0.970076 0.466975 0.272098 -0.137558
C11   C     C_R   0.454984 0.796703 0.593426 0.133226
C12   C     C_R   0.547141 0.203635 0.408562 0.131927
C13   C     C_R   0.544354 0.789920 0.405978 0.134302
C14   C     C_R   0.451085 0.210358 0.589399 0.132667
C15   C     C_R   0.542928 0.893189 0.399895 -0.122646
C16   C     C_R   0.447326 0.107275 0.590281 -0.126571
C17   C     C_R   0.454060 0.900345 0.597282 -0.123260
C18   C     C_R   0.549345 0.100094 0.405523 -0.122729
C19   C     C_R   0.498379 0.948540 0.498317 -0.010849
C20   C     C_R   0.498376 0.051881 0.498040 -0.004968
C21   C     C_R   0.585821 0.941958 0.299416 0.302899
C22   C     C_R   0.395606 0.058746 0.682193 0.288380
C23   C     C_R   0.408821 0.956586 0.695501 0.273231
C24   C     C_R   0.599004 0.044139 0.311291 0.248560
C25   C     C_R   0.499193 0.499028 0.259109 0.857150
C26   C     C_R   0.501429 0.500704 0.740914 0.856086
C27   C     C_3   0.424802 0.540956 0.047524 -0.118413
C28   C     C_3   0.576855 0.457132 0.952489 -0.149752
C29   C     C_3   0.494754 0.591902 0.964306 -0.137930
C30   C     C_3   0.506956 0.405964 0.036015 -0.152474
C31   C     C_3   0.431755 0.449685 0.959102 -0.054928
C32   C     C_3   0.569886 0.548342 0.041036 -0.073351
C33   C     C_3   0.501578 0.501008 0.877899 -0.075476
C34   C     C_3   0.499987 0.497345 0.122216 -0.044366
C35   C     C_R   0.821123 0.469926 0.376495 0.384647
C36   C     C_R   0.178948 0.529999 0.623799 0.389988
C37   C     C_R   0.768024 0.494414 0.486114 -0.186013
C38   C     C_R   0.232008 0.505464 0.514160 -0.180177
C39   C     C_R   0.806947 0.516299 0.598861 -0.198287
C40   C     C_R   0.193070 0.483165 0.401569 -0.202801
C41   C     C_R   0.898988 0.516269 0.607542 0.011598
C42   C     C_R   0.101040 0.483113 0.392975 0.023799
Cu1   Cu    Cu3+1 0.500000 0.597420 0.500000 1.022648
Cu2   Cu    Cu3+1 0.500000 0.402580 0.500000 1.025543
H1    H     H_    0.376084 0.407762 0.922945 0.230116
H2    H     H_    0.625228 0.590734 0.077233 0.211502
H3    H     H_    0.362746 0.575580 0.089144 0.212127
H4    H     H_    0.639175 0.423037 0.910852 0.204768
H5    H     H_    0.491224 0.667618 0.932417 0.235242
H6    H     H_    0.511556 0.329613 0.067818 0.190928
H7    H     H_    0.763305 0.531448 0.680360 0.204276
H8    H     H_    0.236696 0.467740 0.320109 0.210336
H9    H     H_    0.057138 0.538694 0.819791 0.260884
H10   H     H_    0.943007 0.461154 0.180636 0.266257
H11   H     H_    0.418334 0.757213 0.663318 0.204020
H12   H     H_    0.580736 0.243605 0.336271 0.199839
H13   H     H_    0.582375 0.745161 0.337339 0.189118
H14   H     H_    0.416621 0.255368 0.661237 0.190975
N1    N     N_R   0.500000 0.743810 0.500000 -0.229336
N2    N     N_R   0.500000 0.256190 0.500000 -0.229407
O1    O     O_R   0.370260 0.582280 0.500030 -0.542779
O2    O     O_R   0.629740 0.417720 0.499970 -0.535209
O3    O     O_R   0.629740 0.582280 0.499970 -0.591131
O4    O     O_R   0.370260 0.417720 0.500030 -0.576137
O5    O     O_R   0.499980 0.582260 0.316850 -0.588556
O6    O     O_R   0.500020 0.417740 0.683150 -0.600210
O7    O     O_R   0.500020 0.582260 0.683150 -0.569429
O8    O     O_R   0.499980 0.417740 0.316850 -0.576947
S1    S     S_3+6 0.773192 0.429646 0.234491 0.032135
O9    O     O_2   0.770573 0.513993 0.147696 -0.281340
O10   O     O_2   0.828829 0.347443 0.173527 -0.196554
O11   O     O_3   0.670876 0.388757 0.256799 -0.550666
H15   H     H_    0.658784 0.353230 0.177608 0.386040
S2    S     S_3+6 0.226967 0.570842 0.765511 0.015163
O12   O     O_2   0.171093 0.652938 0.826250 -0.245541
O13   O     O_2   0.230092 0.486677 0.852594 -0.237367
O14   O     O_3   0.329084 0.612276 0.742838 -0.559356
H16   H     H_    0.342120 0.645583 0.823209 0.387905
S3    S     S_3+6 0.874327 0.553462 0.866487 0.055531
O15   O     O_2   0.823721 0.463034 0.893561 -0.254527
O16   O     O_2   0.932620 0.575702 0.973834 -0.230787
O17   O     O_3   0.802618 0.648132 0.851645 -0.518094
H17   H     H_    0.761461 0.646198 0.926326 0.391989
S4    S     S_3+6 0.125568 0.446005 0.133948 0.066310
O18   O     O_2   0.187902 0.359689 0.145635 -0.220951
O19   O     O_2   0.067458 0.426591 0.025531 -0.208876
O20   O     O_3   0.184958 0.545525 0.105907 -0.506224
H18   H     H_    0.140287 0.598724 0.096145 0.383538
S5    S     S_3+6 0.610200 0.877439 0.153637 0.043812
O21   O     O_2   0.697305 0.822519 0.160291 -0.274698
O22   O     O_2   0.538679 0.805985 0.129921 -0.296340
O23   O     O_3   0.614767 0.953545 0.032448 -0.430843
H19   H     H_    0.628295 0.910917 0.957267 0.393562
S6    S     S_3+6 0.307720 0.123971 0.768370 0.068664
O24   O     O_2   0.345269 0.179140 0.876667 -0.280170
O25   O     O_2   0.263586 0.195265 0.684314 -0.271460
O26   O     O_3   0.230009 0.048364 0.822487 -0.400998
H20   H     H_    0.188704 0.090189 0.876347 0.406174
S7    S     S_3+6 0.382618 0.901815 0.841779 0.075310
O27   O     O_2   0.298050 0.847506 0.832323 -0.177733
O28   O     O_2   0.456021 0.831165 0.870936 -0.343688
O29   O     O_3   0.371593 0.983986 0.961649 -0.396869
H21   H     H_    0.432021 0.008301 0.972386 0.378300
S8    S     S_3+6 0.684573 0.100049 0.220016 0.086096
O30   O     O_2   0.643946 0.152739 0.113700 -0.238744
O31   O     O_2   0.731206 0.172524 0.300232 -0.260573
O32   O     O_3   0.761161 0.018126 0.161070 -0.382763
H22   H     H_    0.790652 0.992706 0.235333 0.364764

loop_
_geom_bond_atom_site_label_1
_geom_bond_atom_site_label_2
_ccdc_geom_bond_type
C39   H7    S    
O20   H18   S    
C27   C29   S    
C23   S7    S    
C19   C20   A    
S4    O20   S    
C6    C9    A    
S8    O31   D    
O26   H20   S    
Cu1   O3    S    
C39   C41   A    
C21   S5    S    
O14   H16   S    
Cu2   O4    S    
C15   C19   A    
C17   C23   A    
S2    O13   D    
C18   C24   A    
C26   O7    A    
C35   C37   A    
C8    C42   A    
C29   C32   S    
C30   C31   S    
C13   H13   S    
C29   C33   S    
S1    O10   D    
Cu2   O6    S    
C11   C17   A    
S2    O14   S    
O32   H22   S    
C31   C33   S    
S5    O22   D    
Cu1   O5    S    
C25   C34   S    
C40   C42   A    
C30   H6    S    
C22   S6    S    
C28   H4    S    
O29   H21   S    
C25   O8    A    
C11   N1    A    
S8    O30   D    
C27   C34   S    
C14   H14   S    
S2    O12   D    
C30   C34   S    
C27   C31   S    
C26   O6    A    
C28   C32   S    
C25   O5    A    
S4    O18   D    
C4    C6    A    
S3    O16   D    
C29   H5    S    
S6    O26   S    
Cu2   O2    S    
C40   H8    S    
C24   S8    S    
C32   C34   S    
S1    O11   S    
Cu1   Cu2   S    
C26   C33   S    
S7    O27   D    
C16   C20   A    
S6    O24   D    
S5    O23   S    
S6    O25   D    
C12   H12   S    
C36   S2    S    
C1    C38   S    
Cu1   O7    S    
S7    O28   D    
C28   C33   S    
C13   C15   A    
C14   C16   A    
Cu2   O8    S    
C9    H9    S    
C3    C4    A    
C1    O4    A    
C11   H11   S    
C2    O3    A    
Cu1   O1    S    
C7    S3    S    
C27   H3    S    
C7    C9    A    
C3    C41   A    
C16   C22   A    
C8    S4    S    
C32   H2    S    
S4    O19   D    
O11   H15   S    
C3    C5    A    
C1    O1    A    
S3    O17   S    
C13   N1    A    
Cu1   N1    S    
C14   N2    A    
C28   C30   S    
C5    C10   A    
C37   C39   A    
C38   C40   A    
C2    C37   S    
C4    C42   A    
Cu2   N2    S    
C5    C35   A    
C36   C38   A    
O23   H19   S    
C17   C19   A    
C6    C36   A    
C18   C20   A    
C7    C41   A    
S1    O9    D    
C10   H10   S    
S3    O15   D    
C12   N2    A    
C15   C21   A    
S7    O29   S    
C35   S1    S    
C8    C10   A    
O17   H17   S    
C31   H1    S    
C21   C24   A    
C12   C18   A    
C22   C23   A    
S5    O21   D    
S8    O32   S    
C2    O2    A    
