data_mof_unit_68305.cif
_audit_creation_date              2013-03-05T15:51:45-0500
_audit_creation_method            fapswitch 2.2
_symmetry_space_group_name_H-M    P1
_symmetry_Int_Tables_number       1
_space_group_crystal_system       triclinic
_cell_length_a                    7.635407
_cell_length_b                    11.52264
_cell_length_c                    30.112071
_cell_angle_alpha                 90.576095
_cell_angle_beta                  89.962804
_cell_angle_gamma                 89.85841
_cell_volume                      2649.11878787

loop_
_atom_site_label
_atom_site_type_symbol
_atom_site_description
_atom_site_fract_x
_atom_site_fract_y
_atom_site_fract_z
_atom_type_partial_charge
O1    O     O_R   0.647170 0.849180 0.201220 -0.565636
O2    O     O_R   0.352830 0.150820 0.798780 -0.575272
O3    O     O_R   0.352830 0.150820 0.701220 -0.581555
O4    O     O_R   0.647170 0.849180 0.298780 -0.555269
O5    O     O_R   0.147170 0.650820 0.298780 -0.566581
O6    O     O_R   0.852830 0.349180 0.701220 -0.570542
O7    O     O_R   0.852830 0.349180 0.798780 -0.571929
O8    O     O_R   0.147170 0.650820 0.201220 -0.555115
O9    O     O_R   0.317430 0.862210 0.298450 -0.566312
O10   O     O_R   0.682570 0.137790 0.701550 -0.573703
O11   O     O_R   0.682570 0.137790 0.798450 -0.555815
O12   O     O_R   0.317430 0.862210 0.201550 -0.552636
O13   O     O_R   0.817430 0.637790 0.201550 -0.553984
O14   O     O_R   0.182570 0.362210 0.798450 -0.552167
O15   O     O_R   0.182570 0.362210 0.701550 -0.557762
O16   O     O_R   0.817430 0.637790 0.298450 -0.571883
C1    C     C_R   0.484543 0.884691 0.314428 0.951331
C2    C     C_R   0.514861 0.114044 0.686071 0.995937
C3    C     C_R   0.515828 0.115406 0.813855 0.954662
C4    C     C_R   0.484520 0.886542 0.186563 0.950434
C5    C     C_R   0.985822 0.609931 0.187399 0.944368
C6    C     C_R   0.015411 0.385439 0.813872 0.960796
C7    C     C_R   0.014985 0.384860 0.686670 0.947186
C8    C     C_R   0.984674 0.615556 0.313555 0.934134
O17   O     O_3   0.480630 0.680630 0.250000 -0.278303
O18   O     O_3   0.519370 0.319370 0.750000 -0.277131
O19   O     O_3   0.980630 0.819370 0.250000 -0.280356
O20   O     O_3   0.019370 0.180630 0.750000 -0.292185
V1    V     V_3+5 0.205800 0.762860 0.250000 1.332579
V2    V     V_3+5 0.794200 0.237140 0.750000 1.317805
V3    V     V_3+5 0.705800 0.737140 0.250000 1.330920
V4    V     V_3+5 0.294200 0.262860 0.750000 1.325729
C9    C     C_R   0.988226 0.540341 0.353907 -0.370583
C10   C     C_R   0.005969 0.464535 0.647792 -0.349840
C11   C     C_R   0.011023 0.455916 0.856459 -0.371186
C12   C     C_R   0.995210 0.522643 0.149234 -0.320678
C13   C     C_R   0.487455 0.971522 0.148435 -0.345284
C14   C     C_R   0.514044 0.044321 0.855707 -0.385197
C15   C     C_R   0.508536 0.026901 0.648183 -0.388987
C16   C     C_R   0.488590 0.958359 0.356799 -0.374024
C17   C     C_R   0.009853 0.346978 0.382510 0.362247
C18   C     C_R   0.018729 0.659924 0.620978 0.336591
C19   C     C_R   0.027331 0.643409 0.893530 0.333584
C20   C     C_R   0.010418 0.321659 0.123118 0.281413
C21   C     C_R   0.508654 0.172144 0.124091 0.276405
C22   C     C_R   0.539332 0.856061 0.890046 0.274452
C23   C     C_R   0.540044 0.827279 0.622355 0.277392
C24   C     C_R   0.505072 0.150137 0.390663 0.313407
C25   C     C_R   0.024083 0.424041 0.347841 0.304283
C26   C     C_R   0.038333 0.580778 0.655320 0.335685
C27   C     C_R   0.057303 0.573286 0.855725 0.295946
C28   C     C_R   0.029747 0.404994 0.157520 0.266640
C29   C     C_R   0.509734 0.088988 0.157963 0.319999
C30   C     C_R   0.561811 0.927534 0.853292 0.296802
C31   C     C_R   0.551576 0.911342 0.656587 0.276509
C32   C     C_R   0.531423 0.075639 0.354014 0.328749
C33   C     C_R   0.934210 0.581724 0.396308 -0.078828
C34   C     C_R   0.945066 0.426586 0.605724 -0.077900
C35   C     C_R   0.958975 0.404513 0.897329 -0.075470
C36   C     C_R   0.974397 0.558615 0.104752 -0.044352
C37   C     C_R   0.457231 0.936376 0.103870 -0.035534
C38   C     C_R   0.462561 0.093658 0.897308 -0.062113
C39   C     C_R   0.417312 0.048496 0.608377 -0.001797
C40   C     C_R   0.430550 0.914337 0.398507 -0.075632
C41   C     C_R   0.950381 0.510863 0.436193 0.145554
C42   C     C_R   0.950007 0.500595 0.566661 0.112328
C43   C     C_R   0.961246 0.468925 0.939216 0.147862
C44   C     C_R   0.961535 0.475620 0.067896 0.140376
C45   C     C_R   0.456437 0.019507 0.067383 0.127054
C46   C     C_R   0.472590 0.028453 0.938512 0.184165
C47   C     C_R   0.446925 0.978646 0.569492 0.096480
C48   C     C_R   0.443042 0.981543 0.440001 0.139815
C49   C     C_R   0.985576 0.389435 0.427109 -0.133606
C50   C     C_R   0.974267 0.621673 0.576620 -0.136736
C51   C     C_R   0.969849 0.593064 0.934516 -0.118470
C52   C     C_R   0.975070 0.356136 0.078342 -0.120697
C53   C     C_R   0.476334 0.138718 0.078808 -0.124965
C54   C     C_R   0.495245 0.904474 0.932642 -0.131066
C55   C     C_R   0.498678 0.861995 0.577636 -0.112770
C56   C     C_R   0.471720 0.104120 0.434115 -0.168310
C57   C     C_R   0.938787 0.550312 0.483592 -0.047758
C58   C     C_R   0.938877 0.463515 0.519252 -0.096662
C59   C     C_R   0.952506 0.423280 0.985312 -0.030020
C60   C     C_R   0.932217 0.505646 0.021507 -0.049815
C61   C     C_R   0.439660 0.990096 0.020352 -0.091744
C62   C     C_R   0.459662 0.073337 0.985080 -0.019283
C63   C     C_R   0.427411 0.019733 0.523811 -0.092999
C64   C     C_R   0.435702 0.937033 0.486418 -0.033994
C65   C     C_R   0.947729 0.343760 0.505246 0.372780
C66   C     C_R   0.934285 0.670946 0.497932 0.397319
C67   C     C_R   0.862169 0.613628 0.010608 0.332726
C68   C     C_R   0.956832 0.303725 0.998755 0.373203
C69   C     C_R   0.459584 0.192754 0.999636 0.371126
C70   C     C_R   0.389528 0.879149 0.007519 0.377806
C71   C     C_R   0.450176 0.815556 0.498542 0.418509
C72   C     C_R   0.418328 0.141709 0.513908 0.395151
C73   C     C_R   0.992480 0.311029 0.462210 -0.164437
C74   C     C_R   0.944189 0.703102 0.542945 -0.195407
C75   C     C_R   0.902731 0.663178 0.969728 -0.155493
C76   C     C_R   0.947220 0.273520 0.043987 -0.213854
C77   C     C_R   0.450485 0.222172 0.045223 -0.199120
C78   C     C_R   0.457395 0.830898 0.968980 -0.133597
C79   C     C_R   0.492269 0.781731 0.542106 -0.176618
C80   C     C_R   0.464732 0.179933 0.471440 -0.164766
C81   C     C_1   0.040124 0.189124 0.455893 0.360453
N1    N     N_1   0.073744 0.091558 0.451803 0.003378
C82   C     C_1   0.916004 0.825796 0.553336 0.314227
N2    N     N_1   0.893558 0.923532 0.560817 0.005378
C83   C     C_1   0.873398 0.786514 0.965538 0.399685
N3    N     N_1   0.854097 0.885811 0.962861 0.032411
C84   C     C_1   0.897172 0.155264 0.053989 0.399698
N4    N     N_1   0.855489 0.061194 0.061794 0.012927
C85   C     C_1   0.399550 0.340194 0.056520 0.368178
N5    N     N_1   0.358079 0.434352 0.065195 -0.001976
C86   C     C_1   0.462497 0.705098 0.966853 0.349725
N6    N     N_1   0.465349 0.604639 0.965561 0.030786
C87   C     C_1   0.529258 0.658947 0.548575 0.315068
N7    N     N_1   0.556018 0.560822 0.553071 -0.007720
C88   C     C_1   0.522288 0.300316 0.469091 0.394661
N8    N     N_1   0.566375 0.396300 0.467825 -0.010347
N9    N     N_R   0.064314 0.621529 0.700007 0.264151
O21   O     O_R   0.942955 0.603528 0.729465 -0.300653
O22   O     O_R   0.197761 0.686490 0.710152 -0.194852
N10   N     N_R   0.048576 0.379348 0.304277 0.247610
O23   O     O_R   0.910654 0.354850 0.280684 -0.270297
O24   O     O_R   0.199561 0.334235 0.294023 -0.188053
N11   N     N_R   0.099620 0.371517 0.200002 0.268660
O25   O     O_R   0.207636 0.440781 0.220409 -0.301911
O26   O     O_R   0.090729 0.264867 0.213521 -0.177732
N12   N     N_R   0.130126 0.622718 0.815957 0.268656
O27   O     O_R   0.272528 0.579587 0.798669 -0.260760
O28   O     O_R   0.067538 0.718261 0.799710 -0.182985
N13   N     N_R   0.616549 0.877328 0.811803 0.269118
O29   O     O_R   0.761218 0.911992 0.793435 -0.257778
O30   O     O_R   0.539907 0.784367 0.796587 -0.177422
N14   N     N_R   0.519666 0.125821 0.203321 0.260086
O31   O     O_R   0.390073 0.102811 0.229855 -0.299965
O32   O     O_R   0.642943 0.196145 0.216234 -0.194337
N15   N     N_R   0.590421 0.122120 0.312613 0.269824
O33   O     O_R   0.728998 0.078907 0.293410 -0.271924
O34   O     O_R   0.522690 0.217548 0.297538 -0.172764
N16   N     N_R   0.555290 0.874820 0.701838 0.263268
O35   O     O_R   0.677555 0.805996 0.715960 -0.173388
O36   O     O_R   0.421557 0.898126 0.727244 -0.318084
N17   N     N_R   0.012300 0.224720 0.370732 0.247384
O37   O     O_R   0.149646 0.176410 0.352942 -0.330690
O38   O     O_R   0.874902 0.160879 0.376669 -0.398013
N18   N     N_R   0.043190 0.779981 0.632552 0.233654
O39   O     O_R   0.947139 0.830094 0.662749 -0.321176
O40   O     O_R   0.173409 0.836727 0.616184 -0.447116
N19   N     N_R   0.055394 0.766527 0.889613 0.248474
O41   O     O_R   0.949769 0.830464 0.866483 -0.313709
O42   O     O_R   0.165733 0.818451 0.915484 -0.413158
N20   N     N_R   0.019333 0.201252 0.134650 0.246839
O43   O     O_R   0.148646 0.136706 0.121406 -0.434163
O44   O     O_R   0.890265 0.153087 0.155553 -0.342241
N21   N     N_R   0.530831 0.291582 0.137078 0.237364
O45   O     O_R   0.431654 0.337707 0.167386 -0.296640
O46   O     O_R   0.651983 0.354822 0.119584 -0.419722
N22   N     N_R   0.546470 0.732702 0.882272 0.233897
O47   O     O_R   0.689699 0.683589 0.868732 -0.374850
O48   O     O_R   0.401901 0.676217 0.876287 -0.358308
N23   N     N_R   0.537363 0.707371 0.635264 0.249442
O49   O     O_R   0.675437 0.657408 0.651209 -0.372974
O50   O     O_R   0.392270 0.649246 0.634136 -0.371963
N24   N     N_R   0.506069 0.273618 0.382525 0.250509
O51   O     O_R   0.644675 0.325645 0.367801 -0.349135
O52   O     O_R   0.365913 0.335258 0.388876 -0.411322
C89   C     C_1   0.847475 0.321408 0.610531 0.321227
N25   N     N_1   0.777718 0.234976 0.618163 0.010952
C90   C     C_1   0.839439 0.688823 0.392012 0.321917
N26   N     N_1   0.766306 0.774715 0.385038 -0.009876
C91   C     C_1   0.979954 0.683201 0.100632 0.254944
N27   N     N_1   0.983155 0.783499 0.100715 0.025052
C92   C     C_1   0.882662 0.291784 0.890881 0.304688
N28   N     N_1   0.823433 0.201802 0.882820 -0.008975
C93   C     C_1   0.378132 0.204217 0.892230 0.313669
N29   N     N_1   0.312260 0.292610 0.885322 -0.014677
C94   C     C_1   0.417733 0.814482 0.099959 0.250646
N30   N     N_1   0.383738 0.716783 0.099777 0.007498
C95   C     C_1   0.333079 0.808894 0.393163 0.309504
N31   N     N_1   0.257229 0.723823 0.386576 -0.016799
C96   C     C_1   0.243029 0.090707 0.616795 0.377578
N32   N     N_1   0.104073 0.120842 0.626815 -0.029510
N33   N     N_R   0.910592 0.247359 0.532984 0.204643
O53   O     O_R   0.763170 0.194792 0.527172 -0.445099
O54   O     O_R   0.038514 0.183237 0.546608 -0.449569
N34   N     N_R   0.935569 0.768224 0.468500 0.214070
O55   O     O_R   0.800096 0.836817 0.468436 -0.437634
O56   O     O_R   0.084138 0.816723 0.459872 -0.436989
N35   N     N_R   0.726597 0.662130 0.038209 0.191559
O57   O     O_R   0.707724 0.773596 0.043261 -0.494703
O58   O     O_R   0.627227 0.592795 0.060704 -0.404349
N36   N     N_R   0.966884 0.208023 0.968341 0.221446
O59   O     O_R   0.119388 0.170865 0.955968 -0.434789
O60   O     O_R   0.836852 0.135455 0.966061 -0.436434
N37   N     N_R   0.466816 0.288775 0.969958 0.216701
O61   O     O_R   0.338092 0.363030 0.969144 -0.437275
O62   O     O_R   0.616608 0.321186 0.954371 -0.454374
N38   N     N_R   0.226353 0.836136 0.023601 0.218360
O63   O     O_R   0.103595 0.909348 0.034290 -0.395059
O64   O     O_R   0.192882 0.725726 0.023234 -0.479301
N39   N     N_R   0.429763 0.719925 0.468143 0.216429
O65   O     O_R   0.568214 0.675449 0.449912 -0.451830
O66   O     O_R   0.300578 0.648848 0.474708 -0.402182
N40   N     N_R   0.383851 0.232862 0.546641 0.231525
O67   O     O_R   0.493865 0.252933 0.578224 -0.421096
O68   O     O_R   0.288199 0.321305 0.535475 -0.413780

loop_
_geom_bond_atom_site_label_1
_geom_bond_atom_site_label_2
_geom_bond_distance
_ccdc_geom_bond_type
O17   V3    1.839944 S    
N36   O60   1.301032 A    
N39   O65   1.293227 A    
C43   C59   1.490786 A    
N21   O45   1.294669 A    
O12   V1    2.049941 S    
C46   C54   1.447630 A    
C39   C96   1.437191 S    
C77   C85   1.450625 S    
C89   N25   1.155615 T    
C53   C77   1.416078 A    
C84   N4    1.156793 T    
C23   C55   1.443522 A    
C90   N26   1.156294 T    
C18   N18   1.435864 S    
C38   C93   1.435906 S    
C47   C55   1.423766 A    
N17   O37   1.298830 A    
C45   C61   1.458669 A    
O15   V4    2.048376 S    
C50   C74   1.407029 A    
C5    C12   1.521112 S    
C61   C62   1.446506 A    
O16   V3    2.048373 S    
C49   C73   1.398303 A    
C6    C11   1.511277 S    
C29   N14   1.428292 S    
O11   C3    1.380535 A    
C58   C65   1.440263 A    
O12   C4    1.383288 A    
C56   C80   1.417457 A    
O8    V1    1.997556 S    
C11   C35   1.427750 A    
C33   C90   1.436031 S    
C3    C14   1.510000 S    
N18   O40   1.291556 A    
C35   C92   1.436408 S    
N40   O68   1.299439 A    
N33   O54   1.292781 A    
O19   V1    1.836934 S    
O6    C7    1.378171 A    
C9    C25   1.377440 A    
C86   N6    1.157970 T    
C75   C83   1.444943 S    
C95   N31   1.155274 T    
O1    V3    2.015139 S    
C41   C49   1.447436 A    
C38   C46   1.458901 A    
O3    C2    1.382410 A    
O2    V4    2.015136 S    
C20   C52   1.435001 A    
C23   C31   1.410337 A    
C25   N10   1.416564 S    
C78   C86   1.450744 S    
C35   C43   1.457177 A    
C72   N40   1.456526 S    
C34   C42   1.460328 A    
C15   C31   1.396345 A    
N23   O49   1.294846 A    
N34   O56   1.293181 A    
N38   O63   1.297714 A    
C16   C32   1.394502 A    
N19   O41   1.298617 A    
C60   C67   1.395366 A    
N20   O44   1.297804 A    
C12   C28   1.405221 A    
O9    V1    2.034283 S    
C80   C88   1.458496 S    
C13   C29   1.391635 A    
C20   C28   1.413457 A    
O15   C7    1.381175 A    
N36   O59   1.292973 A    
C64   C71   1.454069 A    
C21   C29   1.406444 A    
N21   O46   1.294074 A    
O7    V2    1.997554 S    
N19   O42   1.291757 A    
N24   O52   1.295951 A    
C36   C91   1.442875 S    
C55   C79   1.408120 A    
C79   C87   1.457051 S    
C26   N9    1.434793 S    
N11   O26   1.300358 A    
C17   C25   1.381696 A    
C48   C64   1.494718 A    
C28   N11   1.442092 S    
C71   C79   1.409350 A    
C57   C58   1.474750 A    
O5    V1    2.016130 S    
C19   C51   1.437818 A    
O10   C2    1.389897 A    
C18   C50   1.443314 A    
C10   C26   1.379166 A    
N17   O38   1.296117 A    
C87   N7    1.157764 T    
N35   O57   1.299488 A    
C44   C60   1.459700 A    
C34   C89   1.432771 S    
C21   N21   1.437387 S    
N18   O39   1.297928 A    
O11   V2    2.049939 S    
C24   N24   1.446243 S    
N14   O32   1.300657 A    
C69   C77   1.412259 A    
C22   C54   1.433132 A    
C32   N15   1.434510 S    
N40   O67   1.288831 A    
N14   O31   1.300899 A    
C91   N27   1.155987 T    
C30   N13   1.433072 S    
C67   N35   1.435730 S    
C74   C82   1.460292 S    
C65   C73   1.388278 A    
N34   O55   1.300246 A    
C1    C16   1.525700 S    
N22   O48   1.294607 A    
N12   O28   1.299326 A    
C2    C15   1.513095 S    
N35   O58   1.298468 A    
C96   N32   1.154534 T    
C59   C68   1.440049 A    
C62   C69   1.439918 A    
C42   C58   1.488561 A    
N39   O66   1.299913 A    
C61   C70   1.386657 A    
O10   V2    2.034286 S    
C41   C57   1.496050 A    
C59   C60   1.446006 A    
C14   C30   1.394552 A    
C82   N2    1.158563 T    
C7    C10   1.496513 S    
C22   N22   1.439140 S    
C63   C72   1.441218 A    
C22   C30   1.396912 A    
C51   C75   1.421130 A    
O8    C5    1.382933 A    
N20   O43   1.294976 A    
O13   C5    1.390053 A    
O3    V4    1.995698 S    
C44   C52   1.418864 A    
C88   N8    1.157862 T    
C10   C34   1.415172 A    
C36   C44   1.461214 A    
N9    O21   1.300811 A    
C18   C26   1.393532 A    
C47   C63   1.466788 A    
O4    C1    1.387151 A    
O9    C1    1.388034 A    
O6    V2    2.016132 S    
C39   C47   1.431704 A    
C37   C94   1.440965 S    
C72   C80   1.402267 A    
C11   C27   1.399042 A    
N13   O29   1.300558 A    
N16   O36   1.301365 A    
C43   C51   1.440459 A    
C40   C95   1.434109 S    
N11   O25   1.299557 A    
C46   C62   1.492825 A    
C76   C84   1.450575 S    
C19   N19   1.441246 S    
C68   C76   1.411073 A    
N10   O24   1.299198 A    
C85   N5    1.156770 T    
C37   C45   1.464887 A    
C24   C32   1.405367 A    
O1    C4    1.387201 A    
C9    C33   1.419068 A    
N23   O50   1.296268 A    
O2    C3    1.386883 A    
C65   N33   1.425397 S    
O13   V3    2.031119 S    
O14   V4    2.031117 S    
C57   C66   1.451710 A    
C12   C36   1.415022 A    
C27   N12   1.442928 S    
C13   C37   1.417041 A    
N15   O33   1.301031 A    
O18   V4    1.839943 S    
C52   C76   1.415325 A    
O7    C6    1.386214 A    
C15   C39   1.410679 A    
C81   N1    1.157883 T    
C68   N36   1.428247 S    
C8    C9    1.499783 S    
C16   C40   1.429740 A    
C20   N20   1.435053 S    
N22   O47   1.293906 A    
O14   C6    1.382520 A    
N37   O62   1.293367 A    
N12   O27   1.300621 A    
C73   C81   1.460694 S    
C48   C56   1.442487 A    
C92   N28   1.155791 T    
C24   C56   1.439503 A    
C4    C13   1.516641 S    
N15   O34   1.300048 A    
C45   C53   1.421223 A    
N33   O53   1.290758 A    
N24   O51   1.297636 A    
O5    C8    1.381254 A    
C66   N34   1.435959 S    
C19   C27   1.407619 A    
C23   N23   1.439251 S    
C69   N37   1.430366 S    
O20   V2    1.836934 S    
C70   N38   1.428115 S    
C40   C48   1.466652 A    
N37   O61   1.301918 A    
N9    O22   1.300539 A    
O4    V3    1.995696 S    
C17   C49   1.436407 A    
C94   N30   1.155868 T    
C17   N17   1.449298 S    
C70   C78   1.381743 A    
C63   C64   1.469010 A    
O16   C8    1.380100 A    
C93   N29   1.155645 T    
C31   N16   1.430401 S    
N13   O30   1.301287 A    
N16   O35   1.298032 A    
C21   C53   1.434888 A    
C54   C78   1.420922 A    
C67   C75   1.397024 A    
C83   N3    1.156870 T    
C71   N39   1.434283 S    
C66   C74   1.403703 A    
N38   O64   1.298190 A    
C33   C41   1.464178 A    
N10   O23   1.300693 A    
C14   C38   1.425075 A    
C42   C50   1.436527 A    
