data_mof_unit_6287.cif
_audit_creation_date              2012-10-26T17:10:32-0400
_audit_creation_method            fapswitch 2.2
_symmetry_space_group_name_H-M    P1
_symmetry_Int_Tables_number       1
_space_group_crystal_system       triclinic
_cell_length_a                    16.937252
_cell_length_b                    16.937661
_cell_length_c                    16.937276
_cell_angle_alpha                 67.765727
_cell_angle_beta                  67.766107
_cell_angle_gamma                 67.765667
_cell_volume                      4003.27435307

loop_
_atom_site_label
_atom_site_type_symbol
_atom_type_description
_atom_site_fract_x
_atom_site_fract_y
_atom_site_fract_z
_atom_type_partial_charge
C1    C     C_R   0.591417 0.026635 0.597106 -0.030036
C2    C     C_R   0.170291 0.432639 0.979029 0.821489
C3    C     C_R   0.183956 0.691414 0.037926 -0.105719
C4    C     C_R   0.213297 0.686497 0.950514 -0.105468
C5    C     C_R   0.260827 0.605357 0.931343 -0.091104
C6    C     C_R   0.286576 0.933314 0.548547 0.167418
C7    C     C_R   0.277997 0.847435 0.596703 -0.160270
C8    C     C_R   0.236935 0.828190 0.687956 -0.088438
C9    C     C_R   0.203587 0.894779 0.731047 -0.123098
C10   C     C_R   0.212884 0.979779 0.683492 -0.150764
C11   C     C_R   0.255197 0.998972 0.592751 -0.071674
C12   C     C_R   0.724804 0.999563 0.471961 0.185629
C13   C     C_R   0.565256 0.026830 0.829113 0.816734
C14   C     C_R   0.753111 0.912028 0.466467 -0.124007
C15   C     C_R   0.796442 0.894081 0.384310 -0.144958
C16   C     C_R   0.816450 0.962413 0.308416 -0.106015
C17   C     C_R   0.787323 0.049752 0.313488 -0.105329
C18   C     C_R   0.739541 0.068861 0.394623 -0.090989
C19   C     C_R   0.548570 0.286577 0.933167 0.167373
C20   C     C_R   0.596647 0.277901 0.847304 -0.160535
C21   C     C_R   0.687857 0.236669 0.828056 -0.088342
C22   C     C_R   0.730987 0.203252 0.894624 -0.122873
C23   C     C_R   0.683524 0.212680 0.979595 -0.150943
C24   C     C_R   0.432639 0.979033 0.170290 0.821544
C25   C     C_R   0.592827 0.255160 0.998790 -0.071634
C26   C     C_R   0.471981 0.724839 0.999491 0.185702
C27   C     C_R   0.466499 0.753210 0.911945 -0.124058
C28   C     C_R   0.384335 0.796478 0.894004 -0.144961
C29   C     C_R   0.308417 0.816375 0.962355 -0.105960
C30   C     C_R   0.313479 0.787181 0.049704 -0.105366
C31   C     C_R   0.394628 0.739464 0.068801 -0.091013
C32   C     C_R   0.933335 0.548537 0.286572 0.167431
C33   C     C_R   0.847453 0.596699 0.278000 -0.160227
C34   C     C_R   0.828205 0.687954 0.236977 -0.088440
C35   C     C_R   0.434749 0.170887 0.973144 0.816783
C36   C     C_R   0.894788 0.731041 0.203663 -0.123153
C37   C     C_R   0.979790 0.683478 0.212950 -0.150774
C38   C     C_R   0.998992 0.592734 0.255217 -0.071685
C39   C     C_R   0.999565 0.471974 0.724791 0.185607
C40   C     C_R   0.912027 0.466500 0.753054 -0.124032
C41   C     C_R   0.894055 0.384358 0.796405 -0.144871
C42   C     C_R   0.962361 0.308462 0.816482 -0.105990
C43   C     C_R   0.049708 0.313509 0.787373 -0.105347
C44   C     C_R   0.068845 0.394626 0.739567 -0.090953
C45   C     C_R   0.567351 0.829705 0.020991 0.821534
C46   C     C_R   0.973151 0.434748 0.170887 0.816741
C47   C     C_R   0.021000 0.567349 0.829702 0.821483
C48   C     C_R   0.170888 0.973150 0.434748 0.816755
C49   C     C_R   0.829703 0.020997 0.567349 0.821518
C50   C     C_R   0.540289 0.013387 0.551037 0.147177
C51   C     C_R   0.402885 0.973302 0.408605 -0.030026
C52   C     C_R   0.448937 0.986555 0.459747 0.146995
C53   C     C_R   0.013406 0.551039 0.540276 0.147177
C54   C     C_R   0.986572 0.459738 0.448936 0.146961
C55   C     C_R   0.551038 0.540336 0.013290 0.147126
C56   C     C_R   0.459792 0.448939 0.986456 0.146989
C57   C     C_R   0.543747 0.927053 0.557502 -0.192116
C58   C     C_R   0.442742 0.072895 0.456019 -0.191750
C59   C     C_R   0.927076 0.557559 0.543672 -0.192145
C60   C     C_R   0.072911 0.455948 0.442809 -0.191674
C61   C     C_R   0.500939 0.488777 0.086190 -0.167022
C62   C     C_R   0.026650 0.597109 0.591406 -0.030046
C63   C     C_R   0.511353 0.499036 0.913555 -0.167258
C64   C     C_R   0.498917 0.913653 0.511430 -0.167208
C65   C     C_R   0.488845 0.086294 0.500818 -0.167046
C66   C     C_R   0.456152 0.442662 0.072792 -0.191811
C67   C     C_R   0.557396 0.543894 0.926957 -0.192027
C68   C     C_R   0.913675 0.511489 0.498841 -0.167208
C69   C     C_R   0.086310 0.500752 0.488907 -0.167062
C70   C     C_R   0.549546 0.043210 0.680583 -0.122858
C71   C     C_R   0.440564 0.981880 0.316989 -0.128589
C72   C     C_R   0.043213 0.680589 0.549540 -0.122838
C73   C     C_R   0.973317 0.408598 0.402880 -0.030024
C74   C     C_R   0.981891 0.316983 0.440556 -0.128603
C75   C     C_R   0.680598 0.549569 0.043122 -0.122877
C76   C     C_R   0.317017 0.440566 0.981819 -0.128588
C77   C     C_R   0.319449 0.956629 0.450479 -0.122721
C78   C     C_R   0.682999 0.018202 0.559377 -0.128523
C79   C     C_R   0.450500 0.319456 0.956544 -0.122661
C80   C     C_R   0.559391 0.683027 0.018138 -0.128540
C81   C     C_R   0.956642 0.450472 0.319444 -0.122728
C82   C     C_R   0.018221 0.559376 0.682987 -0.128515
C83   C     C_R   0.601566 0.038433 0.731942 -0.218338
C84   C     C_R   0.597119 0.591452 0.026547 -0.030044
C85   C     C_R   0.394514 0.972966 0.266908 -0.224423
C86   C     C_R   0.038433 0.731944 0.601565 -0.218352
C87   C     C_R   0.972970 0.266906 0.394510 -0.224429
C88   C     C_R   0.731946 0.601573 0.038399 -0.218356
C89   C     C_R   0.266916 0.394514 0.972943 -0.224439
C90   C     C_R   0.268064 0.961512 0.398435 -0.218348
C91   C     C_R   0.733076 0.027089 0.605454 -0.224353
C92   C     C_R   0.398439 0.268063 0.961483 -0.218351
C93   C     C_R   0.605460 0.733086 0.027062 -0.224355
C94   C     C_R   0.961515 0.398433 0.268061 -0.218357
C95   C     C_R   0.408640 0.402891 0.973214 -0.030023
C96   C     C_R   0.027098 0.605453 0.733071 -0.224374
C97   C     C_R   0.691336 0.036073 0.691908 0.538528
C98   C     C_R   0.308074 0.963945 0.308648 0.538709
C99   C     C_R   0.036076 0.691909 0.691334 0.538590
C100  C     C_R   0.963943 0.308649 0.308072 0.538759
C101  C     C_R   0.691907 0.691334 0.036067 0.538619
C102  C     C_R   0.308646 0.308068 0.963944 0.538715
C103  C     C_R   0.451482 0.066387 0.713453 0.167677
C104  C     C_R   0.403169 0.152310 0.721799 -0.159638
C105  C     C_R   0.311844 0.171541 0.762499 -0.088698
C106  C     C_R   0.026830 0.829114 0.565257 0.816759
C107  C     C_R   0.268834 0.104902 0.795700 -0.123462
C108  C     C_R   0.316566 0.019842 0.786688 -0.150556
C109  C     C_R   0.407392 0.000645 0.744774 -0.071752
C110  C     C_R   0.527913 0.000657 0.275169 0.185875
C111  C     C_R   0.533261 0.088265 0.246595 -0.124197
C112  C     C_R   0.615402 0.106286 0.203467 -0.144987
C113  C     C_R   0.691456 0.037922 0.183974 -0.105759
C114  C     C_R   0.686518 0.950519 0.213346 -0.105478
C115  C     C_R   0.605364 0.931374 0.260850 -0.091127
C116  C     C_R   0.066399 0.713461 0.451476 0.167686
C117  C     C_R   0.979034 0.170289 0.432638 0.821519
C118  C     C_R   0.152324 0.721822 0.403180 -0.159667
C119  C     C_R   0.171559 0.762566 0.311869 -0.088684
C120  C     C_R   0.104925 0.795789 0.268853 -0.123432
C121  C     C_R   0.019867 0.786752 0.316562 -0.150610
C122  C     C_R   0.000663 0.744802 0.407375 -0.071747
C123  C     C_R   0.000675 0.275162 0.527898 0.185941
C124  C     C_R   0.088291 0.246568 0.533235 -0.124248
C125  C     C_R   0.106311 0.203511 0.615382 -0.145000
C126  C     C_R   0.037940 0.184083 0.691455 -0.105654
C127  C     C_R   0.950528 0.213481 0.686528 -0.105526
C128  C     C_R   0.829113 0.565259 0.026821 0.816712
C129  C     C_R   0.931385 0.260918 0.605360 -0.091157
C130  C     C_R   0.713465 0.451509 0.066251 0.167735
C131  C     C_R   0.721817 0.403145 0.152170 -0.159366
C132  C     C_R   0.762407 0.311800 0.171391 -0.088740
C133  C     C_R   0.795482 0.268818 0.104747 -0.123656
C134  C     C_R   0.786479 0.316606 0.019684 -0.150541
C135  C     C_R   0.744693 0.407455 0.000494 -0.071872
C136  C     C_R   0.275202 0.527903 0.000611 0.185867
C137  C     C_R   0.246680 0.533233 0.088225 -0.124206
C138  C     C_R   0.203533 0.615362 0.106267 -0.144963
Cu1   Cu    Cu3+1 0.995180 0.995180 0.424630 1.046783
Cu2   Cu    Cu3+1 0.004820 0.004820 0.575370 1.046639
Cu3   Cu    Cu3+1 0.995180 0.424630 0.995180 1.046814
Cu4   Cu    Cu3+1 0.004820 0.575370 0.004820 1.046657
Cu5   Cu    Cu3+1 0.424630 0.995180 0.995180 1.046797
Cu6   Cu    Cu3+1 0.575370 0.004820 0.004820 1.046609
F1    F     F_    0.738843 0.040729 0.738389 -0.638872
F2    F     F_    0.261585 0.959325 0.261128 -0.638584
F3    F     F_    0.040728 0.738388 0.738843 -0.638788
F4    F     F_    0.959312 0.261134 0.261586 -0.638546
F5    F     F_    0.738371 0.738822 0.040779 -0.638799
F6    F     F_    0.261109 0.261566 0.959378 -0.638553
H1    H     H_    0.484802 0.153189 0.496196 0.123923
H2    H     H_    0.496391 0.484663 0.153081 0.123943
H3    H     H_    0.129765 0.417597 0.402915 0.118244
H4    H     H_    0.870230 0.597739 0.581738 0.118168
H5    H     H_    0.436621 0.203492 0.698731 0.108549
H6    H     H_    0.274856 0.237476 0.769817 0.142461
H7    H     H_    0.198769 0.118308 0.829290 0.112568
H8    H     H_    0.283003 0.968628 0.813155 0.118584
H9    H     H_    0.444233 0.934074 0.739625 0.111173
H10   H     H_    0.473987 0.142322 0.257462 0.103511
H11   H     H_    0.619980 0.173355 0.184073 0.118651
H12   H     H_    0.503337 0.846759 0.515676 0.123992
H13   H     H_    0.754659 0.052374 0.147652 0.099458
H14   H     H_    0.745533 0.897669 0.199502 0.109016
H15   H     H_    0.602109 0.863448 0.282992 0.102819
H16   H     H_    0.203501 0.698743 0.436641 0.108567
H17   H     H_    0.237494 0.769904 0.274900 0.142575
H18   H     H_    0.118337 0.829418 0.198803 0.112648
H19   H     H_    0.968657 0.813228 0.282994 0.118560
H20   H     H_    0.934088 0.739652 0.444199 0.111184
H21   H     H_    0.142352 0.257383 0.473951 0.103487
H22   H     H_    0.173383 0.184137 0.619951 0.118630
H23   H     H_    0.153201 0.496074 0.484926 0.123920
H24   H     H_    0.052395 0.147809 0.754665 0.099497
H25   H     H_    0.897661 0.199736 0.745564 0.108936
H26   H     H_    0.863451 0.283094 0.602114 0.102808
H27   H     H_    0.698821 0.436566 0.203365 0.108532
H28   H     H_    0.769722 0.274771 0.237329 0.142404
H29   H     H_    0.828956 0.198730 0.118154 0.112480
H30   H     H_    0.812856 0.283070 0.968461 0.118630
H31   H     H_    0.739538 0.444331 0.933925 0.111191
H32   H     H_    0.257598 0.473955 0.142270 0.103543
H33   H     H_    0.184193 0.619926 0.173338 0.118601
H34   H     H_    0.846784 0.515789 0.503202 0.124011
H35   H     H_    0.147608 0.754603 0.052401 0.099482
H36   H     H_    0.199408 0.745511 0.897674 0.109014
H37   H     H_    0.282939 0.602115 0.863410 0.102801
H38   H     H_    0.301089 0.796322 0.563160 0.108609
H39   H     H_    0.229397 0.762304 0.724809 0.143162
H40   H     H_    0.169636 0.881377 0.801026 0.112998
H41   H     H_    0.186292 0.030962 0.717111 0.118544
H42   H     H_    0.260525 0.065508 0.556025 0.111230
H43   H     H_    0.741942 0.857956 0.525647 0.103591
H44   H     H_    0.815634 0.827075 0.379623 0.118484
H45   H     H_    0.597438 0.582096 0.870110 0.118189
H46   H     H_    0.852971 0.948003 0.245219 0.099513
H47   H     H_    0.801648 0.102573 0.254612 0.109320
H48   H     H_    0.717633 0.136732 0.397992 0.102819
H49   H     H_    0.563059 0.301012 0.796221 0.108617
H50   H     H_    0.724640 0.229036 0.762191 0.143449
H51   H     H_    0.800920 0.169136 0.881226 0.113192
H52   H     H_    0.717169 0.186049 0.030764 0.118484
H53   H     H_    0.556164 0.260548 0.065318 0.111264
H54   H     H_    0.525692 0.742118 0.857865 0.103551
H55   H     H_    0.379658 0.815692 0.826991 0.118489
H56   H     H_    0.417928 0.402639 0.129645 0.118236
H57   H     H_    0.245210 0.852851 0.947949 0.099528
H58   H     H_    0.254580 0.801376 0.102545 0.109229
H59   H     H_    0.397987 0.717490 0.136682 0.102809
H60   H     H_    0.796341 0.563161 0.301070 0.108614
H61   H     H_    0.762316 0.724813 0.229450 0.143167
H62   H     H_    0.881376 0.801023 0.169749 0.112987
H63   H     H_    0.030971 0.717089 0.186390 0.118547
H64   H     H_    0.065529 0.556003 0.260541 0.111244
H65   H     H_    0.857973 0.525685 0.741833 0.103621
H66   H     H_    0.827050 0.379686 0.815548 0.118440
H67   H     H_    0.402792 0.129750 0.417717 0.118228
H68   H     H_    0.947929 0.245277 0.853021 0.099542
H69   H     H_    0.102514 0.254626 0.801720 0.109280
H70   H     H_    0.136722 0.397976 0.717677 0.102799
H71   H     H_    0.581856 0.870204 0.597645 0.118166
H72   H     H_    0.515517 0.503534 0.846662 0.123987
O1    O     O_R   0.124540 0.978640 0.385460 -0.507157
O2    O     O_R   0.124540 0.385460 0.978640 -0.508134
O3    O     O_R   0.021360 0.875460 0.614540 -0.507157
O4    O     O_R   0.978640 0.124540 0.385460 -0.508132
O5    O     O_R   0.013780 0.867370 0.487190 -0.592624
O6    O     O_R   0.986220 0.132630 0.512810 -0.598433
O7    O     O_R   0.867370 0.487190 0.013780 -0.592635
O8    O     O_R   0.132630 0.512810 0.986220 -0.598411
O9    O     O_R   0.487190 0.013780 0.867370 -0.592638
O10   O     O_R   0.512810 0.986220 0.132630 -0.598417
O11   O     O_R   0.512810 0.132630 0.986220 -0.592498
O12   O     O_R   0.875460 0.021360 0.614540 -0.508162
O13   O     O_R   0.487190 0.867370 0.013780 -0.598413
O14   O     O_R   0.986220 0.512810 0.132630 -0.592527
O15   O     O_R   0.013780 0.487190 0.867370 -0.598400
O16   O     O_R   0.132630 0.986220 0.512810 -0.592540
O17   O     O_R   0.867370 0.013780 0.487190 -0.598402
O18   O     O_R   0.978640 0.385460 0.124540 -0.507153
O19   O     O_R   0.021360 0.614540 0.875460 -0.508153
O20   O     O_R   0.385460 0.124540 0.978640 -0.507166
O21   O     O_R   0.614540 0.875460 0.021360 -0.508155
O22   O     O_R   0.614540 0.021360 0.875460 -0.507167
O23   O     O_R   0.385460 0.978640 0.124540 -0.508126
O24   O     O_R   0.875460 0.614540 0.021360 -0.507143

loop_
_geom_bond_atom_site_label_1
_geom_bond_atom_site_label_2
_ccdc_geom_bond_type
C8    C9    A    
C56   C95   S    
C121  H19   S    
Cu3   O2    S    
C71   C110  S    
C117  O6    A    
C128  O7    A    
C1    C78   A    
C89   C102  A    
C5    C136  A    
C41   C42   A    
C130  C135  A    
C44   H70   S    
C138  H33   S    
C49   O17   A    
C53   C69   A    
C96   C99   A    
C127  C129  A    
C114  C115  A    
C76   C136  S    
C43   H69   S    
C7    C8    A    
C57   H71   S    
C112  H11   S    
C105  C107  A    
Cu2   O3    S    
C29   C30   A    
C116  C122  A    
Cu6   O11   S    
Cu1   O4    S    
C16   H46   S    
C28   C29   A    
C49   C91   S    
C87   C117  S    
C76   C95   A    
C30   C31   A    
C66   H56   S    
C58   H67   S    
C75   C84   A    
Cu4   O8    S    
C13   O22   A    
C54   C68   A    
Cu5   O13   S    
C15   C16   A    
Cu6   O21   S    
C55   C61   A    
C108  C109  A    
Cu1   O5    S    
C11   H42   S    
C73   C74   A    
C4    H36   S    
Cu5   Cu6   S    
C125  H22   S    
C118  C119  A    
C104  C105  A    
C85   C98   A    
C103  C104  A    
C131  H27   S    
C71   C85   A    
C15   H44   S    
C61   C66   A    
C111  C112  A    
C116  C118  A    
C132  C133  A    
Cu4   O24   S    
C12   C78   S    
C18   H48   S    
C47   C96   S    
C129  H26   S    
C17   H47   S    
C35   O11   A    
C46   O18   A    
C74   C87   A    
C115  H15   S    
C49   O12   A    
C9    C10   A    
C45   O21   A    
C27   H54   S    
C126  H24   S    
C75   C130  S    
C92   C102  A    
C76   C89   A    
C35   C92   S    
Cu5   O9    S    
Cu4   O14   S    
C74   C123  S    
C62   C82   A    
C45   C93   S    
C26   C31   A    
C47   O15   A    
C21   C22   A    
C123  C129  A    
Cu2   O12   S    
C28   H55   S    
C63   H72   S    
C24   O23   A    
C86   C106  S    
C69   H23   S    
C38   H64   S    
C67   H45   S    
C3    H35   S    
C37   H63   S    
C112  C113  A    
C107  H7    S    
C59   H4    S    
C88   C101  A    
C6    C7    A    
C22   C23   A    
C127  H25   S    
C117  O4    A    
Cu1   Cu2   S    
C63   C67   A    
C77   C90   A    
Cu5   O20   S    
Cu2   O6    S    
C23   H52   S    
Cu1   O17   S    
C80   C84   A    
C45   O13   A    
C7    H38   S    
C123  C124  A    
C82   C96   A    
C33   H60   S    
C64   H12   S    
C52   C64   A    
C93   C101  A    
C6    C11   A    
C47   O19   A    
C41   H66   S    
C70   C103  S    
C16   C17   A    
C6    C77   S    
C54   C60   A    
C137  H32   S    
C98   F2    S    
C122  H20   S    
C118  H16   S    
C26   C80   S    
C110  C111  A    
C46   O14   A    
C65   H1    S    
C2    C89   S    
C111  H10   S    
C51   C77   A    
C20   H49   S    
C79   C95   A    
C37   C38   A    
C70   C83   A    
C59   C68   A    
C113  H13   S    
C54   C73   S    
C53   C62   S    
C58   C65   A    
C114  H14   S    
C31   H59   S    
C94   C100  A    
C8    H39   S    
C107  C108  A    
C30   H58   S    
C2    O2    A    
C17   C18   A    
C121  C122  A    
C56   C63   A    
C62   C72   A    
C3    C138  A    
C91   C97   A    
C119  C120  A    
C19   C79   S    
C86   C99   A    
C79   C92   A    
C39   C44   A    
C52   C58   A    
C73   C81   A    
C60   H3    S    
C40   C41   A    
C14   H43   S    
C102  F6    S    
Cu3   O18   S    
C32   C38   A    
C10   C11   A    
C43   C44   A    
C26   C27   A    
C133  C134  A    
C50   C65   A    
C42   C43   A    
C135  H31   S    
C21   H50   S    
C3    C4    A    
C109  H9    S    
C119  H17   S    
C39   C40   A    
C32   C81   S    
C106  O3    A    
C120  C121  A    
C120  H18   S    
C57   C64   A    
C87   C100  A    
C1    C50   S    
C46   C94   S    
C99   F3    S    
C68   H34   S    
Cu3   O15   S    
C22   H51   S    
C53   C59   A    
C106  O5    A    
C50   C57   A    
C97   F1    S    
Cu6   O10   S    
C133  H29   S    
C10   H41   S    
C39   C82   S    
C12   C14   A    
C136  C137  A    
C25   H53   S    
C131  C132  A    
C48   O16   A    
C13   O9    A    
C51   C71   A    
C134  C135  A    
C48   O1    A    
C78   C91   A    
Cu4   O19   S    
C137  C138  A    
C72   C116  S    
C1    C70   A    
C29   H57   S    
C24   O10   A    
C103  C109  A    
C128  O24   A    
C32   C33   A    
C19   C20   A    
Cu2   O16   S    
C55   C84   S    
C51   C52   S    
C88   C128  S    
Cu3   Cu4   S    
C81   C94   A    
C125  C126  A    
C124  H21   S    
C55   C67   A    
C60   C69   A    
C100  F4    S    
C126  C127  A    
C56   C66   A    
Cu6   O22   S    
C40   H65   S    
C101  F5    S    
C33   C34   A    
Cu1   O1    S    
C130  C131  A    
C34   C36   A    
C23   C25   A    
C104  H5    S    
C36   H62   S    
C113  C114  A    
C61   H2    S    
C34   H61   S    
C2    O8    A    
C19   C25   A    
C24   C85   S    
Cu5   O23   S    
C75   C88   A    
C4    C5    A    
C105  H6    S    
C108  H8    S    
C20   C21   A    
C35   O20   A    
C36   C37   A    
C83   C97   A    
C12   C18   A    
C27   C28   A    
C5    H37   S    
C14   C15   A    
C48   C90   S    
C72   C86   A    
C134  H30   S    
C80   C93   A    
Cu3   O7    S    
C110  C115  A    
C90   C98   A    
C42   H68   S    
C9    H40   S    
C13   C83   S    
C132  H28   S    
C124  C125  A    
