data_mof_unit_29750.cif
_audit_creation_date              2012-12-10T20:51:44-0500
_audit_creation_method            fapswitch 2.2
_symmetry_space_group_name_H-M    P1
_symmetry_Int_Tables_number       1
_space_group_crystal_system       triclinic
_cell_length_a                    8.109756
_cell_length_b                    8.934444
_cell_length_c                    16.744359
_cell_angle_alpha                 89.533082
_cell_angle_beta                  94.958319
_cell_angle_gamma                 90.01537
_cell_volume                      1208.65160748

loop_
_atom_site_label
_atom_site_type_symbol
_atom_type_description
_atom_site_fract_x
_atom_site_fract_y
_atom_site_fract_z
_atom_type_partial_charge
C1    C     C_R   0.499964 0.218000 0.500011 0.937458
C2    C     C_R   0.500036 0.782001 0.499981 0.937514
C3    C     C_R   0.522142 0.499579 0.653901 0.906765
C4    C     C_R   0.477902 0.497848 0.346071 0.904367
C5    C     C_R   0.538023 0.502768 0.740569 -0.121643
C6    C     C_R   0.462378 0.472490 0.260366 -0.073543
C7    C     C_R   0.418957 0.577244 0.780586 -0.347587
C8    C     C_R   0.586367 0.392834 0.226267 -0.348648
C9    C     C_R   0.428520 0.576767 0.864753 0.588871
C10   C     C_R   0.574770 0.365849 0.143464 0.510827
C11   C     C_R   0.559733 0.497066 0.906864 0.131949
C12   C     C_R   0.435052 0.421881 0.096247 0.244617
C13   C     C_R   0.684799 0.428878 0.866412 -0.118167
C14   C     C_R   0.302743 0.489494 0.132033 -0.068961
C15   C     C_R   0.672653 0.432888 0.782946 -0.203646
C16   C     C_R   0.318918 0.515943 0.214069 -0.345317
C17   C     C_1   0.499968 0.065192 0.499996 -0.188399
C18   C     C_1   0.500033 0.934812 0.499988 -0.190337
H1    H     H_    0.689483 0.350524 0.265201 0.166637
H2    H     H_    0.321847 0.636951 0.745248 0.158571
H3    H     H_    0.765379 0.377808 0.750628 0.204614
H4    H     H_    0.220178 0.571878 0.241889 0.165834
N1    N     N_1   0.073640 0.500030 0.499990 -0.034555
N2    N     N_1   0.926360 0.499970 0.500010 -0.034437
N3    N     N_2   0.564375 0.483334 0.990692 -0.156032
N4    N     N_2   0.434818 0.426631 0.012193 -0.055759
O1    O     O_R   0.636850 0.285340 0.500000 -0.616790
O2    O     O_R   0.363150 0.714660 0.500000 -0.616921
O3    O     O_R   0.363100 0.285350 0.500000 -0.612411
O4    O     O_R   0.636900 0.714650 0.500000 -0.612474
O5    O     O_R   0.652140 0.498630 0.616140 -0.622827
O6    O     O_R   0.347860 0.501370 0.383860 -0.622199
O7    O     O_R   0.378390 0.498650 0.616130 -0.612816
O8    O     O_R   0.621610 0.501350 0.383870 -0.624799
Zn1   Zn    Zn3+2 0.682780 0.499990 0.500010 0.985651
Zn2   Zn    Zn3+2 0.317220 0.500010 0.499990 0.988092
O9    O     O_3   0.689118 0.281077 0.105192 -0.615255
C19   C     C_3   0.846822 0.272211 0.147840 -0.306222
H5    H     H_    0.892132 0.384013 0.168733 0.151615
H6    H     H_    0.936176 0.229060 0.107051 0.208111
H7    H     H_    0.845477 0.191152 0.198450 0.173653
O10   O     O_3   0.321987 0.657613 0.909707 -0.581638
C20   C     C_3   0.168265 0.692572 0.867617 -0.174693
H8    H     H_    0.082922 0.732463 0.911199 0.208293
H9    H     H_    0.110088 0.592443 0.837712 0.179150
H10   H     H_    0.182021 0.785754 0.824355 0.142429
C21   C     C_2   0.824683 0.348844 0.910893 0.501484
H11   H     H_    0.833972 0.343451 0.975636 0.148212
O11   O     O_2   0.932004 0.288170 0.875733 -0.562324
C22   C     C_2   0.148495 0.539134 0.085486 0.431829
H12   H     H_    0.062961 0.612502 0.112732 0.048281
O12   O     O_2   0.112003 0.495327 0.017494 -0.556426

loop_
_geom_bond_atom_site_label_1
_geom_bond_atom_site_label_2
_ccdc_geom_bond_type
C22   O12   D    
C20   H8    S    
O9    C19   S    
C14   C16   A    
C2    C18   S    
C11   C13   A    
C1    C17   S    
C21   H11   S    
C2    O4    A    
N1    N2    T    
C1    O3    A    
C22   H12   S    
C21   O11   D    
C14   C22   S    
C3    O5    A    
C20   H9    S    
O3    Zn2   S    
C9    C11   A    
C9    O10   S    
C4    O6    A    
C10   C12   A    
O4    Zn1   S    
C10   O9    S    
O6    Zn2   S    
C8    C10   A    
C13   C21   S    
C19   H6    S    
C12   C14   A    
C17   C18   T    
N1    Zn2   S    
C4    O8    A    
C13   C15   A    
C19   H5    S    
C20   H10   S    
O5    Zn1   S    
C5    C15   A    
N2    Zn1   S    
C2    O2    A    
O10   C20   S    
C11   N3    S    
C6    C16   A    
C8    H1    S    
C7    C9    A    
C15   H3    S    
O7    Zn2   S    
O2    Zn2   S    
C19   H7    S    
C1    O1    A    
O8    Zn1   S    
C12   N4    S    
C5    C7    A    
C3    O7    A    
C6    C8    A    
O1    Zn1   S    
N3    N4    D    
C4    C6    S    
C7    H2    S    
C16   H4    S    
C3    C5    S    
