data_mof_unit_21119.cif
_audit_creation_date              2012-12-11T18:59:04-0500
_audit_creation_method            fapswitch 2.2
_symmetry_space_group_name_H-M    P1
_symmetry_Int_Tables_number       1
_space_group_crystal_system       triclinic
_cell_length_a                    8.17056
_cell_length_b                    15.110219
_cell_length_c                    17.313743
_cell_angle_alpha                 100.640305
_cell_angle_beta                  97.32776
_cell_angle_gamma                 98.917546
_cell_volume                      2048.36802206

loop_
_atom_site_label
_atom_site_type_symbol
_atom_type_description
_atom_site_fract_x
_atom_site_fract_y
_atom_site_fract_z
_atom_type_partial_charge
Ba1   Ba    Ba6+2 0.844370 0.541120 0.463210 1.647430
Ba2   Ba    Ba6+2 0.345470 0.458960 0.536800 1.630072
C1    C     C_3   0.636868 0.853093 0.266350 -0.377162
C2    C     C_3   0.396379 0.495024 0.217833 -0.020756
C3    C     C_2   0.320668 0.495755 0.133390 -0.112803
C4    C     C_3   0.151757 0.781421 0.261579 0.296848
C5    C     C_2   0.151325 0.478715 0.110891 -0.000563
C6    C     C_2   0.042522 0.459124 0.171934 -0.118390
C7    C     C_1   0.110166 0.463715 0.246883 0.080108
C8    C     C_R   0.891420 0.458035 0.858573 -0.140914
C9    C     C_R   0.820092 0.451843 0.779586 0.005853
C10   C     C_R   0.081234 0.532830 0.753296 0.068139
C11   C     C_R   0.153067 0.540048 0.833263 -0.113917
C12   C     C_3   0.610169 0.761871 0.292455 0.360777
C13   C     C_R   0.060407 0.500887 0.886518 0.012646
C14   C     C_2   0.067392 0.477210 0.028116 -0.083304
C15   C     C_2   0.145663 0.504405 0.969496 -0.073084
C16   C     C_3   0.078213 0.794619 0.179450 -0.216884
C17   C     C_R   0.916542 0.486366 0.726931 -0.276205
C18   C     C_R   0.332847 0.821077 0.447691 -0.023252
C19   C     C_R   0.585655 0.792993 0.520961 0.039020
C20   C     C_R   0.769979 0.231976 0.523931 -0.281424
C21   C     C_R   0.873881 0.175010 0.549271 -0.000937
C22   C     C_R   0.815995 0.081004 0.535983 -0.149410
C23   C     C_3   0.402565 0.301049 0.291202 0.318754
C24   C     C_R   0.646270 0.042441 0.503322 0.017185
C25   C     C_R   0.545829 0.100861 0.471693 -0.017427
C26   C     C_R   0.574057 0.948046 0.498413 -0.052151
C27   C     C_R   0.406700 0.914052 0.456489 -0.063091
C28   C     C_3   0.278933 0.743110 0.642323 0.314293
C29   C     C_R   0.315183 0.973339 0.424286 -0.091861
C30   C     C_R   0.383386 0.064091 0.431088 -0.049153
C31   C     C_R   0.656559 0.886486 0.536233 0.336142
C32   C     C_R   0.426826 0.760857 0.476023 -0.352470
C33   C     C_R   0.610897 0.195227 0.480863 0.015700
C34   C     C_3   0.345961 0.262009 0.202974 -0.406171
C35   C     C_3   0.298748 0.846907 0.663127 -0.392082
C36   C     C_3   0.919477 0.256085 0.357628 0.307289
C37   C     C_3   0.879113 0.152098 0.332361 -0.399383
C38   C     C_3   0.782055 0.673071 0.705603 0.302712
C39   C     C_3   0.819591 0.703586 0.795880 -0.405010
C40   C     C_R   0.209912 0.805074 0.126603 -0.007033
C41   C     C_R   0.287519 0.731177 0.099694 -0.026120
C42   C     C_R   0.410229 0.740727 0.050924 -0.029029
C43   C     C_R   0.455366 0.823992 0.028105 -0.063831
C44   C     C_R   0.377972 0.897834 0.054111 -0.064382
C45   C     C_3   0.071959 0.272370 0.747166 0.329671
C46   C     C_R   0.255636 0.888580 0.103144 -0.057737
C47   C     C_R   0.058207 0.201782 0.869587 0.056083
C48   C     C_R   0.179297 0.145443 0.863189 -0.027349
C49   C     C_R   0.257357 0.120805 0.930538 -0.076803
C50   C     C_R   0.214176 0.151644 0.004936 -0.058651
C51   C     C_R   0.094848 0.208481 0.012260 -0.064702
C52   C     C_R   0.017659 0.233843 0.945019 -0.057215
C53   C     C_3   0.768379 0.951906 0.665430 0.265937
C54   C     C_3   0.921251 0.960895 0.728119 -0.312416
C55   C     C_3   0.961794 0.221149 0.796195 -0.268727
C56   C     C_3   0.560180 0.223549 0.692382 0.377907
C57   C     C_3   0.500204 0.126880 0.702916 -0.365473
C58   C     C_2   0.267854 0.503431 0.273401 -0.263674
H1    H     H_    0.726532 0.759536 0.332240 0.117499
H2    H     H_    0.896606 0.656102 0.683467 0.013262
H3    H     H_    0.680439 0.611789 0.689872 0.066996
H4    H     H_    0.743153 0.857395 0.232405 0.135772
H5    H     H_    0.925816 0.762598 0.813359 0.118921
H6    H     H_    0.853572 0.647059 0.823524 0.066853
H7    H     H_    0.707156 0.724240 0.818746 0.124133
H8    H     H_    0.503242 0.758753 0.325813 -0.055108
H9    H     H_    0.665735 0.910133 0.319503 0.075873
H10   H     H_    0.292241 0.319884 0.317218 0.025983
H11   H     H_    0.501266 0.362887 0.299126 0.040396
H12   H     H_    0.386168 0.875073 0.720018 0.109940
H13   H     H_    0.250913 0.198496 0.194477 0.122635
H14   H     H_    0.288582 0.311888 0.174251 0.060760
H15   H     H_    0.455001 0.246065 0.174316 0.120159
H16   H     H_    0.522645 0.860658 0.228178 0.117563
H17   H     H_    0.177214 0.321750 0.787178 0.081699
H18   H     H_    0.992907 0.313506 0.717053 -0.043779
H19   H     H_    0.866585 0.262587 0.813972 0.069150
H20   H     H_    0.891763 0.155657 0.758213 0.092586
H21   H     H_    0.693291 0.231129 0.683596 -0.083629
H22   H     H_    0.483352 0.232094 0.637871 0.106933
H23   H     H_    0.348095 0.877560 0.615475 0.050339
H24   H     H_    0.505321 0.077236 0.647948 0.062647
H25   H     H_    0.367922 0.117919 0.711761 0.154875
H26   H     H_    0.182478 0.711454 0.256003 0.004884
H27   H     H_    0.578368 0.112194 0.754700 0.090320
H28   H     H_    0.279165 0.531146 0.981959 0.067396
H29   H     H_    0.907579 0.439387 0.153962 0.088608
H30   H     H_    0.814095 0.427413 0.896188 0.065453
H31   H     H_    0.932919 0.454126 0.017046 0.069406
H32   H     H_    0.405792 0.505871 0.091423 0.064975
H33   H     H_    0.281243 0.575715 0.853804 0.081657
H34   H     H_    0.175083 0.866148 0.669251 0.137643
H35   H     H_    0.306155 0.538629 0.335214 0.071725
H36   H     H_    0.861025 0.480148 0.665596 0.070066
H37   H     H_    0.371378 0.689271 0.467880 0.083661
H38   H     H_    0.267225 0.833777 0.284872 -0.015694
H39   H     H_    0.188288 0.950784 0.392948 0.095668
H40   H     H_    0.817759 0.304622 0.532486 0.066382
H41   H     H_    0.908591 0.040553 0.549544 0.153124
H42   H     H_    0.304488 0.104889 0.404251 0.099690
H43   H     H_    0.977444 0.735198 0.150283 0.108681
H44   H     H_    0.019097 0.856526 0.187509 0.094007
H45   H     H_    0.812239 0.281228 0.381045 0.010653
H46   H     H_    0.398849 0.724564 0.628914 0.002927
H47   H     H_    0.179905 0.717129 0.589186 0.067089
H48   H     H_    0.253676 0.666697 0.117158 0.072134
H49   H     H_    0.470728 0.683714 0.031032 0.060988
H50   H     H_    0.550325 0.831303 0.990326 0.060397
H51   H     H_    0.412939 0.962325 0.036393 0.058768
H52   H     H_    0.197426 0.946612 0.122995 0.057479
H53   H     H_    0.210059 0.118544 0.806018 0.087636
H54   H     H_    0.349149 0.076448 0.924799 0.059057
H55   H     H_    0.272071 0.130441 0.056493 0.059756
H56   H     H_    0.031140 0.275567 0.404859 0.070496
H57   H     H_    0.059617 0.231700 0.069684 0.067631
H58   H     H_    0.923158 0.276420 0.951635 0.059566
H59   H     H_    0.661044 0.908551 0.682096 0.034939
H60   H     H_    0.740595 0.021238 0.666458 0.022935
H61   H     H_    0.031704 0.001114 0.711292 0.116137
H62   H     H_    0.897759 0.996052 0.786769 0.057283
H63   H     H_    0.947785 0.892412 0.733489 0.141027
H64   H     H_    0.762236 0.130566 0.287914 0.133261
H65   H     H_    0.861431 0.120792 0.384346 0.064442
H66   H     H_    0.984062 0.126651 0.305670 0.114178
O1    O     O_2   0.823670 0.438410 0.305690 -0.470154
O2    O     O_2   0.215950 0.180405 0.550018 -0.501787
O3    O     O_3   0.138156 0.209656 0.694080 -0.607971
O4    O     O_3   0.097540 0.445020 0.403910 -0.500003
O5    O     O_3   0.591400 0.612970 0.544220 -0.499929
O6    O     O_2   0.325880 0.273340 0.453540 -0.476835
O7    O     O_3   0.466912 0.234186 0.325613 -0.645846
O8    O     O_2   0.477173 0.454777 0.779269 -0.483509
O9    O     O_3   0.541079 0.287512 0.759314 -0.595557
O10   O     O_3   0.626660 0.608370 0.360070 -0.496167
O11   O     O_2   0.746298 0.558611 0.227509 -0.473351
O12   O     O_3   0.733073 0.745166 0.673812 -0.634773
O13   O     O_3   0.949390 0.292181 0.291013 -0.640571
O14   O     O_3   0.574654 0.689427 0.225376 -0.611255
O15   O     O_2   0.863840 0.726690 0.546510 -0.435372
O16   O     O_3   0.059500 0.657930 0.401470 -0.466172
O17   O     O_2   0.996993 0.820903 0.460565 -0.455826
O18   O     O_3   0.804577 0.914822 0.589790 -0.635460
O19   O     O_3   0.032218 0.793399 0.312160 -0.607035
O20   O     O_2   0.366040 0.561620 0.694360 -0.464796
O21   O     O_3   0.092170 0.555060 0.596100 -0.504515
O22   O     O_3   0.563060 0.391710 0.639940 -0.491186
O23   O     O_3   0.237114 0.707998 0.707975 -0.639344
O24   O     O_3   0.598320 0.387100 0.455790 -0.476247
O25   O     O_3   0.130210 0.342150 0.598540 -0.471129
P1    P     P_3+3 0.993950 0.412000 0.316970 0.976742
P2    P     P_3+3 0.694070 0.714570 0.569730 1.023259
P3    P     P_3+3 0.108841 0.775013 0.405846 0.953814
P4    P     P_3+3 0.195760 0.588070 0.683040 0.976716
P5    P     P_3+3 0.089895 0.225100 0.596310 0.954583
P6    P     P_3+3 0.586075 0.585978 0.256455 0.964536
P7    P     P_3+3 0.503451 0.271264 0.428965 0.931737
P8    P     P_3+3 0.600144 0.397865 0.741987 0.952897

loop_
_geom_bond_atom_site_label_1
_geom_bond_atom_site_label_2
_ccdc_geom_bond_type
Ba2   O24   S    
C53   C54   S    
C7    P1    S    
Ba2   P4    S    
C37   H65   S    
C28   H47   S    
C15   H28   S    
C55   H19   S    
C9    P8    S    
C5    C6    S    
C39   H7    S    
C53   H59   S    
C1    H4    S    
C42   C43   A    
C20   C33   A    
C9    C17   A    
C24   C25   A    
C38   H3    S    
C18   P3    S    
C45   O3    S    
C4    H38   S    
C26   C27   A    
C1    H9    S    
C22   C24   A    
C22   H41   S    
C8    C13   A    
C56   H22   S    
C36   C37   S    
O1    P1    D    
C51   H57   S    
C19   C31   A    
Ba2   O22   S    
C47   C52   A    
O13   P1    S    
C32   H37   S    
C38   H2    S    
Ba1   P1    S    
O7    P7    S    
Ba1   O16   S    
O20   P4    D    
C29   C30   A    
C14   C15   D    
C38   O12   S    
Ba2   O6    S    
C36   O13   S    
C23   H11   S    
C29   H39   S    
Ba1   O10   S    
O21   P4    S    
C18   C27   A    
C18   C32   A    
C42   H49   S    
O8    P8    D    
C37   H66   S    
C21   P5    S    
C28   H46   S    
C55   H20   S    
C48   C49   A    
C12   H8    S    
C53   H60   S    
C31   O18   S    
C4    C16   S    
C44   C46   A    
C49   H54   S    
O9    P8    S    
C49   C50   A    
C54   H63   S    
O5    P2    S    
C20   H40   S    
C57   H24   S    
Ba1   O4    S    
C34   H13   S    
C56   H21   S    
C3    C5    D    
C4    O19   S    
C43   H50   S    
C6    C7    D    
O17   P3    D    
C39   H5    S    
C19   C32   A    
C25   C33   A    
C56   C57   S    
C43   C44   A    
C12   H1    S    
O6    P7    D    
C37   H64   S    
C28   C35   S    
C11   H33   S    
O22   P8    S    
C54   H62   S    
C41   C42   A    
C57   H25   S    
C34   H15   S    
O14   P6    S    
C45   C55   S    
O3    P5    S    
C36   H56   S    
C2    P6    S    
C11   C13   A    
C21   C22   A    
C2    C58   S    
Ba2   O5    S    
C16   H44   S    
Ba1   O24   S    
C40   C46   A    
O25   P5    S    
O16   P3    S    
Ba1   P2    S    
C1    H16   S    
C1    C12   S    
C34   H14   S    
O10   P6    S    
O12   P2    S    
C5    C14   S    
C46   H52   S    
C12   O14   S    
C26   C31   A    
C52   H58   S    
O4    P1    S    
C30   H42   S    
Ba1   O21   S    
C40   C41   A    
O19   P3    S    
C10   P4    S    
C23   O7    S    
C50   C51   A    
C50   H55   S    
Ba2   O25   S    
C13   C15   S    
C38   C39   S    
C19   P2    S    
C53   O18   S    
O24   P7    S    
C25   C30   A    
Ba1   O1    S    
C2    C3    S    
C28   O23   S    
C47   C55   S    
C51   C52   A    
C39   H6    S    
C6    H29   S    
C56   O9    S    
Ba2   O20   S    
C24   C26   A    
C4    H26   S    
O11   P6    D    
C48   H53   S    
C54   H61   S    
C7    C58   D    
C36   H45   S    
C16   C40   S    
Ba2   O21   S    
C33   P7    S    
C27   C29   A    
C16   H43   S    
O15   P2    D    
Ba1   O5    S    
Ba1   Ba2   S    
C10   C17   A    
Ba2   O4    S    
C35   H34   S    
C41   H48   S    
O23   P4    S    
C57   H27   S    
C3    H32   S    
Ba1   O15   S    
C8    C9    A    
O2    P5    D    
C23   C34   S    
C58   H35   S    
C10   C11   A    
C8    H30   S    
C14   H31   S    
C47   C48   A    
C35   H12   S    
C45   H17   S    
C20   C21   A    
C35   H23   S    
C23   H10   S    
C45   H18   S    
C44   H51   S    
C17   H36   S    
