data_mof_unit_6097.cif
_audit_creation_date              2013-03-05T16:05:40-0500
_audit_creation_method            fapswitch 2.2
_symmetry_space_group_name_H-M    P1
_symmetry_Int_Tables_number       1
_space_group_crystal_system       triclinic
_cell_length_a                    10.788673
_cell_length_b                    14.973674
_cell_length_c                    15.33658
_cell_angle_alpha                 82.109888
_cell_angle_beta                  91.528995
_cell_angle_gamma                 103.063404
_cell_volume                      2390.57429956

loop_
_atom_site_label
_atom_site_type_symbol
_atom_site_description
_atom_site_fract_x
_atom_site_fract_y
_atom_site_fract_z
_atom_type_partial_charge
O1    O     O_R   0.462770 0.383110 0.605620 -0.622219
O2    O     O_R   0.510160 0.531900 0.639510 -0.623423
C1    C     C_R   0.485509 0.442184 0.662485 0.861337
O3    O     O_R   0.661510 0.425600 0.483070 -0.600458
O4    O     O_R   0.708900 0.574390 0.516960 -0.587337
C2    C     C_R   0.741008 0.499455 0.502508 0.976005
Zn1   Zn    Zn3+2 0.468350 0.400660 0.477370 0.962246
Zn2   Zn    Zn3+2 0.531650 0.599340 0.522630 0.987996
O5    O     O_R   0.489840 0.468100 0.360490 -0.624416
O6    O     O_R   0.537230 0.616890 0.394380 -0.602566
O7    O     O_R   0.291100 0.425610 0.483040 -0.621649
O8    O     O_R   0.338490 0.574400 0.516930 -0.624840
C3    C     C_R   0.528136 0.557753 0.338201 0.882456
C4    C     C_R   0.258033 0.501981 0.495267 0.857270
C5    C     C_3   0.899074 0.404176 0.494749 -0.354008
H1    H     H_    0.861515 0.376485 0.433917 0.266492
H2    H     H_    0.843905 0.353083 0.546251 0.215997
C6    C     C_3   0.039745 0.403559 0.505615 -0.380677
H3    H     H_    0.055161 0.367146 0.571763 0.202825
H4    H     H_    0.067764 0.360461 0.459925 0.220913
C7    C     C_3   0.937770 0.574536 0.415768 0.333471
C8    C     C_3   0.940649 0.535401 0.586575 0.119921
C9    C     C_3   0.877365 0.503073 0.499334 -0.219599
H5    H     H_    0.925171 0.604927 0.592221 0.183702
C10   C     C_3   0.120570 0.504571 0.494595 -0.104939
C11   C     C_3   0.081245 0.563467 0.403637 0.213948
C12   C     C_3   0.088321 0.545809 0.579987 -0.127016
H6    H     H_    0.131529 0.620811 0.568857 0.194862
C13   C     C_R   0.501678 0.408441 0.755233 -0.036733
C14   C     C_R   0.565336 0.592919 0.246474 -0.030068
C15   C     C_R   0.535378 0.289485 0.870913 -0.181215
C16   C     C_R   0.504258 0.316148 0.783906 -0.146201
C17   C     C_R   0.531914 0.473366 0.813515 -0.180059
C18   C     C_R   0.573443 0.450079 0.898821 0.093172
C19   C     C_R   0.568333 0.355422 0.930335 0.099307
C20   C     C_R   0.610761 0.518900 0.954636 0.052782
C21   C     C_R   0.617546 0.491280 0.045667 0.016086
C22   C     C_R   0.618720 0.397929 0.076143 -0.198283
C23   C     C_R   0.594401 0.329200 0.020017 0.136216
C24   C     C_R   0.638413 0.614685 0.922521 -0.163209
C25   C     C_R   0.649875 0.680509 0.979571 -0.193355
C26   C     C_R   0.630401 0.652326 0.069414 0.161026
C27   C     C_R   0.616073 0.557568 0.103279 0.115362
C28   C     C_R   0.620378 0.716945 0.125530 -0.163052
C29   C     C_R   0.586600 0.687141 0.213606 -0.139413
C30   C     C_R   0.586767 0.530522 0.192394 -0.148815
H7    H     H_    0.576409 0.460074 0.220725 0.152263
H8    H     H_    0.575617 0.737343 0.255343 0.156654
H9    H     H_    0.666417 0.753077 0.952758 0.163067
H10   H     H_    0.534202 0.217112 0.890294 0.134524
H11   H     H_    0.483491 0.264768 0.739095 0.150305
H12   H     H_    0.520878 0.542671 0.791405 0.143272
H13   H     H_    0.641873 0.378516 0.143543 0.182705
H14   H     H_    0.651872 0.640327 0.853300 0.181914
H15   H     H_    0.633362 0.789760 0.100515 0.139223
N1    N     N_R   0.573860 0.731700 0.552730 -0.124434
N2    N     N_R   0.426060 0.268290 0.447230 -0.115529
C31   C     C_R   0.709102 0.835448 0.639994 0.202038
C32   C     C_R   0.666405 0.747489 0.614031 -0.008507
C33   C     C_R   0.522265 0.800646 0.513112 -0.046329
C34   C     C_R   0.571244 0.892472 0.528502 -0.048775
C35   C     C_R   0.652679 0.908660 0.601373 -0.053697
C36   C     C_R   0.532243 0.966602 0.476988 0.060391
C37   C     C_R   0.553637 0.054191 0.507166 0.000763
C38   C     C_R   0.648840 0.072586 0.571592 0.128605
C39   C     C_R   0.676950 0.997745 0.629535 0.180250
C40   C     C_R   0.481974 0.959360 0.391513 0.141534
C41   C     C_R   0.401213 0.016201 0.359863 -0.141612
C42   C     C_R   0.391651 0.090836 0.402886 -0.001904
C43   C     C_R   0.479875 0.118263 0.469428 -0.038478
C44   C     C_R   0.307574 0.145842 0.371105 0.176084
C45   C     C_R   0.345573 0.240478 0.379372 0.191588
C46   C     C_R   0.483725 0.205941 0.496582 -0.107035
H16   H     H_    0.538446 0.227509 0.553034 0.146948
H17   H     H_    0.356127 0.008280 0.296506 0.174012
H18   H     H_    0.710083 0.691408 0.640969 0.189170
H19   H     H_    0.441743 0.783586 0.470896 0.124053
N3    N     N_R   0.929588 0.670397 0.429455 0.166464
O9    O     O_R   0.841257 0.707566 0.390107 -0.313601
O10   O     O_R   0.005580 0.719137 0.481402 -0.452704
C47   C     C_3   0.175002 0.662392 0.382812 -0.345759
C48   C     C_3   0.295579 0.667062 0.330421 -0.762642
H20   H     H_    0.313986 0.597588 0.331543 0.243629
H21   H     H_    0.287034 0.697215 0.260745 0.269007
H22   H     H_    0.377771 0.712115 0.357642 0.221884
H23   H     H_    0.125283 0.710928 0.342396 0.271914
H24   H     H_    0.206263 0.692742 0.443654 0.217916
C49   C     C_3   0.589039 0.227682 0.055036 -0.405663
C50   C     C_3   0.609355 0.204648 0.154038 -0.845660
H25   H     H_    0.706641 0.239179 0.173044 0.284757
H26   H     H_    0.536848 0.225220 0.192303 0.244380
H27   H     H_    0.598738 0.128786 0.170663 0.251485
H28   H     H_    0.493784 0.186058 0.039937 0.209048
H29   H     H_    0.661970 0.204017 0.019939 0.220706
C51   C     C_3   0.717595 0.014048 0.723162 -0.337157
C52   C     C_3   0.620706 0.052870 0.768789 -0.909887
H30   H     H_    0.613869 0.122108 0.735262 0.259663
H31   H     H_    0.525321 0.005224 0.769403 0.269845
H32   H     H_    0.650357 0.059973 0.837884 0.260038
H33   H     H_    0.723496 0.949084 0.765367 0.234571
H34   H     H_    0.812252 0.062348 0.722939 0.238916
C53   C     C_3   0.337076 0.305026 0.295775 -0.431671
C54   C     C_3   0.233325 0.358157 0.297265 -0.546912
H35   H     H_    0.150570 0.315222 0.335977 0.278936
H36   H     H_    0.268163 0.423042 0.325248 0.250341
H37   H     H_    0.202034 0.376977 0.228955 0.253870
H38   H     H_    0.430405 0.349689 0.279004 0.203902
H39   H     H_    0.319229 0.265902 0.238327 0.207907
N4    N     N_R   0.821750 0.851151 0.693019 0.194211
O11   O     O_R   0.914801 0.922024 0.669908 -0.380971
O12   O     O_R   0.840694 0.787091 0.755016 -0.403880
C55   C     C_3   0.748930 0.162754 0.560039 -0.484540
C56   C     C_3   0.876761 0.146630 0.532373 -0.745462
H40   H     H_    0.946931 0.213303 0.519656 0.236451
H41   H     H_    0.915868 0.101953 0.584587 0.281018
H42   H     H_    0.865299 0.113768 0.471016 0.279710
H43   H     H_    0.723720 0.212657 0.506204 0.217819
H44   H     H_    0.760349 0.195090 0.621546 0.234263
C57   C     C_3   0.539154 0.912903 0.325221 -0.485265
C58   C     C_3   0.678926 0.960027 0.307490 -0.722399
H45   H     H_    0.689629 0.035398 0.286824 0.251176
H46   H     H_    0.736481 0.949449 0.367595 0.284035
H47   H     H_    0.716032 0.929749 0.254255 0.256858
H48   H     H_    0.533701 0.839143 0.346507 0.209405
H49   H     H_    0.487540 0.916658 0.261553 0.207253
N5    N     N_R   0.190509 0.106872 0.327493 0.203370
O13   O     O_R   0.118695 0.159184 0.288670 -0.399172
O14   O     O_R   0.141475 0.018373 0.342890 -0.351238
N6    N     N_R   0.865301 0.555538 0.333502 0.244531
O15   O     O_R   0.782692 0.478618 0.327421 -0.414029
O16   O     O_R   0.890090 0.615623 0.262730 -0.298894
N7    N     N_R   0.083064 0.513385 0.325127 0.217900
O17   O     O_R   0.016328 0.429737 0.324465 -0.417671
O18   O     O_R   0.112554 0.559838 0.247413 -0.342950
N8    N     N_R   0.878930 0.477226 0.666555 0.208895
O19   O     O_R   0.813808 0.512643 0.717422 -0.409554
O20   O     O_R   0.883084 0.390698 0.686729 -0.436655
C59   C     C_3   0.150436 0.511472 0.668387 -0.359090
C60   C     C_3   0.150442 0.574491 0.739021 -0.755145
H50   H     H_    0.206291 0.645397 0.716028 0.249182
H51   H     H_    0.052700 0.578361 0.755519 0.309047
H52   H     H_    0.195327 0.547125 0.799862 0.240207
H53   H     H_    0.105677 0.439338 0.694862 0.254888
H54   H     H_    0.251305 0.510796 0.659229 0.206272

loop_
_geom_bond_atom_site_label_1
_geom_bond_atom_site_label_2
_geom_bond_distance
_ccdc_geom_bond_type
C31   C35   1.423839 A    
C5    C6    1.524315 S    
C7    C11   1.611800 S    
N5    O13   1.300015 A    
C31   N4    1.436731 S    
C46   H16   1.079685 S    
C14   C29   1.400652 A    
C51   C52   1.531554 S    
Zn2   N1    2.044610 S    
C47   C48   1.530352 S    
N8    O19   1.301818 A    
C16   H11   1.083242 S    
C57   H48   1.096605 S    
C28   C29   1.394205 A    
C41   H17   1.084049 S    
Zn1   O7    2.035866 S    
C20   C21   1.405424 A    
C18   C19   1.422517 A    
C13   C16   1.397813 A    
C59   H53   1.104069 S    
N4    O12   1.301457 A    
C22   C23   1.406408 A    
O7    C4    1.310348 A    
N3    O10   1.301459 A    
C5    H1    1.102995 S    
C52   H32   1.110876 S    
C13   C17   1.389300 A    
C42   C44   1.393795 A    
C6    H3    1.110975 S    
C25   C26   1.391585 A    
N2    C46   1.369293 A    
C1    C13   1.462298 S    
O5    C3    1.311686 A    
C53   C54   1.515016 S    
C30   H7    1.066538 S    
N7    O17   1.297200 A    
C52   H31   1.111242 S    
C7    N3    1.501074 S    
C44   N5    1.453238 S    
C53   H39   1.112745 S    
C37   C43   1.434162 A    
C50   H26   1.110970 S    
C18   C20   1.411743 A    
C47   H23   1.111266 S    
C58   H47   1.110634 S    
C56   H42   1.111905 S    
C5    C9    1.561708 S    
C4    C10   1.492014 S    
O1    Zn1   1.949027 S    
C42   C43   1.415142 A    
C6    C10   1.555030 S    
C26   C28   1.403382 A    
C23   C49   1.529780 S    
O3    Zn1   2.034046 S    
C25   H9    1.084089 S    
C55   C56   1.533037 S    
C58   H46   1.110949 S    
C49   H29   1.111497 S    
C36   C40   1.413802 A    
C33   H19   1.074342 S    
C12   C59   1.570792 S    
C35   C39   1.424339 A    
C40   C41   1.385073 A    
C3    C14   1.465799 S    
C20   C24   1.417447 A    
O3    C2    1.302130 A    
C57   C58   1.527733 S    
C55   H43   1.106580 S    
C51   H33   1.105523 S    
C41   C42   1.397554 A    
C10   C11   1.644234 S    
N1    C33   1.346974 A    
C33   C34   1.406944 A    
O1    C1    1.305944 A    
C21   C27   1.419451 A    
C19   C23   1.416354 A    
C38   C55   1.518479 S    
C21   C22   1.414499 A    
C15   C16   1.393963 A    
Zn2   O8    2.034046 S    
C52   H30   1.109443 S    
C43   C46   1.422421 A    
C34   C36   1.409232 A    
C17   C18   1.395731 A    
C53   H38   1.090609 S    
C54   H36   1.100092 S    
C50   H27   1.109814 S    
C7    N6    1.493112 S    
C47   H24   1.105122 S    
C57   H49   1.112093 S    
Zn2   O6    1.949027 S    
C24   C25   1.388594 A    
O8    C4    1.302977 A    
C38   C39   1.415399 A    
C11   C47   1.590393 S    
C48   H21   1.111466 S    
C8    C12   1.569951 S    
C7    C9    1.601592 S    
C8    H5    1.106030 S    
C31   C32   1.401914 A    
C26   C27   1.417637 A    
C15   H10   1.080947 S    
C12   H6    1.105735 S    
C11   N7    1.506111 S    
C58   H45   1.110092 S    
C56   H40   1.104804 S    
C29   H8    1.079478 S    
N8    O20   1.300720 A    
C49   H28   1.111563 S    
N5    O14   1.302127 A    
N3    O9    1.303433 A    
C14   C30   1.391024 A    
O2    Zn2   1.925114 S    
O6    C3    1.304513 A    
O4    Zn2   2.035865 S    
C17   H12   1.078498 S    
C60   H50   1.110861 S    
C5    H2    1.103074 S    
C10   C12   1.600282 S    
C48   H22   1.096745 S    
C24   H14   1.080101 S    
N1    C32   1.356788 A    
C8    N8    1.481487 S    
C37   C38   1.414140 A    
O2    C1    1.308853 A    
N6    O15   1.300241 A    
C44   C45   1.405740 A    
C59   H54   1.103462 S    
N4    O11   1.301450 A    
C55   H44   1.109803 S    
C60   H51   1.106919 S    
C28   H15   1.083776 S    
O4    C2    1.294686 A    
C22   H13   1.073285 S    
C45   C53   1.509936 S    
C2    C9    1.461695 S    
C15   C19   1.415192 A    
C60   H52   1.110720 S    
C54   H37   1.110854 S    
C6    H4    1.105676 S    
N2    C45   1.384850 A    
C34   C35   1.416107 A    
C27   C30   1.394661 A    
C59   C60   1.531202 S    
C36   C37   1.418342 A    
Zn1   O5    1.925114 S    
C49   C50   1.531349 S    
N7    O18   1.303143 A    
C48   H20   1.100093 S    
C54   H35   1.107680 S    
C8    C9    1.571721 S    
N6    O16   1.302953 A    
C50   H25   1.110710 S    
C40   C57   1.523080 S    
C32   H18   1.082189 S    
Zn1   N2    2.044968 S    
C51   H34   1.109774 S    
C39   C51   1.525767 S    
C56   H41   1.108738 S    
