data_mof_unit_29738.cif
_audit_creation_date              2012-12-11T16:30:28-0500
_audit_creation_method            fapswitch 2.2
_symmetry_space_group_name_H-M    P1
_symmetry_Int_Tables_number       1
_space_group_crystal_system       triclinic
_cell_length_a                    6.937795
_cell_length_b                    14.663968
_cell_length_c                    15.896557
_cell_angle_alpha                 90.012282
_cell_angle_beta                  89.639901
_cell_angle_gamma                 89.655964
_cell_volume                      1617.18467982

loop_
_atom_site_label
_atom_site_type_symbol
_atom_type_description
_atom_site_fract_x
_atom_site_fract_y
_atom_site_fract_z
_atom_type_partial_charge
O1    O     O_R   0.611670 0.415650 0.164070 -0.538582
O2    O     O_R   0.388330 0.915650 0.835930 -0.539940
O3    O     O_R   0.940950 0.405490 0.337780 -0.551529
O4    O     O_R   0.059050 0.905490 0.662220 -0.516691
O5    O     O_R   0.111350 0.584350 0.338470 -0.540951
O6    O     O_R   0.888650 0.084350 0.661530 -0.531689
C1    C     C_R   0.771556 0.385490 0.369253 0.673324
C2    C     C_R   0.227582 0.885745 0.630825 0.728841
O7    O     O_R   0.941380 0.404630 0.164680 -0.542950
O8    O     O_R   0.058620 0.904630 0.835320 -0.545381
O9    O     O_R   0.111780 0.583470 0.164130 -0.537943
O10   O     O_R   0.888220 0.083470 0.835870 -0.538220
C3    C     C_R   0.773057 0.382486 0.136116 0.691181
C4    C     C_R   0.227444 0.882227 0.863607 0.682852
O11   O     O_R   0.611240 0.416530 0.338400 -0.512500
O12   O     O_R   0.388760 0.916530 0.661600 -0.538076
O13   O     O_3   0.778020 0.558680 0.251290 -0.370626
O14   O     O_3   0.221980 0.058680 0.748710 -0.367621
V1    V     V_3+5 0.052840 0.489110 0.251260 1.428546
V2    V     V_3+5 0.947160 0.989110 0.748740 1.458124
O15   O     O_R   0.441500 0.594510 0.164760 -0.545366
O16   O     O_R   0.558500 0.094510 0.835240 -0.544456
C5    C     C_R   0.272792 0.616451 0.135960 0.683895
C6    C     C_R   0.726736 0.116061 0.864418 0.686507
O17   O     O_R   0.441080 0.595370 0.337860 -0.534080
O18   O     O_R   0.558920 0.095370 0.662140 -0.533710
C7    C     C_R   0.271879 0.617931 0.366900 0.732804
C8    C     C_R   0.728465 0.115597 0.631402 0.686700
V3    V     V_3+5 0.552850 0.510890 0.251270 1.454457
V4    V     V_3+5 0.447150 0.010890 0.748730 1.451516
O19   O     O_3   0.277800 0.441320 0.251250 -0.364806
O20   O     O_3   0.722200 0.941320 0.748750 -0.364470
C9    C     C_3   0.121844 0.661561 0.507153 -0.281560
C10   C     C_3   0.943321 0.186833 0.518367 -0.299393
H1    H     H_    0.977810 0.645595 0.480799 0.182572
H2    H     H_    0.059974 0.196281 0.565274 0.176131
H3    H     H_    0.183277 0.600100 0.538003 0.217774
H4    H     H_    0.969269 0.119717 0.487513 0.184114
C11   C     C_3   0.097235 0.736666 0.574691 -0.349998
C12   C     C_3   0.955577 0.263894 0.452015 -0.346996
H5    H     H_    0.127084 0.706869 0.637652 0.135830
H6    H     H_    0.998077 0.233064 0.390557 0.153526
H7    H     H_    0.944682 0.759815 0.576140 0.189825
H8    H     H_    0.074669 0.309667 0.468626 0.160329
H9    H     H_    0.039684 0.770062 0.374881 0.145232
H10   H     H_    0.843092 0.297213 0.640306 0.132661
C13   C     C_3   0.187394 0.782272 0.399534 -0.381165
C14   C     C_3   0.714514 0.283100 0.600673 -0.361742
C15   C     C_3   0.461071 0.707590 0.476344 -0.297804
C16   C     C_3   0.590520 0.171186 0.492585 -0.272102
C17   C     C_3   0.261375 0.690709 0.435853 0.024549
C18   C     C_3   0.742579 0.187321 0.562091 0.034109
H11   H     H_    0.561992 0.736583 0.428803 0.175914
H12   H     H_    0.442766 0.176297 0.519782 0.200170
H13   H     H_    0.524946 0.642064 0.498325 0.178046
H14   H     H_    0.611356 0.101631 0.466879 0.159211
C19   C     C_3   0.235867 0.817434 0.557434 -0.018191
C20   C     C_3   0.758922 0.316403 0.442315 -0.026233
C21   C     C_3   0.185395 0.860920 0.467861 0.015144
C22   C     C_3   0.689742 0.359018 0.531234 -0.054749
C23   C     C_3   0.442262 0.773756 0.551809 -0.343636
C24   C     C_3   0.611924 0.240364 0.419232 -0.332338
H15   H     H_    0.474250 0.736144 0.611001 0.156172
H16   H     H_    0.661061 0.203831 0.361440 0.139032
H17   H     H_    0.553852 0.826866 0.545765 0.186688
H18   H     H_    0.467973 0.269558 0.404102 0.157200
H19   H     H_    0.273480 0.800612 0.343093 0.160953
H20   H     H_    0.594278 0.282298 0.646713 0.168996
H21   H     H_    0.004350 0.583110 0.765732 0.154164
H22   H     H_    0.990181 0.081802 0.235492 0.148591
C25   C     C_R   0.365493 0.931726 0.028359 -0.151068
C26   C     C_R   0.638664 0.432663 0.970377 -0.159648
C27   C     C_R   0.439136 0.957393 0.105973 -0.130379
C28   C     C_R   0.569888 0.458852 0.891805 -0.119207
C29   C     C_R   0.458599 0.893404 0.169660 -0.115062
C30   C     C_R   0.553773 0.394964 0.827784 -0.100562
C31   C     C_R   0.400468 0.803688 0.157029 -0.140653
C32   C     C_R   0.607684 0.304578 0.841716 -0.148732
C33   C     C_R   0.325370 0.775269 0.078772 0.066266
C34   C     C_R   0.677642 0.275680 0.920799 0.068959
C35   C     C_R   0.310187 0.840463 0.012620 0.062255
C36   C     C_R   0.692444 0.341009 0.986770 0.060894
C37   C     C_R   0.263177 0.684188 0.066142 -0.184686
C38   C     C_R   0.736188 0.183914 0.934166 -0.184950
C39   C     C_R   0.190833 0.657959 0.986367 0.062970
C40   C     C_R   0.807737 0.157455 0.014141 0.061757
C41   C     C_R   0.178291 0.722923 0.919885 0.072709
C42   C     C_R   0.820252 0.222564 0.080499 0.074634
C43   C     C_R   0.237500 0.814281 0.933055 -0.183229
C44   C     C_R   0.763395 0.314471 0.066740 -0.185113
C45   C     C_R   0.135306 0.566778 0.970393 -0.157552
C46   C     C_R   0.863352 0.066034 0.030299 -0.160543
C47   C     C_R   0.068244 0.540570 0.891628 -0.117866
C48   C     C_R   0.929495 0.039590 0.109260 -0.113537
C49   C     C_R   0.055556 0.603953 0.826961 -0.122748
C50   C     C_R   0.940400 0.102911 0.174037 -0.127740
C51   C     C_R   0.110405 0.693996 0.840497 -0.149926
C52   C     C_R   0.885909 0.193278 0.160294 -0.155801
H23   H     H_    0.351187 0.984619 0.981391 0.118284
H24   H     H_    0.651154 0.485454 0.017508 0.118886
H25   H     H_    0.481066 0.027399 0.116782 0.137894
H26   H     H_    0.529886 0.529242 0.880444 0.139936
H27   H     H_    0.518401 0.913620 0.229279 0.165328
H28   H     H_    0.500286 0.415598 0.766809 0.161495
H29   H     H_    0.415350 0.757261 0.209353 0.108763
H30   H     H_    0.594565 0.257805 0.789739 0.106153
H31   H     H_    0.145851 0.514248 0.017897 0.119217
H32   H     H_    0.853776 0.013551 0.982733 0.118062
H33   H     H_    0.027515 0.470450 0.880531 0.140741
H34   H     H_    0.970518 0.969296 0.120466 0.141489
H35   H     H_    0.100553 0.740250 0.787786 0.102021
H36   H     H_    0.894399 0.239438 0.213195 0.103167
C53   C     C_2   0.333952 0.934001 0.447793 0.676496
O21   O     O_2   0.325844 0.006729 0.485258 -0.602826
O22   O     O_R   0.479800 0.919005 0.388257 -0.675355
H37   H     H_    0.562587 0.974699 0.378553 0.300972
C54   C     C_2   0.477389 0.389276 0.527627 0.726560
O23   O     O_2   0.430037 0.453321 0.482952 -0.579024
O24   O     O_R   0.338369 0.348061 0.578994 -0.687818
H38   H     H_    0.212556 0.383005 0.581261 0.299631
C55   C     C_2   0.989229 0.909005 0.461285 0.694351
O25   O     O_2   0.944031 0.944177 0.394308 -0.577711
O26   O     O_R   0.862275 0.915470 0.529275 -0.666623
H39   H     H_    0.745118 0.954502 0.516613 0.280405
C56   C     C_2   0.796161 0.443222 0.563709 0.702561
O27   O     O_2   0.741347 0.477727 0.629785 -0.549391
O28   O     O_R   0.951378 0.483995 0.523489 -0.683644
H40   H     H_    0.009426 0.450946 0.474621 0.268352

loop_
_geom_bond_atom_site_label_1
_geom_bond_atom_site_label_2
_ccdc_geom_bond_type
C30   H28   S    
V4    O20   S    
C20   C24   S    
O11   V3    S    
C3    C44   S    
O13   V3    S    
O4    C2    A    
V1    O19   S    
C39   C45   A    
O26   H39   S    
C11   H5    S    
O9    V1    S    
C16   H12   S    
C28   C30   A    
C10   C12   S    
C22   C56   S    
C38   C40   A    
O3    C1    A    
C54   O24   S    
C26   H24   S    
C51   H35   S    
C32   C34   A    
C19   C21   S    
C20   C22   S    
O22   H37   S    
C11   C19   S    
O7    V1    S    
C23   H15   S    
O7    C3    A    
C24   H16   S    
O13   V1    S    
O5    C7    A    
C46   H32   S    
O6    C8    A    
O8    V2    S    
C15   C17   S    
C50   C52   A    
C16   C18   S    
O3    V1    S    
O14   V4    S    
C1    C20   S    
C10   H2    S    
C34   C38   A    
C28   H26   S    
C35   C43   A    
H9    C13   S    
C2    O12   A    
C29   H27   S    
C27   C29   A    
C13   H19   S    
C7    C17   S    
C14   C22   S    
C39   C41   A    
O17   V3    S    
H10   C14   S    
C15   C23   S    
C24   H18   S    
C40   C42   A    
C45   H31   S    
C12   C20   S    
C34   C36   A    
O8    C4    A    
C33   C35   A    
C13   C17   S    
C1    O11   A    
C15   H13   S    
C25   H23   S    
C48   H34   S    
C16   H14   S    
H22   C50   S    
C4    C43   S    
C2    C19   S    
C45   C47   A    
C14   C18   S    
C21   C53   S    
O10   V2    S    
C46   C48   A    
C31   C33   A    
C22   C54   S    
C9    C11   S    
C14   H20   S    
C48   C50   A    
C29   C31   A    
C55   O25   D    
C5    C37   S    
C26   C28   A    
C37   C39   A    
C42   C44   A    
O18   V4    S    
O15   C5    A    
C56   O27   D    
C16   C24   S    
O16   C6    A    
O1    C3    A    
O28   H40   S    
C25   C27   A    
C53   O21   D    
V2    O20   S    
C27   H25   S    
O16   V4    S    
C10   H4    S    
O18   C8    A    
C30   C32   A    
C12   H6    S    
H21   C49   S    
C11   H7    S    
O24   H38   S    
C49   C51   A    
C19   C23   S    
O5    V1    S    
C25   C35   A    
C9    C17   S    
O6    V2    S    
O10   C6    A    
C10   C18   S    
C36   C44   A    
O2    V4    S    
C32   H30   S    
C52   H36   S    
C31   H29   S    
C6    C38   S    
C42   C52   A    
V3    O19   S    
C40   C46   A    
C54   O23   D    
C33   C37   A    
C8    C18   S    
O1    V3    S    
O15   V3    S    
C15   H11   S    
O9    C5    A    
C9    H1    S    
O14   V2    S    
O2    C4    A    
C9    H3    S    
C55   O26   S    
C13   C21   S    
C21   C55   S    
O4    V2    S    
C23   H17   S    
C12   H8    S    
C47   C49   A    
C56   O28   S    
C41   C43   A    
C41   C51   A    
O12   V4    S    
C26   C36   A    
C47   H33   S    
C53   O22   S    
O17   C7    A    
