data_mof_unit_37988.cif
_audit_creation_date              2012-12-10T18:57:38-0500
_audit_creation_method            fapswitch 2.2
_symmetry_space_group_name_H-M    P1
_symmetry_Int_Tables_number       1
_space_group_crystal_system       triclinic
_cell_length_a                    10.930889
_cell_length_b                    10.866174
_cell_length_c                    9.531188
_cell_angle_alpha                 89.425017
_cell_angle_beta                  89.775059
_cell_angle_gamma                 90.342309
_cell_volume                      1131.99916149

loop_
_atom_site_label
_atom_site_type_symbol
_atom_type_description
_atom_site_fract_x
_atom_site_fract_y
_atom_site_fract_z
_atom_type_partial_charge
C1    C     C_R   0.499127 0.262593 0.500444 0.811520
C2    C     C_R   0.500839 0.129802 0.498541 -0.122235
C3    C     C_R   0.473038 0.068888 0.373765 -0.248903
C4    C     C_R   0.466492 0.940484 0.369060 0.072873
C5    C     C_R   0.494403 0.871591 0.493558 -0.130311
C6    C     C_R   0.531291 0.934763 0.613552 0.095951
C7    C     C_3   0.482081 0.926411 0.760157 -0.459363
C8    C     C_3   0.485314 0.065927 0.762572 -0.473363
C9    C     C_R   0.556766 0.592541 0.072234 0.233783
C10   C     C_R   0.433797 0.415765 0.075761 -0.085294
C11   C     C_R   0.433890 0.415675 0.926750 -0.083063
C12   C     C_R   0.265273 0.498506 0.500281 0.834985
C13   C     C_R   0.556631 0.592663 0.924863 0.263952
C14   C     C_3   0.688801 0.627046 0.917884 -0.504777
C15   C     C_3   0.688785 0.627131 0.077080 -0.506391
C16   C     C_R   0.495518 0.737727 0.498518 0.791429
C17   C     C_R   0.734741 0.501706 0.499899 0.855877
C18   C     C_2   0.933587 0.493183 0.385375 -0.158672
C19   C     C_2   0.866744 0.509155 0.501760 -0.322239
C20   C     C_2   0.067424 0.500244 0.385048 -0.163544
C21   C     C_2   0.133262 0.492107 0.502984 -0.321998
C22   C     C_R   0.534100 0.061454 0.616227 0.125957
Cu1   Cu    Cu3+1 0.499990 0.499980 0.640670 0.936558
Cu2   Cu    Cu3+1 0.500010 0.500020 0.359330 0.933199
H1    H     H_    0.889540 0.475647 0.285724 0.155404
H2    H     H_    0.553525 0.103422 0.837312 0.197450
H3    H     H_    0.382103 0.346187 0.132707 0.135141
H4    H     H_    0.746760 0.553276 0.873315 0.217762
H5    H     H_    0.703674 0.719875 0.870725 0.187355
H6    H     H_    0.746507 0.553329 0.122549 0.214284
H7    H     H_    0.703347 0.720056 0.121997 0.188904
H8    H     H_    0.907575 0.530743 0.601877 0.142476
H9    H     H_    0.112475 0.509650 0.283646 0.167487
H10   H     H_    0.091600 0.477111 0.604967 0.146871
H11   H     H_    0.449195 0.121965 0.281041 0.157667
H12   H     H_    0.387848 0.887358 0.765163 0.198572
H13   H     H_    0.392946 0.107974 0.768637 0.192531
N1    N     N_R   0.500780 0.500930 0.147930 -0.182835
N2    N     N_R   0.500780 0.500890 0.852020 -0.183448
O1    O     O_R   0.500000 0.319640 0.618810 -0.583189
O2    O     O_R   0.500010 0.319680 0.381230 -0.590511
O3    O     O_R   0.321940 0.499980 0.618760 -0.587456
O4    O     O_R   0.321950 0.500020 0.381180 -0.582173
O5    O     O_R   0.499990 0.680320 0.618770 -0.577770
O6    O     O_R   0.500000 0.680360 0.381190 -0.584008
O7    O     O_R   0.678050 0.499980 0.618820 -0.585813
O8    O     O_R   0.678060 0.500020 0.381240 -0.577391
H14   H     H_    0.382380 0.345982 0.871830 0.134538
C23   C     C_3   0.421101 0.884867 0.232632 -0.375277
C24   C     C_3   0.290933 0.832272 0.248632 -0.309200
C25   C     C_3   0.249213 0.769256 0.114512 -0.842904
H15   H     H_    0.251972 0.835087 0.024581 0.243529
H16   H     H_    0.308931 0.689711 0.091205 0.257198
H17   H     H_    0.153923 0.735071 0.128148 0.236496
H18   H     H_    0.285506 0.764668 0.336477 0.225625
H19   H     H_    0.226918 0.908435 0.272591 0.205758
H20   H     H_    0.418490 0.956052 0.147951 0.175442
H21   H     H_    0.486305 0.816017 0.192571 0.214136
H22   H     H_    0.548152 0.883692 0.834027 0.191418

loop_
_geom_bond_atom_site_label_1
_geom_bond_atom_site_label_2
_ccdc_geom_bond_type
C16   O6    A    
C2    C22   A    
C8    C22   S    
Cu1   Cu2   S    
C15   H7    S    
C6    C7    S    
C8    H2    S    
C7    H12   S    
C16   O5    A    
Cu2   N1    S    
C24   H18   S    
C10   H3    S    
C3    H11   S    
C4    C23   S    
C10   N1    A    
C25   H17   S    
C24   C25   S    
C9    C15   S    
C7    C8    S    
Cu1   O7    S    
C13   C14   S    
C17   O7    A    
C11   N2    A    
Cu2   O2    S    
Cu1   O3    S    
C11   H14   S    
C18   H1    S    
Cu1   N2    S    
C19   H8    S    
C1    O2    A    
C9    N1    A    
C17   C19   S    
C2    C3    A    
C12   O4    A    
C18   C20   S    
C5    C6    A    
C13   N2    A    
C10   C11   A    
Cu2   O6    S    
C14   H5    S    
C25   H15   S    
C6    C22   A    
C17   O8    A    
C23   H20   S    
C20   C21   D    
C3    C4    A    
C15   H6    S    
C20   H9    S    
C1    C2    S    
C8    H13   S    
C7    H22   S    
C23   C24   S    
Cu2   O4    S    
C9    C13   A    
C14   C15   S    
C18   C19   D    
C5    C16   S    
C12   O3    A    
C21   H10   S    
C1    O1    A    
C14   H4    S    
Cu2   O8    S    
C12   C21   S    
C24   H19   S    
C23   H21   S    
Cu1   O1    S    
C4    C5    A    
Cu1   O5    S    
C25   H16   S    
