data_mof_unit_57111.cif
_audit_creation_date              2012-12-10T18:43:05-0500
_audit_creation_method            fapswitch 2.2
_symmetry_space_group_name_H-M    P1
_symmetry_Int_Tables_number       1
_space_group_crystal_system       triclinic
_cell_length_a                    10.816707
_cell_length_b                    9.829125
_cell_length_c                    10.746592
_cell_angle_alpha                 90.000029
_cell_angle_beta                  90.078897
_cell_angle_gamma                 89.999555
_cell_volume                      1142.56330818

loop_
_atom_site_label
_atom_site_type_symbol
_atom_type_description
_atom_site_fract_x
_atom_site_fract_y
_atom_site_fract_z
_atom_type_partial_charge
C1    C     C_R   0.259865 0.500900 0.504845 0.869501
C2    C     C_R   0.740134 0.500900 0.495152 0.869503
C3    C     C_R   0.497263 0.499847 0.262511 0.933734
C4    C     C_R   0.502737 0.499848 0.737489 0.933739
C5    C     C_2   0.496369 0.385091 0.933063 -0.166618
C6    C     C_2   0.503631 0.385091 0.066936 -0.166618
C7    C     C_2   0.514385 0.499661 0.868940 -0.336379
C8    C     C_2   0.485614 0.499661 0.131060 -0.336378
C9    C     C_R   0.063210 0.382418 0.502620 -0.212300
C10   C     C_R   0.936791 0.382418 0.497373 -0.212302
C11   C     C_R   0.872824 0.505439 0.491169 -0.086630
C12   C     C_R   0.127173 0.505440 0.508821 -0.086630
C13   C     C_R   0.936492 0.631510 0.489827 -0.057191
C14   C     C_R   0.063504 0.631510 0.510152 -0.057195
C15   C     C_R   0.525554 0.071892 0.606292 -0.105959
C16   C     C_R   0.474447 0.071893 0.393708 -0.105958
C17   C     C_R   0.525423 0.928081 0.606316 -0.036589
C18   C     C_R   0.474578 0.928081 0.393684 -0.036577
H1    H     H_    0.477176 0.288783 0.887258 0.158698
H2    H     H_    0.522824 0.288782 0.112742 0.158698
H3    H     H_    0.541117 0.595140 0.911682 0.141755
H4    H     H_    0.458883 0.595140 0.088318 0.141756
H5    H     H_    0.110623 0.285533 0.502795 0.163603
H6    H     H_    0.889379 0.285532 0.497202 0.163601
H7    H     H_    0.546653 0.125918 0.691281 0.122987
H8    H     H_    0.453347 0.125919 0.308719 0.122985
H9    H     H_    0.546438 0.874020 0.691314 0.118793
H10   H     H_    0.453562 0.874021 0.308686 0.118791
N1    N     N_R   0.500000 0.857200 0.500000 -0.066713
N2    N     N_R   0.500000 0.142810 0.500000 -0.081812
O1    O     O_R   0.316770 0.614620 0.499990 -0.608930
O2    O     O_R   0.683230 0.614620 0.500010 -0.608934
O3    O     O_R   0.316800 0.385290 0.500000 -0.631179
O4    O     O_R   0.683200 0.385290 0.500000 -0.631176
O5    O     O_R   0.500000 0.614630 0.319080 -0.633380
O6    O     O_R   0.500000 0.614630 0.680920 -0.633380
O7    O     O_R   0.500030 0.385300 0.319080 -0.626756
O8    O     O_R   0.499970 0.385300 0.680920 -0.626755
Zn1   Zn    Zn3+2 0.500000 0.653120 0.500000 0.958927
Zn2   Zn    Zn3+2 0.500000 0.346880 0.500000 0.923129
C19   C     C_R   0.875245 0.763533 0.460121 0.165555
C20   C     C_R   0.844265 0.793969 0.336272 -0.136093
C21   C     C_R   0.798716 0.922669 0.305237 -0.160949
C22   C     C_R   0.784824 0.021852 0.397290 -0.105384
C23   C     C_R   0.813562 0.991513 0.521061 -0.142004
C24   C     C_R   0.856967 0.862242 0.552926 -0.114748
H11   H     H_    0.857947 0.718992 0.263734 0.113215
H12   H     H_    0.775680 0.946107 0.209583 0.121313
H13   H     H_    0.750881 0.121907 0.372788 0.143630
H14   H     H_    0.802070 0.068131 0.592420 0.127269
H15   H     H_    0.879893 0.840182 0.648938 0.114269
C25   C     C_R   0.124748 0.763537 0.539848 0.165557
C26   C     C_R   0.155716 0.793990 0.663697 -0.136102
C27   C     C_R   0.201268 0.922691 0.694721 -0.160943
C28   C     C_R   0.215173 0.021859 0.602657 -0.105386
C29   C     C_R   0.186442 0.991505 0.478888 -0.142015
C30   C     C_R   0.143035 0.862232 0.447033 -0.114747
H16   H     H_    0.142021 0.719026 0.736243 0.113215
H17   H     H_    0.224294 0.946143 0.790375 0.121313
H18   H     H_    0.249121 0.121914 0.627151 0.143640
H19   H     H_    0.197942 0.068111 0.407522 0.127269
H20   H     H_    0.120116 0.840159 0.351023 0.114267

loop_
_geom_bond_atom_site_label_1
_geom_bond_atom_site_label_2
_ccdc_geom_bond_type
C22   H13   S    
O5    Zn1   S    
C21   C22   A    
C4    O6    A    
C18   H10   S    
C15   C17   A    
C5    H1    S    
C13   C14   A    
C17   N1    A    
C19   C20   A    
C27   C28   A    
C8    H4    S    
C3    O5    A    
C26   H16   S    
C21   H12   S    
C28   H18   S    
N1    Zn1   S    
C28   C29   A    
C13   C19   S    
C12   C14   A    
C1    O3    A    
C30   H20   S    
C18   N1    A    
C26   C27   A    
C25   C26   A    
O8    Zn2   S    
C11   C13   A    
C2    O4    A    
C19   C24   A    
C23   H14   S    
C4    C7    S    
O4    Zn2   S    
C2    C11   S    
C16   C18   A    
C20   H11   S    
O1    Zn1   S    
O7    Zn2   S    
C27   H17   S    
C16   H8    S    
C5    C6    S    
C9    C12   A    
C14   C25   S    
C15   H7    S    
O3    Zn2   S    
C10   C11   A    
C29   C30   A    
N2    Zn2   S    
C25   C30   A    
C17   H9    S    
C23   C24   A    
C1    O1    A    
C6    H2    S    
C22   C23   A    
C3    O7    A    
C15   N2    A    
C2    O2    A    
C3    C8    S    
C9    C10   A    
O2    Zn1   S    
C5    C7    D    
C29   H19   S    
C9    H5    S    
C6    C8    D    
C10   H6    S    
C7    H3    S    
C16   N2    A    
C24   H15   S    
O6    Zn1   S    
C1    C12   S    
C20   C21   A    
C4    O8    A    
