data_mof_unit_25597.cif
_audit_creation_date              2013-03-05T15:54:26-0500
_audit_creation_method            fapswitch 2.2
_symmetry_space_group_name_H-M    P1
_symmetry_Int_Tables_number       1
_space_group_crystal_system       triclinic
_cell_length_a                    15.738787
_cell_length_b                    10.74503
_cell_length_c                    9.926632
_cell_angle_alpha                 88.530304
_cell_angle_beta                  89.644512
_cell_angle_gamma                 92.927915
_cell_volume                      1675.93941057

loop_
_atom_site_label
_atom_site_type_symbol
_atom_site_description
_atom_site_fract_x
_atom_site_fract_y
_atom_site_fract_z
_atom_type_partial_charge
O1    O     O_R   0.500000 0.316780 0.614690 -0.568028
O2    O     O_R   0.499990 0.316750 0.385360 -0.658470
C1    C     C_R   0.504275 0.259964 0.502660 0.947792
O3    O     O_R   0.376780 0.500000 0.614650 -0.552087
O4    O     O_R   0.376770 0.499980 0.385310 -0.646747
C2    C     C_R   0.338094 0.499808 0.500355 0.915848
Zn1   Zn    Zn3+2 0.500010 0.500020 0.653130 1.001666
Zn2   Zn    Zn3+2 0.499990 0.499980 0.346870 0.987014
O5    O     O_R   0.500010 0.683250 0.614640 -0.638998
O6    O     O_R   0.500000 0.683220 0.385310 -0.546188
O7    O     O_R   0.623230 0.500020 0.614690 -0.608212
O8    O     O_R   0.623220 0.500000 0.385350 -0.615464
C3    C     C_R   0.492117 0.738717 0.498684 0.908196
C4    C     C_R   0.661922 0.500509 0.499637 0.892499
C5    C     C_3   0.968110 0.397867 0.554408 0.601684
C6    C     C_3   0.025236 0.410976 0.428787 0.663467
H1    H     H_    0.950677 0.529154 0.267639 0.213050
C7    C     C_1   0.249321 0.500959 0.501281 -0.138675
C8    C     C_1   0.750819 0.501850 0.498880 -0.111245
C9    C     C_3   0.027426 0.490856 0.630524 -0.368059
C10   C     C_3   0.083493 0.504433 0.502610 -0.078946
C11   C     C_3   0.976076 0.597950 0.573039 0.325010
C12   C     C_3   0.916991 0.505478 0.499935 -0.134335
C13   C     C_3   0.033591 0.614079 0.447253 -0.240191
C14   C     C_3   0.973726 0.519003 0.372620 -0.347304
C15   C     C_1   0.174159 0.502426 0.502028 0.094477
C16   C     C_1   0.826104 0.503471 0.498989 0.138271
H2    H     H_    0.061918 0.703731 0.405413 0.205313
H3    H     H_    0.050223 0.480276 0.735608 0.210443
H4    H     H_    0.527035 0.119176 0.292442 0.199455
C17   C     C_R   0.499886 0.102212 0.762349 -0.071629
H5    H     H_    0.535825 0.187591 0.782954 0.162750
C18   C     C_R   0.466462 0.035007 0.874316 -0.136608
H6    H     H_    0.472801 0.072899 0.974004 0.162251
C19   C     C_R   0.423305 0.920629 0.857340 -0.108306
H7    H     H_    0.393996 0.870627 0.943064 0.165593
C20   C     C_R   0.421422 0.868013 0.730599 -0.107467
H8    H     H_    0.387747 0.778371 0.720932 0.157133
C21   C     C_R   0.462801 0.930328 0.618881 0.019051
C22   C     C_R   0.490286 0.055350 0.630461 0.120820
C23   C     C_R   0.506840 0.126027 0.509010 -0.216529
C24   C     C_R   0.513041 0.067207 0.385673 -0.289301
C25   C     C_R   0.503124 0.940400 0.380024 0.633617
C26   C     C_R   0.480809 0.870773 0.497217 -0.267233
H9    H     H_    0.597347 0.640244 0.119886 0.176634
C27   C     C_R   0.386608 0.338370 0.150450 -0.145788
H10   H     H_    0.384213 0.332786 0.257020 0.228720
C28   C     C_R   0.328636 0.258397 0.088389 -0.292394
H11   H     H_    0.285556 0.197160 0.148068 0.210792
C29   C     C_R   0.326279 0.256125 0.950305 -0.215657
H12   H     H_    0.281307 0.192069 0.902212 0.204659
C30   C     C_R   0.382086 0.332924 0.872481 0.625901
C31   C     C_R   0.442829 0.418753 0.931754 -0.000794
C32   C     C_R   0.443699 0.419807 0.076504 0.099831
N1    N     N_R   0.499210 0.498800 0.142780 -0.113725
C33   C     C_R   0.553536 0.577070 0.068546 -0.045186
H13   H     H_    0.597322 0.640174 0.869827 0.170157
C34   C     C_R   0.553547 0.577040 0.925653 -0.094191
N2    N     N_R   0.499180 0.498720 0.857170 -0.116001
F1    F     F_    0.052762 0.312977 0.355234 -0.611035
F2    F     F_    0.516701 0.886805 0.259768 -0.660421
F3    F     F_    0.373731 0.314294 0.740983 -0.648674
F4    F     F_    0.933095 0.286336 0.607239 -0.593378
N3    N     N_R   0.949985 0.701825 0.652441 0.242684
O9    O     O_R   0.007315 0.774024 0.709190 -0.337938
O10   O     O_R   0.869922 0.723149 0.667210 -0.359571

loop_
_geom_bond_atom_site_label_1
_geom_bond_atom_site_label_2
_geom_bond_distance
_ccdc_geom_bond_type
O4    Zn2   1.974191 S    
C29   C30   1.390709 A    
N1    C33   1.366862 A    
C17   C18   1.395087 A    
C13   C14   1.558663 S    
C6    C10   1.529093 S    
C12   C16   1.429606 S    
C8    C16   1.184148 T    
C23   C24   1.397295 A    
C17   H5    1.077712 S    
C7    C15   1.183836 T    
Zn2   O8    1.979063 S    
H1    C14   1.110126 S    
N3    O9    1.300214 A    
C27   C32   1.410828 A    
C5    C12   1.531354 S    
C29   H12   1.083477 S    
C31   N2    1.397994 A    
C20   C21   1.417991 A    
C30   F3    1.331955 S    
C31   C32   1.437362 A    
C30   C31   1.433681 A    
Zn1   O7    1.974192 S    
H13   C34   1.081758 S    
C20   H8    1.082173 S    
O3    Zn1   1.979063 S    
O4    C2    1.290687 A    
O2    Zn2   1.995900 S    
Zn2   N1    2.026400 S    
C28   C29   1.372246 A    
C22   C23   1.423727 A    
C18   C19   1.388155 A    
C10   C15   1.428224 S    
C33   C34   1.418460 A    
O2    C1    1.304377 A    
C11   C13   1.538634 S    
C9    H3    1.110186 S    
C12   C14   1.542397 S    
C25   C26   1.399948 A    
C5    C9    1.546916 S    
C2    C7    1.397845 S    
O7    C4    1.290725 A    
C27   C28   1.380032 A    
C34   N2    1.365839 A    
Zn2   O6    2.015130 S    
C24   C25   1.366141 A    
C9    C11   1.539485 S    
C21   C26   1.415029 A    
C11   N3    1.457253 S    
C5    C6    1.532108 S    
C13   H2    1.110192 S    
C21   C22   1.397914 A    
C18   H6    1.082915 S    
C9    C10   1.541324 S    
C25   F2    1.359040 S    
O3    C2    1.290942 A    
C6    F1    1.382647 S    
C10   C13   1.540622 S    
Zn1   N2    2.025077 S    
C6    C14   1.544024 S    
Zn1   O5    1.995898 S    
O5    C3    1.292168 A    
C32   N1    1.369886 A    
C28   H11   1.083070 S    
O1    Zn1   2.015131 S    
C5    F4    1.382612 S    
C19   C20   1.392331 A    
C17   C22   1.420877 A    
C27   H10   1.058369 S    
H4    C24   1.084075 S    
C4    C8    1.398436 S    
C3    C26   1.438779 S    
C1    C23   1.441557 S    
C11   C12   1.526300 S    
C19   H7    1.082550 S    
H9    C33   1.081778 S    
O8    C4    1.290993 A    
O1    C1    1.285322 A    
O6    C3    1.295308 A    
N3    O10   1.300288 A    
