data_mof_unit_50735.cif
_audit_creation_date              2012-12-10T17:19:52-0500
_audit_creation_method            fapswitch 2.2
_symmetry_space_group_name_H-M    P1
_symmetry_Int_Tables_number       1
_space_group_crystal_system       triclinic
_cell_length_a                    9.660787
_cell_length_b                    10.801368
_cell_length_c                    15.341144
_cell_angle_alpha                 86.933042
_cell_angle_beta                  74.157117
_cell_angle_gamma                 92.429404
_cell_volume                      1535.1194256

loop_
_atom_site_label
_atom_site_type_symbol
_atom_type_description
_atom_site_fract_x
_atom_site_fract_y
_atom_site_fract_z
_atom_type_partial_charge
C1    C     C_R   0.995673 0.262624 0.503095 0.984339
C2    C     C_R   0.666052 0.472305 0.906716 0.057847
C3    C     C_R   0.749149 0.404164 0.953279 0.031152
C4    C     C_R   0.516585 0.481899 0.949464 -0.018423
C5    C     C_R   0.460029 0.447533 0.043514 0.021059
C6    C     C_R   0.545116 0.376952 0.088313 0.400015
C7    C     C_R   0.688284 0.356882 0.042399 -0.303672
C8    C     C_R   0.419788 0.513769 0.899030 -0.258306
C9    C     C_R   0.273722 0.528672 0.940622 0.394366
C10   C     C_R   0.221228 0.513891 0.036115 0.051051
C11   C     C_R   0.317013 0.478585 0.087868 -0.043804
C12   C     C_R   0.918470 0.501529 0.672241 0.883078
C13   C     C_R   0.075480 0.533889 0.081618 0.451845
C14   C     C_R   0.029251 0.522138 0.176949 -0.333528
C15   C     C_R   0.270181 0.483163 0.182676 -0.128278
C16   C     C_R   0.978907 0.115582 0.672079 0.539270
C17   C     C_R   0.017293 0.054343 0.743477 -0.246354
C18   C     C_R   0.058080 0.933483 0.736967 -0.289207
C19   C     C_R   0.056266 0.868942 0.660091 0.413677
C20   C     C_R   0.021559 0.931364 0.584573 -0.057828
C21   C     C_R   0.996796 0.059644 0.588312 -0.145627
C22   C     C_R   0.984728 0.127727 0.509618 -0.192779
C23   C     C_R   0.000597 0.736705 0.504941 0.880455
C24   C     C_R   0.973789 0.068977 0.432658 0.372354
C25   C     C_R   0.982185 0.940082 0.431181 0.272074
C26   C     C_R   0.006037 0.871303 0.506682 -0.216677
C27   C     C_R   0.713347 0.637676 0.363003 -0.068256
C28   C     C_R   0.685732 0.676067 0.282340 -0.295136
C29   C     C_R   0.546210 0.669648 0.276784 -0.270632
C30   C     C_R   0.434196 0.641305 0.356225 0.562806
C31   C     C_R   0.460109 0.569152 0.431258 0.006317
C32   C     C_R   0.608313 0.568653 0.432684 0.046284
C33   C     C_R   0.544272 0.428554 0.562067 0.416182
C34   C     C_R   0.081924 0.500568 0.327486 0.834699
C35   C     C_R   0.393771 0.432385 0.564295 0.393165
C36   C     C_R   0.872591 0.489862 0.772036 -0.176886
C37   C     C_R   0.126950 0.501306 0.227601 -0.091646
C38   C     C_R   0.891886 0.380357 0.909352 -0.080032
C39   C     C_R   0.951508 0.419567 0.818595 -0.123850
C40   C     C_R   0.736281 0.528675 0.819274 0.357356
Cu1   Cu    Cu3+1 0.140660 0.499990 0.500010 1.063138
Cu2   Cu    Cu3+1 0.859340 0.500010 0.499990 1.022978
H1    H     H_    0.752214 0.301917 0.076228 0.148513
H2    H     H_    0.009311 0.099413 0.805926 0.161284
H3    H     H_    0.085788 0.888024 0.794073 0.176126
H4    H     H_    0.817959 0.663860 0.367735 0.216266
H5    H     H_    0.770870 0.720231 0.226681 0.182897
H6    H     H_    0.346310 0.477915 0.222483 0.209151
H7    H     H_    0.523569 0.713006 0.217218 0.171313
H8    H     H_    0.917708 0.534022 0.211502 0.165053
H9    H     H_    0.955218 0.326098 0.944007 0.149181
H10   H     H_    0.056819 0.390007 0.783812 0.192376
H11   H     H_    0.454158 0.519644 0.825761 0.202136
N1    N     N_R   0.648320 0.501210 0.499140 -0.206609
N2    N     N_R   0.352470 0.501290 0.499110 -0.205307
O1    O     O_R   0.118810 0.319640 0.500010 -0.552773
O2    O     O_R   0.881240 0.319660 0.500000 -0.516703
O3    O     O_R   0.055570 0.499980 0.629840 -0.506802
O4    O     O_R   0.818000 0.500010 0.629830 -0.529518
O5    O     O_R   0.118760 0.680340 0.500000 -0.485868
O6    O     O_R   0.881190 0.680360 0.499990 -0.617008
O7    O     O_R   0.182000 0.499990 0.370170 -0.563560
O8    O     O_R   0.944430 0.500020 0.370160 -0.610535
O9    O     O_3   0.980137 0.566289 0.032718 -0.672792
H12   H     H_    0.884247 0.577544 0.075021 0.314548
O10   O     O_3   0.958798 0.141757 0.358913 -0.732701
H13   H     H_    0.952878 0.089530 0.308871 0.376370
O11   O     O_3   0.911137 0.225321 0.687626 -0.608608
C41   C     C_3   0.765096 0.195738 0.735039 -0.304374
H14   H     H_    0.754139 0.149487 0.803363 0.155038
H15   H     H_    0.710561 0.136980 0.695302 0.179015
H16   H     H_    0.707900 0.282558 0.746202 0.219630
O12   O     O_3   0.092555 0.747070 0.657921 -0.742608
H17   H     H_    0.113724 0.719463 0.715418 0.327017
O13   O     O_3   0.972026 0.884824 0.353574 -0.757300
H18   H     H_    0.025315 0.808084 0.346916 0.318504
O14   O     O_3   0.589052 0.349030 0.620630 -0.719289
H19   H     H_    0.520268 0.275444 0.637851 0.296987
O15   O     O_3   0.314143 0.708092 0.363704 -0.569924
C42   C     C_3   0.348498 0.832788 0.379000 -0.290481
H20   H     H_    0.446179 0.875584 0.327981 0.160776
H21   H     H_    0.361182 0.839031 0.448589 0.185986
H22   H     H_    0.259954 0.890531 0.372440 0.184211
O16   O     O_3   0.287276 0.366991 0.631316 -0.706992
H23   H     H_    0.319325 0.359426 0.687321 0.289376
O17   O     O_3   0.182620 0.561042 0.888653 -0.682144
H24   H     H_    0.236863 0.569173 0.823444 0.308510
O18   O     O_3   0.675152 0.625851 0.783743 -0.735922
H25   H     H_    0.750350 0.674001 0.735277 0.328970
O19   O     O_3   0.482952 0.315779 0.172387 -0.744019
H26   H     H_    0.556845 0.271227 0.193428 0.328018

loop_
_geom_bond_atom_site_label_1
_geom_bond_atom_site_label_2
_ccdc_geom_bond_type
C8    C9    A    
C28   H5    S    
C16   C21   A    
C34   C37   S    
Cu1   Cu2   S    
C19   C20   A    
C4    C8    A    
C29   H7    S    
O14   H19   S    
C5    C6    A    
C15   H6    S    
C28   C29   A    
C1    O1    A    
Cu1   O3    S    
C5    C11   A    
C3    C7    A    
C30   C31   A    
C34   O7    A    
C18   C19   A    
O12   H17   S    
C23   C26   S    
C41   H15   S    
C15   C37   A    
C12   O4    A    
C11   C15   A    
Cu1   N2    S    
C3    C38   A    
C16   C17   A    
C16   O11   S    
C7    H1    S    
C12   C36   S    
C9    C10   A    
C24   O10   S    
C12   O3    A    
O10   H13   S    
C1    C22   S    
C21   C22   A    
Cu1   O7    S    
C42   H22   S    
Cu2   O2    S    
C32   N1    A    
C23   O5    A    
C35   N2    A    
C19   O12   S    
C38   C39   A    
C24   C25   A    
C42   H21   S    
O17   H24   S    
O11   C41   S    
C38   H9    S    
C25   C26   A    
C6    O19   S    
C25   O13   S    
C8    H11   S    
C41   H16   S    
C2    C4    A    
O13   H18   S    
Cu1   O1    S    
C29   C30   A    
C1    O2    A    
C9    O17   S    
C31   C32   A    
C36   C40   A    
C20   C21   A    
C17   C18   A    
O16   H23   S    
Cu2   O6    S    
C30   O15   S    
C27   H4    S    
C22   C24   A    
C18   H3    S    
C23   O6    A    
C33   N1    A    
C27   C32   A    
C36   C39   A    
Cu1   O5    S    
C42   H20   S    
C10   C13   A    
Cu2   O4    S    
C35   O16   S    
C6    C7    A    
O9    H12   S    
C40   O18   S    
C2    C3    A    
C17   H2    S    
Cu2   N1    S    
C14   C37   A    
C33   O14   S    
O19   H26   S    
C14   H8    S    
C13   O9    S    
C20   C26   A    
C34   O8    A    
C33   C35   A    
C39   H10   S    
C41   H14   S    
C10   C11   A    
O15   C42   S    
C2    C40   A    
C4    C5    A    
O18   H25   S    
C27   C28   A    
C31   N2    A    
C13   C14   A    
Cu2   O8    S    
