data_mof_unit_53173.cif
_audit_creation_date              2012-12-10T18:50:51-0500
_audit_creation_method            fapswitch 2.2
_symmetry_space_group_name_H-M    P1
_symmetry_Int_Tables_number       1
_space_group_crystal_system       triclinic
_cell_length_a                    10.715954
_cell_length_b                    9.834944
_cell_length_c                    15.758027
_cell_angle_alpha                 89.743069
_cell_angle_beta                  90.109994
_cell_angle_gamma                 90.005649
_cell_volume                      1660.73142518

loop_
_atom_site_label
_atom_site_type_symbol
_atom_type_description
_atom_site_fract_x
_atom_site_fract_y
_atom_site_fract_z
_atom_type_partial_charge
C1    C     C_R   0.259826 0.499993 0.499936 0.874146
C2    C     C_R   0.936024 0.621302 0.483452 -0.168569
C3    C     C_R   0.872551 0.500019 0.500073 -0.014657
C4    C     C_R   0.127398 0.499981 0.499926 -0.013329
C5    C     C_R   0.579445 0.071610 0.551476 -0.066471
C6    C     C_R   0.579435 0.927673 0.551485 -0.066453
C7    C     C_R   0.500022 0.500322 0.338276 0.909850
C8    C     C_R   0.420416 0.928385 0.448548 -0.047614
C9    C     C_R   0.420409 0.072323 0.448554 -0.047769
C10   C     C_R   0.740118 0.500007 0.500056 0.872739
C11   C     C_R   0.499970 0.499691 0.661727 0.889589
C12   C     C_3   0.629429 0.448667 0.951182 -0.451709
C13   C     C_3   0.486762 0.651611 0.047805 0.140237
C14   C     C_3   0.394690 0.407846 0.048959 0.105420
C15   C     C_3   0.398406 0.399943 0.950219 0.230851
C16   C     C_3   0.467163 0.645131 0.950548 0.204810
C17   C     C_1   0.500131 0.498923 0.750406 -0.179958
C18   C     C_3   0.501786 0.502645 0.082794 -0.133206
C19   C     C_3   0.500928 0.499454 0.916903 -0.062506
C20   C     C_3   0.316106 0.187370 0.916132 0.064462
C21   C     C_3   0.350851 0.038931 0.903892 -0.644387
C22   C     C_3   0.645641 0.764889 0.897139 0.121328
C23   C     C_3   0.629712 0.444835 0.049788 0.584930
C24   C     C_3   0.683763 0.909571 0.874569 -0.763370
C25   C     C_1   0.500443 0.498710 0.825562 0.059097
C26   C     C_1   0.501243 0.502268 0.174375 0.205032
C27   C     C_1   0.500639 0.501278 0.249563 -0.064678
C28   C     C_R   0.063928 0.378700 0.516554 -0.181264
C29   C     C_R   0.063854 0.621277 0.483356 -0.165320
C30   C     C_R   0.936098 0.378725 0.516649 -0.174763
Cl1   Cl    Cl    0.364680 0.748571 0.097093 -0.511131
Cl2   Cl    Cl    0.241765 0.455120 0.084722 -0.522740
Cl3   Cl    Cl    0.760866 0.539882 0.089448 -0.553890
Cl4   Cl    Cl    0.655818 0.272984 0.085677 -0.533393
H1    H     H_    0.364642 0.654607 0.940687 0.185184
H2    H     H_    0.112514 0.715499 0.469850 0.160024
H3    H     H_    0.887443 0.284501 0.530159 0.155675
H4    H     H_    0.887310 0.715550 0.470025 0.166114
H5    H     H_    0.642965 0.125906 0.592631 0.125521
H6    H     H_    0.642925 0.872810 0.592668 0.127628
H7    H     H_    0.261803 0.222156 0.859815 0.145017
H8    H     H_    0.256783 0.194728 0.973893 0.190233
H9    H     H_    0.405033 0.001965 0.959547 0.302488
H10   H     H_    0.265044 0.976478 0.897506 0.211199
H11   H     H_    0.408012 0.027412 0.845657 0.250944
H12   H     H_    0.307131 0.434579 0.923068 0.112924
H13   H     H_    0.676009 0.698353 0.844355 0.149728
H14   H     H_    0.695424 0.736825 0.956289 0.175453
H15   H     H_    0.654788 0.980230 0.925692 0.290874
H16   H     H_    0.786656 0.915344 0.867094 0.213528
H17   H     H_    0.638888 0.941227 0.814019 0.240272
H18   H     H_    0.356830 0.874080 0.407446 0.147305
H19   H     H_    0.356815 0.127193 0.407456 0.146493
H20   H     H_    0.407981 0.304031 0.075632 0.208086
H21   H     H_    0.571549 0.710713 0.063161 0.180253
H22   H     H_    0.707410 0.511000 0.926728 0.170775
H23   H     H_    0.648984 0.345702 0.925437 0.256560
H24   H     H_    0.112649 0.284457 0.529985 0.157724
N1    N     N_R   0.499970 0.857200 0.499980 -0.085302
N2    N     N_R   0.499970 0.142800 0.499980 -0.084990
O1    O     O_R   0.316750 0.614620 0.499990 -0.630441
O2    O     O_3   0.514543 0.759933 0.905255 -0.604339
O3    O     O_R   0.316750 0.385380 0.499990 -0.630340
O4    O     O_R   0.499990 0.614720 0.377140 -0.599673
O5    O     O_R   0.499990 0.385280 0.377140 -0.601241
O6    O     O_R   0.683220 0.614710 0.500000 -0.629629
O7    O     O_R   0.683220 0.385290 0.500000 -0.622910
O8    O     O_R   0.499980 0.614620 0.622860 -0.612651
O9    O     O_R   0.499980 0.385380 0.622860 -0.616011
O10   O     O_3   0.426332 0.265127 0.924188 -0.593054
Zn1   Zn    Zn3+2 0.499980 0.653120 0.500000 0.972623
Zn2   Zn    Zn3+2 0.499980 0.346880 0.500000 0.972641

loop_
_geom_bond_atom_site_label_1
_geom_bond_atom_site_label_2
_ccdc_geom_bond_type
C13   H21   S    
O9    Zn2   S    
C22   H14   S    
C11   O9    A    
C15   H12   S    
C28   H24   S    
C22   O2    S    
O5    Zn2   S    
C2    H4    S    
C20   H8    S    
C4    C29   A    
C18   C26   S    
C1    C4    S    
C17   C25   T    
O1    Zn1   S    
C24   H17   S    
C28   C30   A    
C20   H7    S    
C8    N1    A    
C3    C10   S    
C10   O7    A    
C11   O8    A    
C15   C19   S    
C29   H2    S    
C20   O10   S    
C26   C27   T    
C12   H22   S    
C10   O6    A    
C16   O2    S    
C13   C18   S    
O8    Zn1   S    
C6    N1    A    
C12   H23   S    
C1    O3    A    
C3    C30   A    
C4    C28   A    
C2    C3    A    
C21   H11   S    
C5    H5    S    
C16   H1    S    
C16   C19   S    
C5    C6    A    
C19   C25   S    
C22   C24   S    
C7    O4    A    
O4    Zn1   S    
C9    H19   S    
N2    Zn2   S    
C18   C23   S    
C21   H10   S    
C8    H18   S    
C6    H6    S    
C7    C27   S    
O3    Zn2   S    
C12   C19   S    
C20   C21   S    
O7    Zn2   S    
C13   C16   S    
C14   Cl2   S    
C24   H15   S    
C24   H16   S    
C15   O10   S    
C14   C18   S    
C14   C15   S    
C11   C17   S    
C23   Cl4   S    
C12   C23   S    
C5    N2    A    
C14   H20   S    
C2    C29   A    
C21   H9    S    
C7    O5    A    
C13   Cl1   S    
C22   H13   S    
O6    Zn1   S    
C30   H3    S    
N1    Zn1   S    
C8    C9    A    
C23   Cl3   S    
C9    N2    A    
C1    O1    A    
