data_mof_unit_19592.cif
_audit_creation_date              2012-12-10T17:02:48-0500
_audit_creation_method            fapswitch 2.2
_symmetry_space_group_name_H-M    P1
_symmetry_Int_Tables_number       1
_space_group_crystal_system       triclinic
_cell_length_a                    18.910487
_cell_length_b                    18.762051
_cell_length_c                    19.021668
_cell_angle_alpha                 109.381089
_cell_angle_beta                  110.124851
_cell_angle_gamma                 109.09816
_cell_volume                      5182.70968537

loop_
_atom_site_label
_atom_site_type_symbol
_atom_type_description
_atom_site_fract_x
_atom_site_fract_y
_atom_site_fract_z
_atom_type_partial_charge
C1    C     C_R   0.382279 0.381385 0.500278 0.773878
C2    C     C_R   0.335478 0.304287 0.572887 0.034121
C3    C     C_3   0.642490 0.592909 0.959393 -0.019855
C4    C     C_3   0.552389 0.543119 0.945890 -0.281630
C5    C     C_3   0.488891 0.566545 0.897823 -0.819116
C6    C     C_3   0.247747 0.719678 0.301430 0.074291
C7    C     C_3   0.320134 0.720284 0.282049 -0.264267
C8    C     C_3   0.393087 0.726556 0.355420 -0.956682
C9    C     C_3   0.388401 0.949579 0.400234 0.000889
C10   C     C_3   0.440617 0.036183 0.407504 -0.325213
C11   C     C_3   0.527525 0.094490 0.492363 -0.790077
C12   C     C_3   0.971977 0.605382 0.763056 0.080619
C13   C     C_R   0.186335 0.185136 0.498557 -0.117557
C14   C     C_3   0.954014 0.633898 0.695031 -0.355706
C15   C     C_3   0.037956 0.693626 0.704010 -0.908286
C16   C     C_R   0.617316 0.497511 0.619236 0.840075
C17   C     C_R   0.170304 0.188808 0.420518 0.002911
C18   C     C_R   0.231686 0.261703 0.426599 -0.051880
C19   C     C_R   0.315625 0.314267 0.499686 -0.061090
C20   C     C_R   0.095943 0.124217 0.336197 0.428020
C21   C     C_R   0.070436 0.149193 0.273529 -0.300870
C22   C     C_R   0.126562 0.227482 0.285201 0.482007
C23   C     C_R   0.208200 0.280731 0.359075 -0.252735
C24   C     C_3   0.809582 0.500032 0.809712 -0.007283
C25   C     C_R   0.223537 0.481787 0.382855 -0.126809
C26   C     C_R   0.151971 0.480307 0.388967 -0.092446
C27   C     C_R   0.093520 0.490931 0.331467 -0.123209
C28   C     C_R   0.621582 0.618689 0.502267 0.819966
C29   C     C_R   0.104753 0.500049 0.265786 -0.163848
C30   C     C_R   0.173765 0.495389 0.254035 0.083285
C31   C     C_R   0.237265 0.491895 0.317070 0.072243
C32   C     C_R   0.181549 0.495684 0.182268 -0.175990
C33   C     C_R   0.251672 0.491694 0.173385 -0.004034
C34   C     C_R   0.321114 0.501234 0.242586 0.078254
C35   C     C_3   0.849617 0.564524 0.781162 0.366986
C36   C     C_R   0.312701 0.498993 0.313230 -0.201834
C37   C     C_R   0.254667 0.479135 0.096947 -0.221657
C38   C     C_R   0.328580 0.485506 0.092996 0.440439
C39   C     C_R   0.400924 0.505153 0.165036 -0.170143
C40   C     C_R   0.380887 0.500140 0.380786 0.747416
C41   C     C_R   0.397674 0.513226 0.239184 -0.215195
C42   C     C_R   0.615249 0.773537 0.510431 -0.139490
C43   C     C_R   0.619522 0.854100 0.532544 -0.142817
C44   C     C_R   0.692272 0.924444 0.551498 -0.117299
C45   C     C_R   0.758852 0.913147 0.543906 -0.150848
C46   C     C_3   0.753180 0.526860 0.842901 -0.475616
C47   C     C_R   0.754810 0.831147 0.519728 0.061174
C48   C     C_R   0.686362 0.762441 0.511005 0.069637
C49   C     C_R   0.816437 0.816419 0.501990 -0.088204
C50   C     C_R   0.814898 0.736226 0.481003 -0.005453
C51   C     C_R   0.755517 0.670837 0.485825 -0.021134
C52   C     C_3   0.681637 0.404323 0.655237 0.675572
C53   C     C_R   0.689698 0.684766 0.501151 -0.175111
C54   C     C_R   0.872211 0.720491 0.453910 -0.181345
C55   C     C_R   0.872825 0.642848 0.431965 0.416862
C56   C     C_R   0.820289 0.580957 0.441914 -0.208974
C57   C     C_R   0.421438 0.351531 0.643296 -0.174598
C58   C     C_R   0.765974 0.595267 0.472541 0.314951
C59   C     C_R   0.998818 0.380993 0.880936 0.765159
C60   C     C_R   0.878165 0.500777 0.878709 0.762330
C61   C     C_R   0.002048 0.619700 0.119652 0.833216
C62   C     C_R   0.116226 0.499446 0.116435 0.779589
C63   C     C_R   0.995310 0.876739 0.381507 0.838371
C64   C     C_3   0.749654 0.406242 0.731149 -0.372370
C65   C     C_R   0.118972 0.117456 0.498511 0.924434
C66   C     C_R   0.000786 0.120681 0.617818 0.864070
C67   C     C_R   0.881989 0.884313 0.502576 0.785092
C68   C     C_R   0.440486 0.344161 0.716978 -0.247005
C69   C     C_R   0.950822 0.369962 0.716743 -0.219516
C70   C     C_R   0.940422 0.376185 0.643756 -0.211604
C71   C     C_R   0.965306 0.332944 0.591200 0.385805
C72   C     C_R   0.995109 0.277612 0.608222 0.350608
C73   C     C_R   0.992020 0.258798 0.674697 -0.043972
C74   C     C_R   0.979604 0.314075 0.735035 0.019778
C75   C     C_R   0.999054 0.187847 0.683585 -0.119390
C76   C     C_3   0.776249 0.567078 0.715332 -0.447884
C77   C     C_R   0.997023 0.176870 0.753550 0.068416
C78   C     C_R   0.004092 0.244033 0.822261 0.087440
C79   C     C_R   0.373441 0.299606 0.727010 0.378281
C80   C     C_R   0.995523 0.312624 0.812468 -0.120309
C81   C     C_R   0.986163 0.099358 0.756174 -0.138044
C82   C     C_R   0.992405 0.093226 0.828741 -0.113405
C83   C     C_R   0.009280 0.163474 0.900081 -0.142704
C84   C     C_R   0.015850 0.238637 0.897683 -0.141566
C85   C     C_R   0.167280 0.786349 0.271161 0.397859
C86   C     C_R   0.236342 0.873915 0.322634 0.432133
C87   C     C_R   0.224354 0.938548 0.370558 -0.330383
C88   C     C_3   0.678016 0.520161 0.769794 -0.458989
C89   C     C_R   0.147677 0.916647 0.371371 -0.228596
C90   C     C_R   0.287037 0.258847 0.660922 0.358183
C91   C     C_R   0.075150 0.831218 0.314941 -0.017991
C92   C     C_R   0.081893 0.767079 0.256765 -0.093419
C93   C     C_R   0.994946 0.811529 0.312331 -0.128843
C94   C     C_R   0.915854 0.738218 0.237020 -0.001242
C95   C     C_R   0.921809 0.683694 0.169750 -0.037953
C96   C     C_R   0.003000 0.689844 0.185170 -0.119661
C97   C     C_R   0.830098 0.717587 0.221975 0.324771
C98   C     C_R   0.757360 0.657896 0.139940 -0.229725
C99   C     C_R   0.765531 0.616039 0.070269 0.451359
C100  C     C_3   0.685885 0.495925 0.687299 -0.011943
C101  C     C_R   0.268006 0.248380 0.577261 -0.068411
C102  C     C_R   0.846416 0.625763 0.086214 -0.223327
C103  C     C_3   0.107012 0.212187 0.154108 0.036580
C104  C     C_3   0.201514 0.251595 0.174404 -0.377084
C105  C     C_3   0.206962 0.224966 0.092304 -0.843068
C106  C     C_3   0.029851 0.976377 0.234380 0.035869
C107  C     C_3   0.931272 0.919908 0.173677 -0.303198
C108  C     C_3   0.907746 0.847327 0.088241 -0.952702
C109  C     C_3   0.008213 0.665304 0.459336 0.043408
C110  C     C_3   0.065324 0.685154 0.420097 -0.310057
C111  C     C_3   0.159600 0.715815 0.481676 -0.916481
Cl1   Cl    Cl    0.703727 0.375223 0.568231 -0.501015
Cl2   Cl    Cl    0.398948 0.299192 0.825058 -0.525453
Cl3   Cl    Cl    0.210792 0.249564 0.695490 -0.477028
Cl4   Cl    Cl    0.575895 0.317878 0.615038 -0.686203
Cl5   Cl    Cl    0.331065 0.470719 0.997954 -0.565511
Cl6   Cl    Cl    0.727097 0.518569 0.501496 -0.598666
Cl7   Cl    Cl    0.961392 0.352536 0.505820 -0.539314
Cl8   Cl    Cl    0.052387 0.251796 0.557881 -0.521568
Cl9   Cl    Cl    0.801988 0.753861 0.299452 -0.648547
Cu1   Cu    Cu3+1 0.500360 0.438220 0.438540 1.077489
Cu2   Cu    Cu3+1 0.499640 0.561780 0.561460 0.941473
Cu3   Cu    Cu3+1 0.935530 0.438290 0.997340 0.979158
Cu4   Cu    Cu3+1 0.059130 0.561800 0.997250 0.994623
Cu5   Cu    Cu3+1 0.937870 0.000030 0.437890 1.082988
Cu6   Cu    Cu3+1 0.062130 0.000000 0.562130 1.014092
H1    H     H_    0.793729 0.594949 0.898202 0.170284
H2    H     H_    0.142741 0.472450 0.439585 0.167336
H3    H     H_    0.039134 0.492083 0.337807 0.159213
H4    H     H_    0.059296 0.512445 0.226175 0.159161
H5    H     H_    0.199762 0.463272 0.039244 0.173626
H6    H     H_    0.456170 0.529654 0.293585 0.170225
H7    H     H_    0.824084 0.521839 0.428113 0.209069
H8    H     H_    0.716697 0.362416 0.750991 0.196289
H9    H     H_    0.554349 0.720481 0.490710 0.157270
H10   H     H_    0.566191 0.862044 0.535120 0.130641
H11   H     H_    0.695964 0.987241 0.569509 0.137005
H12   H     H_    0.782537 0.632653 0.744233 0.131942
H13   H     H_    0.813130 0.969264 0.556828 0.114811
H14   H     H_    0.915596 0.766555 0.445532 0.187418
H15   H     H_    0.014910 0.158601 0.956503 0.122418
H16   H     H_    0.934396 0.408323 0.757863 0.188655
H17   H     H_    0.917042 0.418406 0.630467 0.233195
H18   H     H_    0.789128 0.380691 0.711445 0.190292
H19   H     H_    0.970147 0.041468 0.701792 0.128613
H20   H     H_    0.984408 0.033773 0.829680 0.130986
H21   H     H_    0.028571 0.291252 0.954887 0.141168
H22   H     H_    0.274799 0.006278 0.408464 0.174566
H23   H     H_    0.892394 0.630890 0.839789 0.061946
H24   H     H_    0.143844 0.970223 0.410978 0.184680
H25   H     H_    0.783647 0.558162 0.658910 0.257054
H26   H     H_    0.693474 0.643751 0.130373 0.181666
H27   H     H_    0.849739 0.589736 0.031034 0.155546
H28   H     H_    0.679773 0.583852 0.793147 0.196634
H29   H     H_    0.615368 0.470905 0.755309 0.200953
H30   H     H_    0.725876 0.483874 0.866256 0.250111
H31   H     H_    0.069196 0.222256 0.102850 0.177875
H32   H     H_    0.076783 0.140402 0.127801 0.114887
H33   H     H_    0.233820 0.323554 0.211395 0.248274
H34   H     H_    0.474668 0.393232 0.641095 0.173840
H35   H     H_    0.236964 0.229839 0.214618 0.213062
H36   H     H_    0.171001 0.152865 0.051196 0.247853
H37   H     H_    0.276038 0.249863 0.109866 0.272991
H38   H     H_    0.179578 0.253582 0.055332 0.262678
H39   H     H_    0.055599 0.933427 0.244430 0.179639
H40   H     H_    0.061040 0.004277 0.202532 0.117636
H41   H     H_    0.901509 0.889915 0.204908 0.250614
H42   H     H_    0.903464 0.960854 0.160396 0.211773
H43   H     H_    0.933538 0.875478 0.053626 0.256609
H44   H     H_    0.835995 0.806142 0.046712 0.253175
H45   H     H_    0.507201 0.377509 0.768563 0.189076
H46   H     H_    0.935000 0.805497 0.100008 0.262532
H47   H     H_    0.016703 0.619612 0.482136 0.170848
H48   H     H_    0.030429 0.727869 0.516324 0.124116
H49   H     H_    0.040107 0.626188 0.358559 0.225704
H50   H     H_    0.062735 0.736916 0.405235 0.230186
H51   H     H_    0.186694 0.776236 0.542757 0.263637
H52   H     H_    0.198785 0.729767 0.450919 0.245243
H53   H     H_    0.164184 0.664481 0.496544 0.262523
H54   H     H_    0.634900 0.584368 0.896273 0.168939
H55   H     H_    0.671633 0.664326 0.002353 0.128661
H56   H     H_    0.008336 0.106232 0.214055 0.150162
H57   H     H_    0.527121 0.472350 0.907788 0.275097
H58   H     H_    0.556569 0.557486 0.009124 0.233219
H59   H     H_    0.512660 0.637338 0.935052 0.248275
H60   H     H_    0.424499 0.529478 0.889582 0.310623
H61   H     H_    0.480990 0.549368 0.832750 0.244332
H62   H     H_    0.216015 0.659583 0.302555 0.135531
H63   H     H_    0.277267 0.773603 0.368512 0.109611
H64   H     H_    0.293766 0.660594 0.221155 0.235839
H65   H     H_    0.347483 0.775993 0.272582 0.253705
H66   H     H_    0.424883 0.789798 0.415144 0.241457
H67   H     H_    0.252168 0.338160 0.363509 0.139776
H68   H     H_    0.442190 0.721734 0.337747 0.272582
H69   H     H_    0.367214 0.673433 0.368625 0.266734
H70   H     H_    0.428271 0.917331 0.405267 0.166497
H71   H     H_    0.377683 0.960998 0.456179 0.131363
H72   H     H_    0.452932 0.023200 0.352703 0.239244
H73   H     H_    0.403001 0.070860 0.403703 0.230127
H74   H     H_    0.516881 0.111250 0.548191 0.272267
H75   H     H_    0.564770 0.155587 0.494515 0.310942
H76   H     H_    0.566413 0.061134 0.497576 0.231534
H77   H     H_    0.017582 0.580393 0.762012 0.178794
H78   H     H_    0.459554 0.513031 0.163351 0.182304
H79   H     H_    0.006332 0.662203 0.829353 0.121313
H80   H     H_    0.913830 0.575442 0.629246 0.275689
H81   H     H_    0.917979 0.669522 0.702512 0.208925
H82   H     H_    0.079343 0.752853 0.769211 0.259264
H83   H     H_    0.022281 0.713784 0.654543 0.249578
H84   H     H_    0.074342 0.658976 0.693881 0.266807
H85   H     H_    0.266754 0.473919 0.430175 0.150295
O1    O     O_R   0.410140 0.357660 0.448100 -0.568059
O2    O     O_R   0.052970 0.909860 0.462770 -0.612395
O3    O     O_R   0.037700 0.090200 0.447550 -0.492993
O4    O     O_R   0.409530 0.462000 0.551910 -0.595894
O5    O     O_R   0.142640 0.090170 0.552470 -0.580163
O6    O     O_R   0.947030 0.090160 0.537260 -0.580039
O7    O     O_R   0.051970 0.090130 0.642170 -0.542067
O8    O     O_R   0.857360 0.909860 0.447560 -0.529937
O9    O     O_R   0.962300 0.909830 0.552480 -0.626358
O10   O     O_R   0.590960 0.447830 0.538760 -0.463792
O11   O     O_R   0.590350 0.552170 0.642570 -0.616178
O12   O     O_R   0.049980 0.462000 0.907580 -0.570251
O13   O     O_R   0.590470 0.538000 0.448090 -0.524782
O14   O     O_R   0.589860 0.642340 0.551900 -0.602226
O15   O     O_R   0.409650 0.447830 0.357430 -0.592876
O16   O     O_R   0.409040 0.552170 0.461240 -0.598614
O17   O     O_R   0.945600 0.357690 0.907660 -0.590693
O18   O     O_3   0.101057 0.255018 0.226783 -0.585085
O19   O     O_3   0.049795 0.038463 0.316145 -0.607732
O20   O     O_3   0.920416 0.624958 0.394575 -0.585476
O21   O     O_3   0.694071 0.556833 0.987811 -0.602344
O22   O     O_3   0.183968 0.720767 0.235465 -0.588337
O23   O     O_R   0.854480 0.447890 0.906670 -0.585228
O24   O     O_3   0.311504 0.894306 0.317751 -0.598993
O25   O     O_3   0.894807 0.535797 0.742628 -0.596093
O26   O     O_R   0.958860 0.552200 0.906600 -0.590995
O27   O     O_R   0.944670 0.538090 0.087010 -0.589140
O28   O     O_R   0.049050 0.642400 0.086940 -0.543653
O29   O     O_R   0.035800 0.447890 0.088000 -0.594634
O30   O     O_R   0.140170 0.552200 0.087920 -0.564311
O31   O     O_R   0.948030 0.909890 0.357850 -0.541409

loop_
_geom_bond_atom_site_label_1
_geom_bond_atom_site_label_2
_ccdc_geom_bond_type
C103  O18   S    
C55   C56   A    
C25   C31   A    
C93   C94   A    
C108  H44   S    
C9    O24   S    
C109  O20   S    
C73   C74   A    
C54   C55   A    
C16   O11   A    
C95   C96   A    
C5    H59   S    
C3    H54   S    
C10   H73   S    
C97   C98   A    
C9    H70   S    
C7    C8    S    
C47   C49   A    
Cu5   O31   S    
C13   C65   S    
C77   C78   A    
C26   C27   A    
C50   C54   A    
C85   O22   S    
C61   O27   A    
C106  H40   S    
C67   O9    A    
C37   C38   A    
C8    H66   S    
C66   O6    A    
C38   C39   A    
C68   H45   S    
C78   C80   A    
C12   H77   S    
C27   C29   A    
C106  C107  S    
C52   Cl1   S    
Cu2   O16   S    
C6    H62   S    
C45   H13   S    
C17   C20   A    
C62   O29   A    
Cu2   O4    S    
C72   Cl8   S    
C8    H69   S    
C18   C19   A    
C11   H75   S    
Cu1   O1    S    
C76   H25   S    
C25   H85   S    
C110  C111  S    
C79   C90   A    
C11   H74   S    
C105  H36   S    
C54   H14   S    
C47   C48   A    
Cu6   O9    S    
C1    O4    A    
C111  H52   S    
C107  C108  S    
C105  H37   S    
C7    H64   S    
C8    H68   S    
C70   C71   A    
C56   C58   A    
C89   C91   A    
C9    C10   S    
C34   C36   A    
C15   H82   S    
C95   C102  A    
C24   C60   S    
Cu3   O27   S    
C109  H48   S    
C68   C79   A    
C24   C64   S    
C74   C80   A    
C14   H81   S    
C1    O1    A    
C111  H53   S    
C73   C75   A    
C7    H65   S    
C16   O10   A    
C94   C95   A    
C34   C41   A    
C5    H60   S    
C56   H7    S    
C10   H72   S    
C110  H49   S    
C104  C105  S    
C82   H20   S    
C85   C92   A    
C9    H71   S    
C81   C82   A    
C46   C88   S    
C45   C47   A    
C92   C96   A    
C21   H56   S    
C107  H41   S    
C35   C76   S    
C2    C57   A    
C24   C35   S    
C1    C19   S    
C87   H22   S    
C18   C23   A    
C61   O28   A    
C64   H8    S    
C55   O20   S    
C46   H1    S    
Cu3   Cu4   S    
C108  H43   S    
C20   O19   S    
C65   O5    A    
C39   C41   A    
C52   C64   S    
C91   C92   A    
C83   H15   S    
Cu4   O28   S    
C86   C87   A    
C103  H31   S    
C42   C48   A    
Cu3   O17   S    
C64   H18   S    
C94   C97   A    
C50   C51   A    
C25   C26   A    
C85   C86   A    
C63   O31   A    
C52   C100  S    
C58   Cl6   S    
C33   C37   A    
Cu1   O15   S    
C106  O19   S    
C32   C33   A    
C42   H9    S    
C51   C53   A    
C11   H76   S    
C88   H28   S    
C3    O21   S    
C43   C44   A    
C106  H39   S    
C90   C101  A    
C29   C30   A    
Cu6   O2    S    
C78   C84   A    
C91   C93   A    
Cu3   O23   S    
C38   Cl5   S    
Cu5   O3    S    
C59   C80   S    
C83   C84   A    
Cu4   O12   S    
C77   C81   A    
C28   O13   A    
C23   H67   S    
C17   C18   A    
C70   H17   S    
C105  H38   S    
C60   O23   A    
C69   C74   A    
C51   C58   A    
C26   H2    S    
C63   O2    A    
C65   O3    A    
C59   O17   A    
C75   C77   A    
C102  H27   S    
Cu1   Cu2   S    
C88   C100  S    
C59   O12   A    
C52   Cl4   S    
C3    H55   S    
C44   H11   S    
Cu5   O8    S    
C39   H78   S    
C89   H24   S    
C57   H34   S    
C12   C14   S    
C82   C83   A    
C81   H19   S    
C79   Cl2   S    
Cu5   Cu6   S    
C27   H3    S    
C49   C50   A    
C104  H33   S    
C76   C100  S    
C42   C43   A    
C5    H61   S    
C57   C68   A    
C13   C101  A    
C3    C4    S    
C104  H35   S    
C36   C40   S    
C44   C45   A    
C62   O30   A    
Cu3   O29   S    
C84   H21   S    
C12   O25   S    
C107  H42   S    
C49   C67   S    
C71   Cl7   S    
C2    C19   A    
C14   C15   S    
C6    O22   S    
C22   C23   A    
C16   C100  S    
C72   C73   A    
C28   O14   A    
C41   H6    S    
C28   C53   S    
C103  H32   S    
C6    C7    S    
C35   O25   S    
C110  H50   S    
C48   C53   A    
C15   H84   S    
C43   H10   S    
C46   H30   S    
C63   C93   S    
C98   H26   S    
C61   C96   S    
C86   O24   S    
C2    C101  A    
C13   C17   A    
Cu6   O5    S    
C24   C46   S    
C12   H79   S    
C40   O16   A    
C14   H80   S    
C69   H16   S    
C32   C62   S    
C71   C72   A    
C66   O7    A    
C109  C110  S    
C76   H12   S    
C30   C32   A    
Cu4   O26   S    
Cu2   O14   S    
C30   C31   A    
C22   O18   S    
C97   Cl9   S    
C108  H46   S    
C88   H29   S    
C66   C75   S    
C6    H63   S    
C67   O8    A    
Cu1   O13   S    
C33   C34   A    
C109  H47   S    
C90   Cl3   S    
C4    H57   S    
C40   O15   A    
C69   C70   A    
C4    H58   S    
C10   C11   S    
C29   H4    S    
C37   H5    S    
C4    C5    S    
C99   C102  A    
C20   C21   A    
C15   H83   S    
C98   C99   A    
Cu2   O11   S    
C103  C104  S    
C111  H51   S    
C87   C89   A    
Cu1   O10   S    
C31   C36   A    
C60   O26   A    
C35   H23   S    
Cu4   O30   S    
C21   C22   A    
C99   O21   S    
Cu6   O7    S    
Cu5   O6    S    
