data_mof_unit_44574.cif
_audit_creation_date              2012-12-10T17:29:22-0500
_audit_creation_method            fapswitch 2.2
_symmetry_space_group_name_H-M    P1
_symmetry_Int_Tables_number       1
_space_group_crystal_system       triclinic
_cell_length_a                    12.039872
_cell_length_b                    12.869425
_cell_length_c                    13.145718
_cell_angle_alpha                 87.071426
_cell_angle_beta                  113.686671
_cell_angle_gamma                 93.244351
_cell_volume                      1861.39933263

loop_
_atom_site_label
_atom_site_type_symbol
_atom_type_description
_atom_site_fract_x
_atom_site_fract_y
_atom_site_fract_z
_atom_type_partial_charge
C1    C     C_R   0.477477 0.299571 0.498236 0.890795
C2    C     C_R   0.612171 0.504909 0.829042 -0.119091
C3    C     C_R   0.536865 0.811575 0.503595 -0.046428
C4    C     C_R   0.567478 0.500736 0.708489 0.860139
C5    C     C_R   0.464874 0.188207 0.499625 -0.054143
C6    C     C_R   0.372798 0.029406 0.539425 -0.223011
C7    C     C_R   0.376104 0.137016 0.529406 -0.203328
C8    C     C_R   0.548048 0.132784 0.476839 -0.286475
C9    C     C_R   0.545762 0.025911 0.486953 0.188500
C10   C     C_R   0.457843 0.973868 0.519046 0.193386
C11   C     C_R   0.455491 0.866940 0.528949 -0.295870
C12   C     C_R   0.561201 0.516623 0.988475 0.084011
C13   C     C_R   0.625751 0.862791 0.474021 -0.201009
C14   C     C_R   0.630359 0.970411 0.465911 -0.223674
C15   C     C_R   0.008790 0.604794 0.405265 -0.326061
C16   C     C_R   0.522863 0.700364 0.502548 0.877278
C17   C     C_R   0.128108 0.596210 0.413157 0.346378
C18   C     C_R   0.156977 0.452154 0.540360 -0.090905
C19   C     C_R   0.036839 0.459813 0.534776 0.087287
C20   C     C_R   0.962386 0.537159 0.465751 0.045502
C21   C     C_R   0.842881 0.546062 0.459232 -0.041897
C22   C     C_R   0.869431 0.404698 0.587719 0.013514
C23   C     C_R   0.540783 0.547121 0.878270 0.085899
C24   C     C_R   0.988891 0.392996 0.596372 -0.313699
C25   C     C_R   0.433318 0.505003 0.291321 0.872748
C26   C     C_R   0.286558 0.623394 0.005028 -0.194432
C27   C     C_R   0.395415 0.522589 0.172412 -0.058210
C28   C     C_R   0.718502 0.454011 0.895189 -0.192842
C29   C     C_R   0.749400 0.438610 0.008393 -0.144072
C30   C     C_R   0.670416 0.467015 0.054704 -0.194201
C31   C     C_3   0.171894 0.677450 0.350255 -0.848476
C32   C     C_R   0.471338 0.536816 0.027668 0.077446
C33   C     C_R   0.373750 0.601283 0.964303 0.173765
C34   C     C_R   0.365876 0.643893 0.862265 -0.253298
C35   C     C_R   0.448451 0.617338 0.819633 -0.199387
C36   C     C_R   0.474630 0.492558 0.127448 -0.258090
C37   C     C_R   0.298515 0.585468 0.110011 -0.202792
H1    H     H_    0.235975 0.609169 0.143949 0.147730
H2    H     H_    0.043071 0.332326 0.650830 0.143312
H3    H     H_    0.294550 0.696215 0.814385 0.147717
H4    H     H_    0.214787 0.392691 0.593381 0.136921
H5    H     H_    0.212166 0.673054 0.957647 0.137813
H6    H     H_    0.541593 0.436933 0.174521 0.149242
H7    H     H_    0.775700 0.423265 0.858842 0.154266
H8    H     H_    0.698473 0.451626 0.142786 0.134943
H9    H     H_    0.832220 0.400361 0.059616 0.144973
H10   H     H_    0.439946 0.653297 0.740767 0.168373
H11   H     H_    0.388907 0.826826 0.554695 0.149120
H12   H     H_    0.689115 0.819797 0.454484 0.156023
H13   H     H_    0.094789 0.710593 0.278417 0.198898
H14   H     H_    0.219544 0.742351 0.405479 0.236302
H15   H     H_    0.231036 0.645443 0.315509 0.266103
H16   H     H_    0.304826 0.989845 0.563589 0.137401
H17   H     H_    0.698318 0.009977 0.441732 0.138798
H18   H     H_    0.311768 0.180060 0.547516 0.155915
H19   H     H_    0.615676 0.172814 0.452356 0.158408
H20   H     H_    0.785359 0.605496 0.405740 0.123876
H21   H     H_    0.833509 0.352762 0.635463 0.128417
H22   H     H_    0.952610 0.665765 0.353012 0.149186
N1    N     N_R   0.798200 0.480260 0.519790 -0.097374
N2    N     N_R   0.201820 0.519740 0.480210 -0.098168
O1    O     O_R   0.579910 0.341070 0.505280 -0.626317
O2    O     O_R   0.388440 0.353740 0.492580 -0.619715
O3    O     O_R   0.643280 0.490550 0.663120 -0.613865
O4    O     O_R   0.451810 0.503220 0.650420 -0.613051
O5    O     O_R   0.611560 0.646260 0.507420 -0.622204
O6    O     O_R   0.420090 0.658930 0.494720 -0.629298
O7    O     O_R   0.548190 0.496780 0.349580 -0.615668
O8    O     O_R   0.356720 0.509450 0.336880 -0.624326
Zn1   Zn    Zn3+2 0.627850 0.491540 0.508480 0.937350
Zn2   Zn    Zn3+2 0.372150 0.508460 0.491520 0.933646

loop_
_geom_bond_atom_site_label_1
_geom_bond_atom_site_label_2
_ccdc_geom_bond_type
C6    C10   A    
C5    C8    A    
C2    C4    S    
C9    C14   A    
O1    Zn1   S    
C26   C37   A    
C21   H20   S    
C6    C7    A    
C7    H18   S    
C27   C36   A    
C25   C27   S    
C9    C10   A    
C29   H9    S    
C30   H8    S    
C23   C35   A    
C19   C20   A    
C3    C13   A    
C21   N1    A    
N1    Zn1   S    
C31   H15   S    
C35   H10   S    
C32   C33   A    
C8    H19   S    
C33   C34   A    
O8    Zn2   S    
C18   N2    A    
C16   O6    A    
O5    Zn1   S    
C13   C14   A    
C12   C32   A    
C12   C23   A    
N2    Zn2   S    
C11   H11   S    
C29   C30   A    
C25   O7    A    
C15   H22   S    
C27   C37   A    
C13   H12   S    
C15   C17   A    
C32   C36   A    
C22   C24   A    
C28   C29   A    
C14   H17   S    
C37   H1    S    
O2    Zn2   S    
C19   C24   A    
O6    Zn2   S    
C22   N1    A    
C15   C20   A    
C17   C31   S    
O3    Zn1   S    
C1    C5    S    
C3    C11   A    
C10   C11   A    
C31   H13   S    
C1    O2    A    
C24   H2    S    
C25   O8    A    
C20   C21   A    
C26   H5    S    
C1    O1    A    
O7    Zn1   S    
C34   C35   A    
C22   H21   S    
C18   H4    S    
C2    C23   A    
C5    C7    A    
C18   C19   A    
C4    O3    A    
C4    O4    A    
C34   H3    S    
C16   O5    A    
C2    C28   A    
C6    H16   S    
C17   N2    A    
O4    Zn2   S    
C12   C30   A    
C28   H7    S    
C3    C16   S    
C26   C33   A    
C31   H14   S    
C8    C9    A    
C36   H6    S    
