data_mof_unit_51921.cif
_audit_creation_date              2012-12-10T17:35:04-0500
_audit_creation_method            fapswitch 2.2
_symmetry_space_group_name_H-M    P1
_symmetry_Int_Tables_number       1
_space_group_crystal_system       triclinic
_cell_length_a                    12.069284
_cell_length_b                    12.918123
_cell_length_c                    15.798811
_cell_angle_alpha                 91.253586
_cell_angle_beta                  87.206054
_cell_angle_gamma                 92.936452
_cell_volume                      2456.60972845

loop_
_atom_site_label
_atom_site_type_symbol
_atom_type_description
_atom_site_fract_x
_atom_site_fract_y
_atom_site_fract_z
_atom_type_partial_charge
C1    C     C_R   0.521012 0.699867 0.494257 0.916651
C2    C     C_R   0.531743 0.810865 0.485299 -0.160419
C3    C     C_R   0.647740 0.968662 0.479633 0.184873
C4    C     C_R   0.501160 0.500515 0.661231 0.900144
C5    C     C_R   0.636518 0.861701 0.487853 -0.181582
C6    C     C_R   0.436051 0.867258 0.478639 -0.024396
C7    C     C_R   0.444814 0.973424 0.494513 -0.100123
C8    C     C_R   0.549755 0.024873 0.479170 0.130174
C9    C     C_R   0.551309 0.130290 0.463247 0.086135
C10   C     C_R   0.367782 0.136971 0.537589 0.068501
C11   C     C_R   0.353104 0.029226 0.525840 -0.029293
C12   C     C_3   0.425667 0.590192 0.054905 0.004598
C13   C     C_R   0.949833 0.406649 0.411907 -0.106174
C14   C     C_R   0.835203 0.420219 0.421208 -0.006747
C15   C     C_R   0.858712 0.531010 0.540417 -0.009314
C16   C     C_R   0.478149 0.299680 0.500786 0.917628
C17   C     C_R   0.974708 0.523845 0.532422 0.054255
C18   C     C_R   0.023551 0.464190 0.466122 -0.042156
C19   C     C_R   0.142755 0.466972 0.457114 0.012828
C20   C     C_R   0.157055 0.570948 0.583065 0.122223
C21   C     C_R   0.041463 0.575282 0.590510 -0.305432
C22   C     C_R   0.499061 0.498811 0.338697 0.910015
C23   C     C_3   0.505163 0.498895 0.083258 -0.036455
C24   C     C_3   0.412682 0.577075 0.952608 0.037156
C25   C     C_3   0.632820 0.542125 0.945789 -0.292458
C26   C     C_3   0.634996 0.521380 0.048059 -0.358502
C27   C     C_1   0.497898 0.496933 0.250371 0.013100
C28   C     C_3   0.510116 0.503191 0.916038 -0.057616
C29   C     C_2   0.472398 0.698080 0.087892 1.001210
C30   C     C_2   0.296072 0.531787 0.927956 0.919437
C31   C     C_3   0.308857 0.588835 0.105078 -0.772842
C32   C     C_2   0.516530 0.292776 0.087697 0.955097
C33   C     C_3   0.631837 0.175413 0.395242 -0.801459
C34   C     C_3   0.461641 0.384909 0.047645 -0.025333
C35   C     C_3   0.284066 0.195896 0.592487 -0.726364
C36   C     C_3   0.762554 0.020246 0.484743 -0.812185
C37   C     C_2   0.248138 0.974977 0.556951 0.940512
C38   C     C_2   0.340486 0.824052 0.430621 0.957547
C39   C     C_2   0.196590 0.423933 0.379974 0.981563
C40   C     C_3   0.411309 0.682414 0.904366 -0.761479
C41   C     C_2   0.218000 0.622821 0.652206 0.956205
C42   C     C_2   0.983650 0.324415 0.350976 0.898764
C43   C     C_2   0.728190 0.487676 0.896537 1.025415
C44   C     C_2   0.659903 0.654278 0.916120 0.935727
C45   C     C_3   0.489662 0.386915 0.948862 -0.263895
C46   C     C_2   0.703341 0.608561 0.093348 1.022702
C47   C     C_2   0.703531 0.428315 0.073565 0.911367
C48   C     C_2   0.430594 0.305853 0.891875 1.077859
C49   C     C_3   0.337129 0.356621 0.070793 -0.740797
C50   C     C_1   0.500432 0.496401 0.175239 0.116142
C51   C     C_1   0.508667 0.502479 0.824117 0.157183
C52   C     C_1   0.504829 0.501814 0.749323 -0.014581
C53   C     C_R   0.464126 0.187703 0.499546 -0.074574
H1    H     H_    0.709843 0.817835 0.493847 0.179810
H2    H     H_    0.265406 0.660296 0.091777 0.269256
H3    H     H_    0.547705 0.217374 0.194099 0.358617
H4    H     H_    0.592093 0.234431 0.358415 0.248226
H5    H     H_    0.656554 0.114684 0.348217 0.245190
H6    H     H_    0.706913 0.211138 0.423986 0.242861
H7    H     H_    0.233046 0.145219 0.636514 0.231116
H8    H     H_    0.327622 0.253411 0.634134 0.220691
H9    H     H_    0.227319 0.235353 0.551905 0.284091
H10   H     H_    0.821397 0.967569 0.511302 0.250014
H11   H     H_    0.796465 0.041970 0.420745 0.256980
H12   H     H_    0.003129 0.619020 0.642551 0.184561
H13   H     H_    0.760227 0.089681 0.527356 0.248957
H14   H     H_    0.173827 0.869522 0.636053 0.358327
H15   H     H_    0.191705 0.745221 0.431604 0.346931
H16   H     H_    0.220353 0.433174 0.253593 0.333992
H17   H     H_    0.346971 0.732272 0.933849 0.277085
H18   H     H_    0.487964 0.730598 0.898687 0.289213
H19   H     H_    0.390042 0.669324 0.837207 0.206222
H20   H     H_    0.218907 0.655666 0.777611 0.357830
H21   H     H_    0.977633 0.265574 0.231921 0.359162
H22   H     H_    0.778617 0.383508 0.807217 0.363885
H23   H     H_    0.778847 0.379290 0.379346 0.167418
H24   H     H_    0.688728 0.748608 0.815786 0.360176
H25   H     H_    0.851232 0.689225 0.097905 0.369297
H26   H     H_    0.788682 0.300724 0.042890 0.380219
H27   H     H_    0.436232 0.224826 0.780948 0.342107
H28   H     H_    0.315506 0.380369 0.136875 0.221033
H29   H     H_    0.279582 0.386231 0.026648 0.256704
H30   H     H_    0.317497 0.271433 0.068974 0.267298
H31   H     H_    0.821037 0.577437 0.590868 0.143253
H32   H     H_    0.572442 0.355310 0.941891 0.207190
H33   H     H_    0.517835 0.849111 0.069764 0.383282
H34   H     H_    0.204420 0.434814 0.853753 0.386119
H35   H     H_    0.248252 0.525596 0.091766 0.255606
H36   H     H_    0.316306 0.588638 0.174806 0.256196
N1    N     N_R   0.207800 0.519340 0.515510 -0.174136
N2    N     N_R   0.792190 0.480660 0.484490 -0.118644
O1    O     O_R   0.421690 0.658830 0.504140 -0.554577
O2    O     O_R   0.492224 0.784517 0.037068 -0.775238
O3    O     O_2   0.212049 0.575095 0.952437 -0.582014
O4    O     O_R   0.284651 0.452980 0.866680 -0.804809
O5    O     O_2   0.556171 0.223845 0.043172 -0.590906
O6    O     O_R   0.511594 0.281873 0.175788 -0.795084
O7    O     O_2   0.159740 0.997590 0.529408 -0.585418
O8    O     O_R   0.250570 0.900212 0.619321 -0.740983
O9    O     O_2   0.341302 0.836038 0.354053 -0.578280
O10   O     O_R   0.250433 0.770810 0.471903 -0.751619
O11   O     O_2   0.248122 0.345192 0.382597 -0.571138
O12   O     O_R   0.609320 0.646410 0.494190 -0.628410
O13   O     O_R   0.183991 0.471808 0.302902 -0.799355
O14   O     O_2   0.297930 0.682144 0.637152 -0.546576
O15   O     O_R   0.177064 0.609956 0.735838 -0.794344
O16   O     O_2   0.034023 0.251602 0.374982 -0.582615
O17   O     O_R   0.951489 0.326885 0.267265 -0.743664
O18   O     O_2   0.824703 0.513513 0.910904 -0.521850
O19   O     O_R   0.707894 0.411086 0.834324 -0.772121
O20   O     O_2   0.676246 0.727144 0.965082 -0.565021
O21   O     O_R   0.669868 0.673073 0.828869 -0.821743
O22   O     O_2   0.673027 0.644842 0.162048 -0.579150
O23   O     O_R   0.406150 0.506210 0.627840 -0.621221
O24   O     O_R   0.811236 0.635104 0.061467 -0.708284
O25   O     O_2   0.719364 0.416131 0.148764 -0.574124
O26   O     O_R   0.746527 0.355862 0.015306 -0.763362
O27   O     O_2   0.343392 0.260276 0.914522 -0.597409
O28   O     O_R   0.481277 0.279519 0.813313 -0.778759
O29   O     O_R   0.593770 0.493790 0.617880 -0.605196
O30   O     O_R   0.390680 0.353590 0.505810 -0.595117
O31   O     O_R   0.578310 0.341170 0.495860 -0.629237
O32   O     O_R   0.406230 0.506210 0.382120 -0.622071
O33   O     O_R   0.593850 0.493790 0.372160 -0.600013
O34   O     O_2   0.479695 0.712332 0.164424 -0.564561
Zn1   Zn    Zn3+2 0.374720 0.508290 0.506640 1.028105
Zn2   Zn    Zn3+2 0.625280 0.491710 0.493360 0.989190

loop_
_geom_bond_atom_site_label_1
_geom_bond_atom_site_label_2
_ccdc_geom_bond_type
C33   H5    S    
C40   H18   S    
C29   O34   D    
C12   C29   S    
C15   N2    A    
H25   O24   S    
C23   C50   S    
C25   C43   S    
C20   C41   S    
O29   Zn2   S    
C7    C8    A    
C25   C28   S    
C7    C11   A    
C12   C23   S    
C40   H17   S    
C13   C18   A    
C4    C52   S    
C19   C39   S    
C4    O23   A    
C18   C19   A    
C38   O10   S    
O23   Zn1   S    
C28   C51   S    
C36   H13   S    
H16   O13   S    
C32   O6    S    
C1    C2    S    
C23   C26   S    
C49   H28   S    
O31   Zn2   S    
C11   C37   S    
C10   C53   A    
C16   O31   A    
C16   C53   S    
C13   C42   S    
C8    C9    A    
C34   C49   S    
H34   O4    S    
C6    C38   S    
C10   C35   S    
C43   O19   S    
C36   H10   S    
O12   Zn2   S    
C42   O16   D    
C1    O12   A    
C27   C50   T    
H14   O8    S    
H27   O28   S    
C33   H6    S    
C13   C14   A    
C9    C33   S    
C2    C6    A    
H3    O6    S    
C25   C44   S    
C37   O7    D    
C41   O14   D    
C48   O28   S    
C47   O25   D    
C28   C45   S    
C41   O15   S    
C51   C52   T    
C5    H1    S    
C39   O13   S    
H15   O10   S    
C38   O9    D    
C3    C8    A    
O32   Zn1   S    
C48   O27   D    
C31   H36   S    
C25   C26   S    
C20   N1    A    
C17   C21   A    
C35   H7    S    
C32   C34   S    
C49   H29   S    
H24   O21   S    
C45   H32   S    
C16   O30   A    
C30   O4    S    
H33   O2    S    
C23   C34   S    
C17   C18   A    
N1    Zn1   S    
C35   H8    S    
C34   C45   S    
C6    C7    A    
N2    Zn2   S    
C26   C47   S    
O33   Zn2   S    
C44   O21   S    
C32   O5    D    
C1    O1    A    
C22   C27   S    
C12   C31   S    
C2    C5    A    
C9    C53   A    
C37   O8    S    
C39   O11   D    
C22   O32   A    
C45   C48   S    
C15   C17   A    
H22   O19   S    
C33   H4    S    
C31   H35   S    
C40   H19   S    
C46   O22   D    
C21   H12   S    
C24   C28   S    
C3    C5    A    
O1    Zn1   S    
C22   O33   A    
C15   H31   S    
C12   C24   S    
C49   H30   S    
O30   Zn1   S    
C30   O3    D    
C19   N1    A    
C29   O2    S    
H20   O15   S    
C46   O24   S    
C3    C36   S    
H26   O26   S    
C24   C40   S    
C35   H9    S    
C24   C30   S    
C14   N2    A    
C10   C11   A    
C26   C46   S    
H21   O17   S    
C44   O20   D    
C47   O26   S    
C20   C21   A    
C4    O29   A    
C43   O18   D    
C31   H2    S    
C36   H11   S    
C42   O17   S    
C14   H23   S    
