data_mof_unit_58312.cif
_audit_creation_date              2012-12-10T17:26:07-0500
_audit_creation_method            fapswitch 2.2
_symmetry_space_group_name_H-M    P1
_symmetry_Int_Tables_number       1
_space_group_crystal_system       triclinic
_cell_length_a                    38.605895
_cell_length_b                    21.799715
_cell_length_c                    21.695135
_cell_angle_alpha                 90.102146
_cell_angle_beta                  124.480942
_cell_angle_gamma                 89.880734
_cell_volume                      15050.7694328

loop_
_atom_site_label
_atom_site_type_symbol
_atom_type_description
_atom_site_fract_x
_atom_site_fract_y
_atom_site_fract_z
_atom_type_partial_charge
C1    C     C_R   0.999729 0.999966 0.619466 1.059340
C2    C     C_R   0.000404 0.999804 0.380725 1.069320
C3    C     C_R   0.499285 0.499848 0.618978 1.068940
C4    C     C_R   0.500547 0.499795 0.380864 1.069568
C5    C     C_3   0.708781 0.994440 0.207789 -0.184937
C6    C     C_3   0.291147 0.995213 0.784814 -0.190971
C7    C     C_3   0.208828 0.495090 0.208004 -0.177741
C8    C     C_3   0.791226 0.493732 0.792133 -0.185315
C9    C     C_3   0.765128 0.978811 0.211928 0.358550
C10   C     C_3   0.235733 0.016490 0.782104 0.338436
C11   C     C_3   0.265125 0.478245 0.212500 0.374292
C12   C     C_3   0.734883 0.477745 0.787773 0.357859
C13   C     C_3   0.736944 0.937391 0.224236 -0.411987
C14   C     C_3   0.263148 0.958162 0.801904 -0.432057
C15   C     C_3   0.236838 0.437738 0.225446 -0.455271
C16   C     C_3   0.763141 0.436608 0.775085 -0.414351
C17   C     C_1   0.837082 0.998264 0.340202 0.178642
C18   C     C_1   0.162783 0.998353 0.656543 0.199195
C19   C     C_1   0.337071 0.498405 0.340384 0.175068
C20   C     C_1   0.662927 0.497822 0.659743 0.179944
C21   C     C_1   0.663281 0.994916 0.162292 0.136699
C22   C     C_1   0.336664 0.995465 0.832582 0.126451
C23   C     C_1   0.163315 0.495357 0.162395 0.117287
C24   C     C_1   0.836730 0.494343 0.837676 0.138216
C25   C     C_R   0.933300 0.939102 0.619814 0.438399
C26   C     C_R   0.069046 0.943916 0.382665 0.456403
C27   C     C_R   0.431384 0.441984 0.617915 0.434184
C28   C     C_R   0.568250 0.441362 0.382048 0.436151
C29   C     C_R   0.908590 0.895922 0.624980 0.485162
C30   C     C_R   0.095792 0.903449 0.379251 0.449831
C31   C     C_R   0.405138 0.400999 0.621970 0.486114
C32   C     C_R   0.594039 0.399371 0.377996 0.485055
C33   C     C_R   0.917707 0.879589 0.694519 0.187099
C34   C     C_R   0.087486 0.886567 0.310357 0.181588
C35   C     C_R   0.413552 0.384812 0.691039 0.191524
C36   C     C_R   0.585724 0.383134 0.308984 0.183858
C37   C     C_R   0.947734 0.912896 0.757896 0.480229
C38   C     C_R   0.055725 0.916538 0.245574 0.503623
C39   C     C_R   0.444822 0.415917 0.755235 0.490561
C40   C     C_R   0.555348 0.415484 0.245039 0.491347
C41   C     C_R   0.971857 0.959909 0.753109 -0.188389
C42   C     C_R   0.029790 0.961611 0.248584 -0.186951
C43   C     C_R   0.470412 0.461138 0.751727 -0.183771
C44   C     C_R   0.529695 0.461011 0.248379 -0.180337
C45   C     C_R   0.918896 0.999986 0.419396 1.050489
C46   C     C_R   0.081094 0.999925 0.580828 1.049720
C47   C     C_R   0.418890 0.499990 0.419256 1.053306
C48   C     C_R   0.581109 0.499912 0.580727 1.055954
C49   C     C_R   0.968046 0.966846 0.685228 -0.235247
C50   C     C_R   0.033346 0.968878 0.316259 -0.237111
C51   C     C_R   0.466769 0.468045 0.683939 -0.239431
C52   C     C_R   0.533109 0.467802 0.316020 -0.239441
C53   C     C_R   0.999506 0.000257 0.812878 0.001526
C54   C     C_R   0.000533 0.999729 0.187337 0.019386
C55   C     C_R   0.499397 0.499736 0.812649 0.021211
C56   C     C_R   0.500791 0.499894 0.187564 0.018064
C57   C     C_R   0.027758 0.039307 0.809202 -0.226110
C58   C     C_R   0.970610 0.035943 0.189707 -0.216895
C59   C     C_R   0.529059 0.536171 0.810047 -0.218950
C60   C     C_R   0.471286 0.536808 0.190383 -0.219339
C61   C     C_R   0.031951 0.031128 0.749676 -0.200677
C62   C     C_R   0.966614 0.026646 0.249170 -0.195490
C63   C     C_R   0.532992 0.526916 0.750484 -0.196130
C64   C     C_R   0.467236 0.527689 0.249795 -0.196052
C65   C     C_R   0.999734 0.999631 0.685521 0.010804
C66   C     C_R   0.000349 0.998868 0.314708 0.013193
C67   C     C_R   0.499367 0.498847 0.685058 0.011694
C68   C     C_R   0.500546 0.498848 0.314882 0.006467
C69   C     C_R   0.053159 0.084734 0.863892 0.503698
C70   C     C_R   0.943374 0.079453 0.133906 0.490589
C71   C     C_R   0.556160 0.579805 0.865800 0.489679
C72   C     C_R   0.444460 0.580861 0.134969 0.486068
C73   C     C_R   0.086896 0.111154 0.866733 0.429925
C74   C     C_R   0.907809 0.100907 0.128985 0.447246
C75   C     C_R   0.591589 0.601448 0.870559 0.448518
C76   C     C_R   0.409269 0.603415 0.130568 0.453656
C77   C     C_R   0.095475 0.094601 0.814710 0.219109
C78   C     C_R   0.899519 0.081893 0.180612 0.240611
C79   C     C_R   0.599893 0.582441 0.818874 0.240292
C80   C     C_R   0.400851 0.584780 0.182140 0.240104
C81   C     C_R   0.068239 0.054816 0.756368 0.426964
C82   C     C_R   0.928934 0.045251 0.240966 0.403303
C83   C     C_R   0.570586 0.545645 0.758592 0.403226
C84   C     C_R   0.429802 0.547258 0.241895 0.397358
C85   C     C_R   0.499298 0.120400 0.999603 0.988826
C86   C     C_R   0.999765 0.620335 0.999833 0.999834
C87   C     C_3   0.735396 0.012091 0.291116 0.292920
C88   C     C_3   0.263490 0.975666 0.702145 0.301237
C89   C     C_3   0.235388 0.513557 0.291067 0.297033
C90   C     C_3   0.764610 0.511834 0.708979 0.292910
C91   C     C_R   0.581224 0.998359 0.081202 0.959506
C92   C     C_R   0.418740 0.999049 0.918500 0.956329
C93   C     C_R   0.081232 0.498387 0.081211 0.965733
C94   C     C_R   0.918780 0.498276 0.918798 0.960557
C95   C     C_R   0.500151 0.879918 0.000165 1.017998
C96   C     C_R   0.999932 0.379930 0.999868 1.014367
C97   C     C_R   0.999913 0.120044 0.999663 1.153352
C98   C     C_R   0.499998 0.620059 0.000098 1.145709
C99   C     C_R   0.999870 0.000259 0.879502 1.171941
C100  C     C_R   0.000147 0.000130 0.120581 1.168073
C101  C     C_R   0.499845 0.500241 0.879432 1.166844
C102  C     C_R   0.500202 0.500298 0.120629 1.177018
C103  C     C_R   0.000043 0.879938 0.999808 1.171488
C104  C     C_R   0.499979 0.380004 0.999385 1.175111
C105  C     C_R   0.557329 0.189929 0.980850 0.342264
C106  C     C_R   0.447893 0.191122 0.036618 0.323030
C107  C     C_R   0.060094 0.689552 0.987005 0.339717
C108  C     C_R   0.940284 0.691039 0.014996 0.340178
C109  C     C_R   0.572856 0.218328 0.943455 0.452064
C110  C     C_R   0.437496 0.221026 0.081367 0.439041
C111  C     C_R   0.077658 0.718187 0.953228 0.454822
C112  C     C_R   0.923566 0.720379 0.050052 0.456944
C113  C     C_R   0.067428 0.778719 0.929474 0.243363
C114  C     C_R   0.934850 0.780591 0.074958 0.238741
C115  C     C_R   0.561567 0.278519 0.918690 0.237492
C116  C     C_R   0.446726 0.282672 0.098407 0.246531
C117  C     C_R   0.040399 0.811135 0.941554 0.423914
C118  C     C_R   0.961423 0.812260 0.061375 0.427475
C119  C     C_R   0.536170 0.310977 0.934582 0.425585
C120  C     C_R   0.466834 0.314392 0.071282 0.417141
C121  C     C_R   0.022011 0.782137 0.975140 -0.185152
C122  C     C_R   0.978600 0.782735 0.025860 -0.180660
C123  C     C_R   0.519801 0.282111 0.971757 -0.182936
C124  C     C_R   0.481003 0.283529 0.031453 -0.188208
C125  C     C_3   0.763737 0.956017 0.307941 0.572787
C126  C     C_3   0.235384 0.939208 0.718386 0.586030
C127  C     C_3   0.263629 0.457192 0.308856 0.552973
C128  C     C_3   0.736341 0.455700 0.691562 0.572810
C129  C     C_R   0.525238 0.218837 0.983928 -0.222254
C130  C     C_R   0.475858 0.219650 0.022238 -0.197735
C131  C     C_R   0.027113 0.718705 0.987001 -0.224302
C132  C     C_R   0.973072 0.719369 0.013871 -0.218656
C133  C     C_R   0.000187 0.814169 0.000165 0.008847
C134  C     C_R   0.499836 0.314344 0.000058 -0.003825
C135  C     C_R   0.499705 0.187043 0.001221 -0.033043
C136  C     C_R   0.999908 0.686895 0.000126 -0.037318
C137  C     C_R   0.433183 0.808198 0.865752 0.372925
C138  C     C_R   0.566469 0.808281 0.135940 0.367372
C139  C     C_R   0.933252 0.308605 0.864334 0.367634
C140  C     C_R   0.066513 0.308143 0.134537 0.311359
C141  C     C_R   0.400936 0.770595 0.808149 0.278818
C142  C     C_R   0.598342 0.770853 0.194561 0.278232
C143  C     C_R   0.901083 0.271459 0.805942 0.278727
C144  C     C_R   0.097823 0.269249 0.191329 0.259522
C145  C     C_R   0.910254 0.208878 0.803491 0.220553
C146  C     C_R   0.087754 0.208994 0.195660 0.281440
C147  C     C_R   0.410653 0.708378 0.804970 0.217269
C148  C     C_R   0.588899 0.708402 0.196556 0.221169
C149  C     C_R   0.948543 0.185710 0.862915 0.479694
C150  C     C_R   0.049841 0.185409 0.136410 0.450327
C151  C     C_R   0.449367 0.685856 0.863806 0.478946
C152  C     C_R   0.550599 0.685648 0.136913 0.479075
C153  C     C_R   0.972322 0.217405 0.931803 -0.167169
C154  C     C_R   0.026482 0.217263 0.067339 -0.174893
C155  C     C_R   0.472901 0.717450 0.932705 -0.167899
C156  C     C_R   0.527187 0.717383 0.068120 -0.167899
C157  C     C_R   0.468623 0.781154 0.933240 -0.157398
C158  C     C_R   0.531459 0.781142 0.067815 -0.158387
C159  C     C_R   0.968275 0.281257 0.932231 -0.160862
C160  C     C_R   0.031022 0.281176 0.066813 -0.147325
C161  C     C_R   0.999591 0.186119 0.999543 0.007291
C162  C     C_R   0.500046 0.686176 0.000312 0.008184
C163  C     C_1   0.874519 0.999575 0.376529 -0.046052
C164  C     C_1   0.125403 0.999457 0.622031 -0.033350
C165  C     C_1   0.374510 0.499609 0.376540 -0.048899
C166  C     C_1   0.625489 0.499308 0.623515 -0.045850
C167  C     C_R   0.500152 0.813567 0.000358 -0.038515
C168  C     C_R   0.999761 0.313606 0.999562 -0.036628
C169  C     C_1   0.625749 0.996124 0.125455 -0.153720
C170  C     C_1   0.374202 0.996709 0.872524 -0.179818
C171  C     C_1   0.125773 0.496339 0.125490 -0.161997
C172  C     C_1   0.874260 0.495772 0.874540 -0.150811
C173  C     C_3   0.763290 0.052521 0.277930 0.361851
C174  C     C_3   0.236116 0.033468 0.683597 0.403112
C175  C     C_3   0.263383 0.553169 0.277330 0.362397
C176  C     C_3   0.736656 0.551975 0.722546 0.362997
C177  C     C_3   0.791747 0.996518 0.294939 -0.235538
C178  C     C_3   0.208081 0.996952 0.699826 -0.254005
C179  C     C_3   0.291725 0.496846 0.295235 -0.219550
C180  C     C_3   0.708268 0.495916 0.704941 -0.235007
C181  C     C_3   0.736833 0.034811 0.194692 0.481990
C182  C     C_3   0.263715 0.053105 0.766119 0.504686
C183  C     C_3   0.236977 0.534584 0.194332 0.493663
C184  C     C_3   0.763104 0.533808 0.805599 0.484863
H1    H     H_    0.725515 0.890617 0.201517 0.203369
H2    H     H_    0.274685 0.927463 0.850623 0.204231
H3    H     H_    0.224395 0.391518 0.202326 0.184093
H4    H     H_    0.774674 0.389749 0.797314 0.203156
O1    O     O_R   0.000000 0.051720 0.591600 -0.622337
O2    O     O_R   0.000000 0.051720 0.408400 -0.626050
O3    O     O_R   0.500000 0.551720 0.591600 -0.628764
O4    O     O_R   0.500000 0.551720 0.408400 -0.627093
O5    O     O_R   0.034790 0.999980 0.943120 -0.594577
O6    O     O_R   0.965210 0.999980 0.056880 -0.595354
O7    O     O_R   0.534790 0.499980 0.943120 -0.596753
O8    O     O_R   0.465210 0.499980 0.056880 -0.592128
O9    O     O_R   0.965230 0.000010 0.873570 -0.597877
O10   O     O_R   0.034770 0.000010 0.126430 -0.596526
O11   O     O_R   0.465230 0.500010 0.873570 -0.599198
O12   O     O_R   0.534770 0.500010 0.126430 -0.595585
O13   O     O_R   0.034780 0.908380 0.034660 -0.589651
O14   O     O_R   0.965220 0.908380 0.965340 -0.598207
O15   O     O_R   0.534780 0.408380 0.034660 -0.592652
O16   O     O_R   0.465220 0.408380 0.965340 -0.594250
O17   O     O_R   0.000010 0.948300 0.591530 -0.599495
O18   O     O_R   0.999990 0.948300 0.408470 -0.598203
O19   O     O_R   0.500010 0.448300 0.591530 -0.596210
O20   O     O_R   0.499990 0.448300 0.408470 -0.598902
O21   O     O_R   0.938390 0.051710 0.438380 -0.633938
O22   O     O_R   0.061610 0.051710 0.561620 -0.613900
O23   O     O_R   0.438390 0.551710 0.438380 -0.630442
O24   O     O_R   0.561610 0.551710 0.561620 -0.632135
O25   O     O_R   0.938400 0.948290 0.438320 -0.574010
O26   O     O_R   0.061600 0.948290 0.561680 -0.584327
O27   O     O_R   0.438400 0.448290 0.438320 -0.580074
O28   O     O_R   0.561600 0.448290 0.561680 -0.575647
O29   O     O_R   0.500000 0.091730 0.051650 -0.593358
O30   O     O_R   0.500000 0.091730 0.948350 -0.600709
O31   O     O_R   0.000000 0.591730 0.051650 -0.604542
O32   O     O_R   0.000000 0.591730 0.948350 -0.607946
O33   O     O_R   0.561620 0.000120 0.113280 -0.638694
O34   O     O_R   0.438380 0.000120 0.886720 -0.629147
O35   O     O_R   0.061620 0.500120 0.113280 -0.638876
O36   O     O_R   0.938380 0.500120 0.886720 -0.640021
O37   O     O_R   0.561620 0.000020 0.009840 -0.580928
O38   O     O_R   0.438380 0.000020 0.990160 -0.594754
O39   O     O_R   0.061620 0.500020 0.009840 -0.580671
O40   O     O_R   0.938380 0.500020 0.990160 -0.581900
O41   O     O_R   0.500000 0.908540 0.051700 -0.615542
O42   O     O_R   0.500000 0.908540 0.948300 -0.618364
O43   O     O_R   0.000000 0.408540 0.051700 -0.615890
O44   O     O_R   0.000000 0.408540 0.948300 -0.619144
O45   O     O_R   0.034800 0.091580 0.034810 -0.605728
O46   O     O_R   0.965200 0.091580 0.965190 -0.604454
O47   O     O_R   0.534800 0.591580 0.034810 -0.606054
O48   O     O_R   0.465200 0.591580 0.965190 -0.607599
Zn1   Zn    Zn3+2 0.000000 0.069060 0.500000 1.009172
Zn2   Zn    Zn3+2 0.500000 0.569060 0.500000 0.996764
Zn3   Zn    Zn3+2 1.000000 0.930950 0.500000 1.101683
Zn4   Zn    Zn3+2 0.500000 0.430950 0.500000 1.096682
Zn5   Zn    Zn3+2 0.500000 0.000150 0.069020 0.998721
Zn6   Zn    Zn3+2 0.500000 0.000150 0.930980 1.006557
Zn7   Zn    Zn3+2 0.000000 0.500150 0.069020 1.003056
Zn8   Zn    Zn3+2 0.000000 0.500150 0.930980 0.998242
Zn9   Zn    Zn3+2 0.046450 0.999980 0.046400 1.063571
Zn10  Zn    Zn3+2 0.953550 0.999980 0.953600 1.064328
Zn11  Zn    Zn3+2 0.546450 0.499980 0.046400 1.067847
Zn12  Zn    Zn3+2 0.453550 0.499980 0.953600 1.068368
F1    F     F_    0.778503 0.915876 0.367108 -0.606868
F2    F     F_    0.219936 0.880948 0.691896 -0.606809
F3    F     F_    0.278733 0.418072 0.369018 -0.627012
F4    F     F_    0.721624 0.415924 0.631987 -0.606291
O49   O     O_3   0.894948 0.833621 0.699794 -0.565226
C185  C     C_3   0.919135 0.779220 0.722806 0.181734
H5    H     H_    0.949229 0.785320 0.778728 0.174955
H6    H     H_    0.926149 0.765516 0.681390 0.141301
C186  C     C_3   0.894286 0.727797 0.728436 -0.339591
H7    H     H_    0.885427 0.742379 0.766787 0.226314
H8    H     H_    0.865036 0.719063 0.672370 0.241239
C187  C     C_3   0.919948 0.668695 0.757883 -0.968421
H9    H     H_    0.929852 0.653895 0.721044 0.275219
H10   H     H_    0.900508 0.631809 0.758931 0.266841
H11   H     H_    0.948237 0.675675 0.815582 0.272192
O50   O     O_3   0.112446 0.843450 0.306564 -0.579962
C188  C     C_3   0.093277 0.785443 0.293926 0.184314
H12   H     H_    0.060467 0.785858 0.242669 0.165527
H13   H     H_    0.092862 0.771683 0.342967 0.155842
C189  C     C_3   0.118509 0.738189 0.282850 -0.340875
H14   H     H_    0.119413 0.752500 0.234710 0.227517
H15   H     H_    0.151239 0.736497 0.333665 0.237858
C190  C     C_3   0.099038 0.674398 0.267620 -0.978276
H16   H     H_    0.096861 0.659757 0.314331 0.276376
H17   H     H_    0.119031 0.640952 0.262569 0.270110
H18   H     H_    0.067157 0.674321 0.214597 0.272360
O51   O     O_3   0.389006 0.341391 0.695473 -0.567210
C191  C     C_3   0.411187 0.285060 0.721180 0.200113
H19   H     H_    0.445982 0.289433 0.750260 0.135971
H20   H     H_    0.399336 0.254319 0.672197 0.159200
C192  C     C_3   0.403043 0.255420 0.775693 -0.322355
H21   H     H_    0.415781 0.285462 0.825530 0.256504
H22   H     H_    0.368646 0.250360 0.748313 0.241736
C193  C     C_3   0.423803 0.192428 0.801057 -0.932049
H23   H     H_    0.410046 0.160647 0.752618 0.269607
H24   H     H_    0.418582 0.173132 0.842468 0.260406
H25   H     H_    0.458159 0.196165 0.827593 0.269599
O52   O     O_3   0.609352 0.337934 0.304545 -0.566134
C194  C     C_3   0.586191 0.282669 0.282688 0.188021
H26   H     H_    0.555128 0.288104 0.228192 0.169602
H27   H     H_    0.581106 0.267775 0.326134 0.146544
C195  C     C_3   0.610824 0.232828 0.273629 -0.341228
H28   H     H_    0.617103 0.248266 0.232099 0.227123
H29   H     H_    0.641419 0.225267 0.327990 0.241381
C196  C     C_3   0.586507 0.172533 0.247163 -0.967364
H30   H     H_    0.578943 0.156973 0.286980 0.276635
H31   H     H_    0.605953 0.136736 0.244041 0.267176
H32   H     H_    0.556896 0.178282 0.190788 0.270890
F5    F     F_    0.953907 0.895689 0.823339 -0.627346
F6    F     F_    0.049506 0.897394 0.180618 -0.618762
F7    F     F_    0.450646 0.397871 0.820132 -0.625853
F8    F     F_    0.550538 0.398393 0.180640 -0.619830
F9    F     F_    0.044915 0.106168 0.913000 -0.607285
F10   F     F_    0.951601 0.103899 0.086045 -0.600598
F11   F     F_    0.547978 0.604079 0.913892 -0.601132
F12   F     F_    0.452678 0.604645 0.086817 -0.601471
F13   F     F_    0.112194 0.151701 0.921817 -0.609442
F14   F     F_    0.880614 0.139075 0.072437 -0.595738
F15   F     F_    0.618676 0.639726 0.927070 -0.594798
F16   F     F_    0.382487 0.642204 0.074443 -0.587673
F17   F     F_    0.079345 0.036534 0.710084 -0.671047
F18   F     F_    0.918648 0.023890 0.287232 -0.682410
F19   F     F_    0.580973 0.524111 0.712441 -0.682861
F20   F     F_    0.419143 0.525744 0.287592 -0.686871
F21   F     F_    0.417551 0.190425 0.107064 -0.633193
F22   F     F_    0.600586 0.188313 0.934560 -0.603103
F23   F     F_    0.895081 0.691009 0.057269 -0.601003
F24   F     F_    0.106673 0.688263 0.947735 -0.597128
O53   O     O_3   0.577444 0.137761 0.022051 -0.579116
C197  C     C_3   0.605351 0.154295 0.098466 0.010117
H33   H     H_    0.606947 0.115566 0.132884 0.158820
H34   H     H_    0.594713 0.194502 0.115598 0.134235
C198  C     C_3   0.649276 0.166375 0.116944 -0.295357
H35   H     H_    0.658501 0.127278 0.096445 0.310479
H36   H     H_    0.648875 0.208630 0.088018 0.220099
C199  C     C_3   0.681564 0.174274 0.200810 -0.844729
H37   H     H_    0.682848 0.132577 0.231361 0.288275
H38   H     H_    0.673495 0.214534 0.221727 0.241296
H39   H     H_    0.713027 0.182032 0.211912 0.314659
O54   O     O_3   0.428030 0.136549 0.002305 -0.606265
C200  C     C_3   0.385842 0.148539 0.942295 0.113495
H40   H     H_    0.379542 0.122676 0.892881 0.133260
H41   H     H_    0.379531 0.197435 0.923199 0.114746
C201  C     C_3   0.355381 0.125885 0.961752 -0.245968
H42   H     H_    0.336490 0.087386 0.924354 0.192671
H43   H     H_    0.372896 0.107335 0.019541 0.274049
C202  C     C_3   0.325686 0.176515 0.953955 -0.819745
H44   H     H_    0.343712 0.215960 0.990658 0.266333
H45   H     H_    0.305160 0.158585 0.970421 0.236132
H46   H     H_    0.305659 0.192811 0.895247 0.292069
O55   O     O_3   0.079208 0.637129 0.028511 -0.583413
C203  C     C_3   0.106627 0.653679 0.105067 0.009336
H47   H     H_    0.107850 0.614981 0.139222 0.162778
H48   H     H_    0.095590 0.693876 0.121474 0.134581
C204  C     C_3   0.150881 0.665718 0.124905 -0.287586
H49   H     H_    0.160498 0.626430 0.105355 0.311253
H50   H     H_    0.150854 0.707775 0.096096 0.224209
C205  C     C_3   0.182656 0.674190 0.208785 -0.867459
H51   H     H_    0.183348 0.633152 0.239652 0.293223
H52   H     H_    0.174675 0.715225 0.228634 0.241737
H53   H     H_    0.214332 0.681167 0.220587 0.318648
O56   O     O_3   0.920951 0.638283 0.974506 -0.582409
C206  C     C_3   0.893815 0.653817 0.897613 0.008909
H54   H     H_    0.892854 0.614519 0.864337 0.159416
H55   H     H_    0.904880 0.693497 0.880751 0.133638
C207  C     C_3   0.849408 0.666342 0.876763 -0.292822
H56   H     H_    0.839537 0.627516 0.896319 0.309953
H57   H     H_    0.849267 0.708809 0.904970 0.222435
C208  C     C_3   0.818146 0.674091 0.792586 -0.857326
H58   H     H_    0.817320 0.632158 0.762678 0.290869
H59   H     H_    0.826859 0.714039 0.772468 0.242825
H60   H     H_    0.786337 0.682349 0.779802 0.315759
O57   O     O_3   0.084242 0.806334 0.894651 -0.565698
C209  C     C_3   0.115786 0.848835 0.943757 0.182286
H61   H     H_    0.147014 0.827651 0.966432 0.154296
H62   H     H_    0.114930 0.862641 0.992545 0.124052
C210  C     C_3   0.111375 0.906537 0.899891 -0.298760
H63   H     H_    0.116820 0.894748 0.856148 0.238048
H64   H     H_    0.078976 0.925018 0.871857 0.259462
C211  C     C_3   0.142576 0.955834 0.951115 -0.952483
H65   H     H_    0.136035 0.970747 0.992570 0.275895
H66   H     H_    0.139551 0.996161 0.917343 0.278165
H67   H     H_    0.175238 0.938082 0.980984 0.263364
O58   O     O_3   0.921622 0.807317 0.116166 -0.561096
C212  C     C_3   0.888880 0.849456 0.070998 0.143887
H68   H     H_    0.859524 0.824033 0.030211 0.144726
H69   H     H_    0.896518 0.880775 0.039715 0.162926
C213  C     C_3   0.881604 0.888640 0.121236 -0.305208
H70   H     H_    0.871672 0.858678 0.149974 0.239831
H71   H     H_    0.911478 0.911601 0.164494 0.250089
C214  C     C_3   0.848053 0.937517 0.076598 -0.926782
H72   H     H_    0.858329 0.969747 0.050333 0.269102
H73   H     H_    0.842923 0.963926 0.114595 0.317491
H74   H     H_    0.817906 0.915844 0.032450 0.257276
O59   O     O_3   0.574107 0.304833 0.876351 -0.563357
C215  C     C_3   0.607792 0.345637 0.921232 0.145904
H75   H     H_    0.636942 0.319051 0.960316 0.145464
H76   H     H_    0.601509 0.377085 0.954424 0.163977
C216  C     C_3   0.614524 0.384750 0.870400 -0.307702
H77   H     H_    0.623686 0.354639 0.840458 0.239371
H78   H     H_    0.584641 0.408310 0.828156 0.251084
C217  C     C_3   0.648572 0.432985 0.914723 -0.923193
H79   H     H_    0.638942 0.465559 0.941859 0.267736
H80   H     H_    0.653442 0.459144 0.876344 0.318136
H81   H     H_    0.678694 0.410763 0.958175 0.256734
O60   O     O_3   0.437780 0.311246 0.144862 -0.564862
C218  C     C_3   0.401250 0.347560 0.101366 0.138158
H82   H     H_    0.373445 0.317800 0.064600 0.125305
H83   H     H_    0.404436 0.380905 0.066012 0.174153
C219  C     C_3   0.394025 0.383643 0.153644 -0.315843
H84   H     H_    0.386678 0.351260 0.184252 0.236754
H85   H     H_    0.423141 0.408971 0.195261 0.252897
C220  C     C_3   0.358024 0.429462 0.110560 -0.900094
H86   H     H_    0.365990 0.464493 0.083356 0.263370
H87   H     H_    0.352546 0.453068 0.149727 0.324803
H88   H     H_    0.328719 0.405535 0.067146 0.251236
F25   F     F_    0.031984 0.870148 0.918342 -0.654543
F26   F     F_    0.971633 0.870571 0.086760 -0.654633
F27   F     F_    0.527129 0.369900 0.911375 -0.656708
F28   F     F_    0.473999 0.374595 0.088218 -0.660650
O61   O     O_3   0.636938 0.800056 0.244314 -0.630252
C221  C     C_3   0.663836 0.774111 0.316195 0.188143
H89   H     H_    0.693562 0.800738 0.344744 0.173500
H90   H     H_    0.674019 0.727234 0.313905 0.166953
C222  C     C_3   0.646380 0.780590 0.364504 -0.369370
H91   H     H_    0.647928 0.829495 0.380397 0.198994
H92   H     H_    0.612999 0.766152 0.333260 0.250328
C223  C     C_3   0.671728 0.742232 0.435534 -0.871316
H93   H     H_    0.668577 0.692767 0.421064 0.272612
H94   H     H_    0.659679 0.749907 0.470820 0.267044
H95   H     H_    0.705427 0.755382 0.468005 0.262639
O62   O     O_3   0.361882 0.799475 0.760861 -0.615776
C224  C     C_3   0.333409 0.772682 0.690186 0.209502
H96   H     H_    0.303172 0.797406 0.665392 0.166517
H97   H     H_    0.325142 0.725129 0.694292 0.163573
C225  C     C_3   0.347307 0.781451 0.636843 -0.385721
H98   H     H_    0.344523 0.830689 0.621582 0.195393
H99   H     H_    0.380653 0.767862 0.664077 0.254866
C226  C     C_3   0.320183 0.743873 0.565615 -0.895080
H100  H     H_    0.325025 0.694240 0.579225 0.275937
H101  H     H_    0.329337 0.753838 0.526499 0.270350
H102  H     H_    0.286437 0.755488 0.537720 0.256667
O63   O     O_3   0.136354 0.292350 0.247936 -0.602207
C227  C     C_3   0.166036 0.278057 0.231617 0.078413
H103  H     H_    0.159038 0.304471 0.181831 0.142003
H104  H     H_    0.165963 0.228104 0.220466 0.130541
C228  C     C_3   0.209790 0.295551 0.298608 -0.268614
H105  H     H_    0.211855 0.346278 0.304400 0.263769
H106  H     H_    0.215012 0.275733 0.350433 0.252458
C229  C     C_3   0.244036 0.271860 0.289848 -0.877719
H107  H     H_    0.244719 0.220916 0.291078 0.251036
H108  H     H_    0.275109 0.289141 0.336608 0.318682
H109  H     H_    0.238358 0.287552 0.236218 0.243661
O64   O     O_3   0.862567 0.301186 0.756769 -0.631134
C230  C     C_3   0.835000 0.275008 0.685242 0.188407
H110  H     H_    0.805278 0.301702 0.657608 0.174668
H111  H     H_    0.825065 0.228221 0.688238 0.165831
C231  C     C_3   0.851496 0.281151 0.635442 -0.366847
H112  H     H_    0.849633 0.329988 0.619216 0.199694
H113  H     H_    0.884883 0.266777 0.665736 0.249922
C232  C     C_3   0.825617 0.242511 0.564724 -0.871358
H114  H     H_    0.829096 0.193117 0.579494 0.272404
H115  H     H_    0.836958 0.249986 0.528351 0.267127
H116  H     H_    0.791906 0.255572 0.533271 0.263402
O65   O     O_3   0.716165 0.028582 0.327998 -0.628574
C233  C     C_3   0.747129 0.044116 0.402955 0.130927
H117  H     H_    0.764298 0.086090 0.405700 0.190636
H118  H     H_    0.769867 0.005815 0.432317 0.199969
C234  C     C_3   0.725675 0.057008 0.443030 -0.330869
H119  H     H_    0.703701 0.096363 0.415702 0.231626
H120  H     H_    0.707241 0.016104 0.438631 0.239679
C235  C     C_3   0.757695 0.071866 0.525461 -0.963609
H121  H     H_    0.779458 0.032567 0.554045 0.279925
H122  H     H_    0.741160 0.080990 0.552946 0.274618
H123  H     H_    0.776025 0.113208 0.531219 0.263222
O66   O     O_3   0.280205 0.951945 0.663515 -0.608646
C236  C     C_3   0.248882 0.952366 0.585829 0.166882
H124  H     H_    0.244080 0.000061 0.564320 0.197723
H125  H     H_    0.218475 0.933648 0.572488 0.201542
C237  C     C_3   0.263223 0.912955 0.545908 -0.369351
H126  H     H_    0.294475 0.928921 0.561142 0.227904
H127  H     H_    0.266084 0.864565 0.563895 0.234608
C238  C     C_3   0.232000 0.916096 0.461141 -0.889108
H128  H     H_    0.200615 0.899616 0.444503 0.317753
H129  H     H_    0.243145 0.886542 0.433956 0.265828
H130  H     H_    0.229197 0.963948 0.441303 0.260261
O67   O     O_3   0.215685 0.531104 0.326769 -0.635782
C239  C     C_3   0.246196 0.545615 0.402230 0.128120
H131  H     H_    0.265029 0.586008 0.406514 0.188737
H132  H     H_    0.267465 0.505929 0.431993 0.206344
C240  C     C_3   0.223795 0.561338 0.439963 -0.334531
H133  H     H_    0.203628 0.602448 0.412704 0.230955
H134  H     H_    0.203346 0.522367 0.433077 0.243505
C241  C     C_3   0.255054 0.574108 0.523174 -0.955677
H135  H     H_    0.274881 0.533033 0.551698 0.281649
H136  H     H_    0.237818 0.585592 0.548808 0.276534
H137  H     H_    0.275439 0.613391 0.531331 0.260562
O68   O     O_3   0.783910 0.528760 0.672435 -0.630289
C242  C     C_3   0.753007 0.544291 0.597474 0.129181
H138  H     H_    0.734955 0.585315 0.594616 0.190630
H139  H     H_    0.731052 0.505343 0.567532 0.201806
C243  C     C_3   0.774706 0.559353 0.558396 -0.331772
H140  H     H_    0.795962 0.599262 0.586478 0.231375
H141  H     H_    0.793941 0.519411 0.562793 0.239360
C244  C     C_3   0.742837 0.574401 0.475993 -0.962046
H142  H     H_    0.721845 0.534553 0.446659 0.279580
H143  H     H_    0.759558 0.585191 0.449279 0.275340
H144  H     H_    0.723678 0.614787 0.470253 0.263056
O69   O     O_3   0.429528 0.871109 0.854596 -0.604398
C245  C     C_3   0.427191 0.887760 0.788483 0.187049
H145  H     H_    0.429874 0.938231 0.787964 0.179368
H146  H     H_    0.395858 0.877695 0.737454 0.164417
C246  C     C_3   0.462128 0.860147 0.782508 -0.450035
H147  H     H_    0.493530 0.871544 0.833093 0.260467
H148  H     H_    0.459270 0.809431 0.777334 0.213889
C247  C     C_3   0.459231 0.884860 0.713968 -0.937599
H149  H     H_    0.428284 0.873114 0.662240 0.261226
H150  H     H_    0.484382 0.864007 0.710607 0.279875
H151  H     H_    0.463281 0.935464 0.717896 0.263285
O70   O     O_3   0.570000 0.871228 0.146816 -0.608465
C248  C     C_3   0.570782 0.888585 0.211327 0.184745
H152  H     H_    0.567194 0.939005 0.210350 0.178665
H153  H     H_    0.601903 0.879727 0.263472 0.161861
C249  C     C_3   0.535519 0.860410 0.215845 -0.444602
H154  H     H_    0.504308 0.870260 0.163943 0.260896
H155  H     H_    0.539272 0.809869 0.222812 0.211729
C250  C     C_3   0.536571 0.886380 0.282242 -0.940128
H156  H     H_    0.567284 0.876171 0.335274 0.261336
H157  H     H_    0.511240 0.865096 0.284605 0.279654
H158  H     H_    0.531549 0.936809 0.276393 0.263178
O71   O     O_3   0.929995 0.371515 0.853376 -0.607890
C251  C     C_3   0.929176 0.388236 0.788719 0.185124
H159  H     H_    0.932845 0.438612 0.789453 0.178084
H160  H     H_    0.898030 0.379335 0.736645 0.161213
C252  C     C_3   0.964354 0.359363 0.784268 -0.446348
H161  H     H_    0.995596 0.369144 0.836114 0.259998
H162  H     H_    0.960469 0.308823 0.777505 0.211738
C253  C     C_3   0.963326 0.384680 0.717727 -0.938799
H163  H     H_    0.932575 0.374511 0.664764 0.261479
H164  H     H_    0.988593 0.362894 0.715413 0.278983
H165  H     H_    0.968462 0.435071 0.723351 0.263266
O72   O     O_3   0.070893 0.370997 0.146321 -0.623592
C254  C     C_3   0.073502 0.387970 0.212670 0.192915
H166  H     H_    0.072144 0.438608 0.214196 0.170706
H167  H     H_    0.104462 0.376227 0.263962 0.186352
C255  C     C_3   0.037675 0.362711 0.217432 -0.415756
H168  H     H_    0.006653 0.374911 0.166446 0.253849
H169  H     H_    0.039673 0.311946 0.222592 0.226924
C256  C     C_3   0.040253 0.388751 0.285255 -0.920454
H170  H     H_    0.070784 0.376387 0.337517 0.275819
H171  H     H_    0.014485 0.369444 0.287774 0.276444
H172  H     H_    0.036959 0.439481 0.281065 0.257266
O73   O     O_3   0.886444 0.173626 0.739375 -0.634649
C257  C     C_3   0.871578 0.119375 0.753098 0.152650
H173  H     H_    0.838291 0.126542 0.733273 0.118726
H174  H     H_    0.889070 0.105764 0.813113 0.163967
C258  C     C_3   0.873702 0.066675 0.708731 -0.312730
H175  H     H_    0.855064 0.078840 0.648407 0.218148
H176  H     H_    0.906846 0.059412 0.727684 0.262318
C259  C     C_3   0.856641 0.007222 0.718770 -0.915090
H177  H     H_    0.876122 0.992568 0.778231 0.283295
H178  H     H_    0.857440 0.970580 0.684014 0.279828
H179  H     H_    0.823616 0.013560 0.700831 0.256095
O74   O     O_3   0.112624 0.176901 0.262066 -0.573963
C260  C     C_3   0.129018 0.122772 0.251347 0.146174
H180  H     H_    0.162317 0.131314 0.272143 0.125641
H181  H     H_    0.112338 0.107509 0.191928 0.142664
C261  C     C_3   0.127561 0.070852 0.297120 -0.290948
H182  H     H_    0.145747 0.084379 0.357038 0.239784
H183  H     H_    0.094459 0.062572 0.277802 0.254317
C262  C     C_3   0.145967 0.011642 0.289444 -0.939195
H184  H     H_    0.126710 0.995171 0.230660 0.285439
H185  H     H_    0.146177 0.975840 0.325911 0.279434
H186  H     H_    0.178787 0.019144 0.306850 0.255295
O75   O     O_3   0.387022 0.673234 0.740713 -0.633469
C263  C     C_3   0.372713 0.618434 0.754589 0.154627
H187  H     H_    0.340442 0.626067 0.740078 0.119521
H188  H     H_    0.392294 0.602463 0.813766 0.171453
C264  C     C_3   0.371430 0.567541 0.704780 -0.325107
H189  H     H_    0.351366 0.582279 0.645368 0.221116
H190  H     H_    0.403694 0.559118 0.719518 0.255289
C265  C     C_3   0.354004 0.508032 0.713821 -0.911440
H191  H     H_    0.374941 0.490572 0.771921 0.285792
H192  H     H_    0.351958 0.472947 0.674765 0.283618
H193  H     H_    0.322018 0.515618 0.700650 0.259206
O76   O     O_3   0.612515 0.672767 0.260293 -0.632915
C266  C     C_3   0.627779 0.619050 0.246143 0.152339
H194  H     H_    0.660551 0.627412 0.263670 0.119115
H195  H     H_    0.609442 0.604580 0.186331 0.166567
C267  C     C_3   0.627730 0.566442 0.292586 -0.319594
H196  H     H_    0.646880 0.579527 0.352647 0.219093
H197  H     H_    0.595043 0.557826 0.275435 0.257848
C268  C     C_3   0.645545 0.507675 0.282496 -0.913691
H198  H     H_    0.625517 0.491966 0.223456 0.284803
H199  H     H_    0.646407 0.471186 0.318946 0.282048
H200  H     H_    0.678048 0.515438 0.298336 0.256408
F29   F     F_    0.962432 0.132177 0.852108 -0.649160
F30   F     F_    0.036067 0.131871 0.147125 -0.649414
F31   F     F_    0.463877 0.633025 0.852785 -0.648860
F32   F     F_    0.536384 0.632360 0.147274 -0.648981
O77   O     O_3   0.784073 0.963320 0.174272 -0.597665
C269  C     C_3   0.753646 0.943348 0.100581 0.165187
H201  H     H_    0.759056 0.968686 0.062362 0.183328
H202  H     H_    0.720448 0.952755 0.080967 0.150629
C270  C     C_3   0.759432 0.874721 0.094261 -0.382333
H203  H     H_    0.792313 0.865729 0.112640 0.248585
H204  H     H_    0.753543 0.848742 0.131461 0.236488
C271  C     C_3   0.729511 0.851954 0.014143 -0.906034
H205  H     H_    0.696373 0.859469 0.995025 0.273863
H206  H     H_    0.734505 0.802097 0.011529 0.285621
H207  H     H_    0.735473 0.876448 0.976158 0.258959
O78   O     O_3   0.217338 0.039714 0.817994 -0.599743
C272  C     C_3   0.247020 0.042935 0.896148 0.162516
H208  H     H_    0.244570 0.089279 0.914717 0.164937
H209  H     H_    0.280275 0.036945 0.914693 0.116124
C273  C     C_3   0.236193 0.995166 0.934136 -0.337685
H210  H     H_    0.203464 0.002826 0.917176 0.261949
H211  H     H_    0.238198 0.948476 0.915748 0.227970
C274  C     C_3   0.265912 0.999215 0.019097 -0.943087
H212  H     H_    0.298826 0.990935 0.037309 0.268774
H213  H     H_    0.257231 0.963943 0.044923 0.269719
H214  H     H_    0.263661 0.045182 0.038775 0.275313
O79   O     O_3   0.284183 0.461900 0.175258 -0.604602
C275  C     C_3   0.254384 0.436623 0.104135 0.172227
H215  H     H_    0.259708 0.457673 0.063561 0.182112
H216  H     H_    0.221008 0.446556 0.082970 0.149385
C276  C     C_3   0.261307 0.367305 0.105784 -0.396984
H217  H     H_    0.294359 0.358020 0.125407 0.246155
H218  H     H_    0.255796 0.345280 0.145595 0.226334
C277  C     C_3   0.231886 0.338763 0.028581 -0.923372
H219  H     H_    0.198604 0.346493 0.008455 0.274744
H220  H     H_    0.237684 0.288589 0.031727 0.278058
H221  H     H_    0.237572 0.359047 0.988121 0.263172
O80   O     O_3   0.715851 0.461920 0.825114 -0.598442
C278  C     C_3   0.746138 0.440871 0.898325 0.166179
H222  H     H_    0.740630 0.465349 0.937014 0.183599
H223  H     H_    0.779374 0.450398 0.918382 0.150617
C279  C     C_3   0.740231 0.372049 0.902863 -0.385396
H224  H     H_    0.707277 0.362964 0.883902 0.248536
H225  H     H_    0.746266 0.346868 0.865280 0.236254
C280  C     C_3   0.769924 0.348129 0.982469 -0.905109
H226  H     H_    0.803126 0.355767 0.002146 0.274258
H227  H     H_    0.764875 0.298154 0.983784 0.285555
H228  H     H_    0.763777 0.371758 0.020790 0.259104
F33   F     F_    0.723596 0.074085 0.135385 -0.661441
F34   F     F_    0.278054 0.112127 0.789915 -0.661493
F35   F     F_    0.223801 0.573022 0.134327 -0.650982
F36   F     F_    0.776345 0.572712 0.865334 -0.656652
F37   F     F_    0.777621 0.110769 0.306145 -0.676818
F38   F     F_    0.221445 0.072765 0.623702 -0.627146
F39   F     F_    0.278056 0.611379 0.305192 -0.679016
F40   F     F_    0.722170 0.610291 0.694823 -0.677541
O81   O     O_3   0.132338 0.113570 0.824244 -0.561397
C281  C     C_3   0.123892 0.165927 0.779650 0.157273
H229  H     H_    0.113350 0.204613 0.798967 0.147393
H230  H     H_    0.099265 0.156139 0.719598 0.157633
C282  C     C_3   0.164149 0.184747 0.786850 -0.294550
H231  H     H_    0.189404 0.193343 0.846642 0.228134
H232  H     H_    0.174425 0.146855 0.766341 0.277426
C283  C     C_3   0.157499 0.242484 0.741723 -0.934154
H233  H     H_    0.132853 0.234549 0.681515 0.271570
H234  H     H_    0.187263 0.254671 0.748016 0.286895
H235  H     H_    0.147984 0.281429 0.762160 0.262481
O82   O     O_3   0.860900 0.094571 0.167962 -0.556722
C284  C     C_3   0.865451 0.142142 0.216223 0.115853
H236  H     H_    0.875209 0.185327 0.202681 0.143687
H237  H     H_    0.889059 0.130070 0.275954 0.170857
C285  C     C_3   0.823135 0.152575 0.205235 -0.247933
H238  H     H_    0.799228 0.165451 0.146107 0.247965
H239  H     H_    0.812915 0.109315 0.217424 0.277429
C286  C     C_3   0.825815 0.203156 0.256450 -0.881006
H240  H     H_    0.848417 0.190117 0.315973 0.276216
H241  H     H_    0.794417 0.210206 0.246020 0.303279
H242  H     H_    0.836012 0.246909 0.245279 0.244282
O83   O     O_3   0.638467 0.595191 0.831487 -0.555066
C287  C     C_3   0.633736 0.642517 0.782967 0.114157
H243  H     H_    0.623746 0.685756 0.796189 0.142792
H244  H     H_    0.610227 0.630122 0.723297 0.171049
C288  C     C_3   0.676037 0.653069 0.794022 -0.245881
H245  H     H_    0.699832 0.666324 0.853071 0.248172
H246  H     H_    0.686514 0.609753 0.782217 0.277419
C289  C     C_3   0.673153 0.703352 0.742482 -0.881808
H247  H     H_    0.650666 0.689936 0.683043 0.275871
H248  H     H_    0.704541 0.710512 0.752966 0.303969
H249  H     H_    0.662700 0.747152 0.753270 0.243920
O84   O     O_3   0.362387 0.598428 0.169676 -0.551670
C290  C     C_3   0.367610 0.644945 0.219603 0.115925
H250  H     H_    0.377718 0.688372 0.207216 0.142923
H251  H     H_    0.391234 0.631704 0.278901 0.171415
C291  C     C_3   0.325539 0.655627 0.209492 -0.242621
H252  H     H_    0.301657 0.669965 0.150934 0.251014
H253  H     H_    0.314881 0.612079 0.220246 0.276183
C292  C     C_3   0.329008 0.704916 0.262727 -0.885928
H254  H     H_    0.351514 0.690332 0.321691 0.275560
H255  H     H_    0.297759 0.712345 0.252795 0.304059
H256  H     H_    0.339745 0.748887 0.253143 0.244349
F41   F     F_    0.921944 0.954695 0.550341 -0.649680
F42   F     F_    0.079225 0.959512 0.451417 -0.655064
F43   F     F_    0.421012 0.456954 0.548903 -0.652428
F44   F     F_    0.578734 0.456721 0.451069 -0.652610
F45   F     F_    0.876549 0.868156 0.562284 -0.562637
F46   F     F_    0.128996 0.878633 0.443027 -0.607821
F47   F     F_    0.372278 0.375153 0.558625 -0.562787
F48   F     F_    0.626337 0.372566 0.441250 -0.562276

loop_
_geom_bond_atom_site_label_1
_geom_bond_atom_site_label_2
_ccdc_geom_bond_type
C113  O57   S    
C264  H189  S    
C266  H195  S    
C208  H58   S    
C55   C59   A    
C195  C196  S    
C292  H255  S    
C260  H180  S    
C154  C161  A    
C254  H166  S    
C253  H165  S    
C36   O52   S    
C226  H100  S    
C216  C217  S    
O1    Zn1   S    
C12   O80   S    
O34   Zn6   S    
O77   C269  S    
C53   C99   S    
C256  H172  S    
C193  H23   S    
C104  O16   A    
C79   O83   S    
O62   C224  S    
C286  H241  S    
C26   C50   A    
C257  H173  S    
C47   C165  S    
C288  H246  S    
C277  H219  S    
C60   C72   A    
C140  O72   S    
C190  H16   S    
C90   C176  S    
C236  C237  S    
O58   C212  S    
C11   O79   S    
O72   C254  S    
C234  H119  S    
O47   Zn11  S    
C9    C13   S    
O80   C278  S    
C64   C84   A    
C185  H6    S    
C289  H249  S    
C94   C172  S    
C146  C150  A    
C11   C15   S    
C152  C156  A    
O35   Zn7   S    
C199  H37   S    
C232  H115  S    
C70   C74   A    
C45   O25   A    
C96   C168  S    
C128  C180  S    
C151  C155  A    
C77   O81   S    
C5    C13   S    
C263  C264  S    
C13   C125  S    
C265  H193  S    
C7    C15   S    
C139  C159  A    
C222  H92   S    
C15   C127  S    
O8    Zn12  S    
C288  C289  S    
C289  H248  S    
O2    Zn1   S    
C283  H235  S    
C41   C49   A    
C211  H65   S    
C98   C162  S    
C261  H183  S    
C158  C167  A    
C4    O20   A    
C155  C162  A    
C37   F5    S    
O13   Zn9   S    
C123  C134  A    
C27   C31   A    
O75   C263  S    
C140  C144  A    
C28   C32   A    
C290  C291  S    
C271  H205  S    
C16   H4    S    
C284  C285  S    
C248  H153  S    
C30   C34   A    
C90   O68   S    
C217  H80   S    
O37   Zn6   S    
C46   O22   A    
O7    Zn11  S    
C174  F38   S    
C275  C276  S    
C153  C161  A    
C268  H198  S    
C103  O13   A    
O76   C266  S    
C236  H125  S    
C139  O71   S    
C248  C249  S    
C78   C82   A    
O4    Zn2   S    
C287  C288  S    
C249  H154  S    
C273  H211  S    
C245  H145  S    
C30   F46   S    
C124  C130  A    
C111  C113  A    
C86   O32   A    
C80   O84   S    
C22   C170  T    
O19   Zn4   S    
C221  C222  S    
C187  H10   S    
C227  H103  S    
C235  H122  S    
C208  H60   S    
C241  H136  S    
C244  H143  S    
C282  H231  S    
C10   C182  S    
C234  C235  S    
C11   C179  S    
C243  H140  S    
O59   C215  S    
C110  C116  A    
C9    C177  S    
C247  H149  S    
C175  C183  S    
C89   C127  S    
C17   C177  S    
C106  C130  A    
C231  H113  S    
C197  C198  S    
O36   Zn8   S    
C2    O2    A    
C203  H48   S    
C285  H238  S    
C215  H76   S    
C105  C129  A    
C8    C90   S    
C39   C43   A    
C57   C61   A    
C119  C123  A    
C196  H32   S    
C241  H137  S    
C99   O5    A    
C59   C63   A    
C14   C126  S    
C7    C183  S    
C60   C64   A    
C3    O19   A    
C223  H93   S    
C280  H227  S    
C281  H229  S    
C45   C163  S    
C249  H155  S    
C210  H63   S    
O45   Zn9   S    
C125  F1    S    
C199  H39   S    
C31   C35   A    
C156  C158  A    
C27   C51   A    
C284  H237  S    
C126  C178  S    
C278  C279  S    
C192  H22   S    
C119  F27   S    
O56   C206  S    
C230  H111  S    
O60   C218  S    
C141  C147  A    
C202  H44   S    
C61   C65   A    
C98   O48   A    
O78   C272  S    
C106  O54   S    
C198  H35   S    
O6    Zn10  S    
C264  C265  S    
C260  H181  S    
C288  H245  S    
C73   C77   A    
C255  H168  S    
C19   C165  T    
C272  H208  S    
C75   C79   A    
C211  H67   S    
C42   C54   A    
C228  H106  S    
C100  O10   A    
C267  H197  S    
C224  H96   S    
C29   C33   A    
C109  F22   S    
O48   Zn12  S    
C206  H54   S    
C271  H207  S    
C250  H158  S    
C73   F13   S    
C174  C182  S    
C112  C114  A    
C220  H86   S    
C274  H214  S    
O33   Zn5   S    
C226  H101  S    
O73   C257  S    
C104  C134  S    
C6    C182  S    
C64   C68   A    
C254  H167  S    
O21   Zn1   S    
C238  H129  S    
O49   C185  S    
C252  C253  S    
C183  F35   S    
C267  C268  S    
C209  H61   S    
C87   O65   S    
O10   Zn9   S    
C249  C250  S    
C91   C169  S    
C88   C174  S    
C186  H7    S    
C118  C122  A    
C78   O82   S    
C93   O39   A    
C152  F32   S    
C149  C153  A    
C274  H212  S    
C129  C135  A    
C205  H52   S    
C227  C228  S    
C262  H184  S    
O50   C188  S    
C255  C256  S    
C282  C283  S    
C1    C65   S    
C235  H123  S    
C233  H117  S    
C2    O18   A    
C176  F40   S    
C108  O56   S    
C231  C232  S    
C247  H151  S    
C44   C52   A    
C112  F23   S    
C160  C168  A    
C29   F45   S    
C246  H147  S    
C94   O36   A    
C200  H41   S    
O68   C242  S    
C285  C286  S    
C270  H204  S    
C213  H71   S    
C291  H253  S    
C236  H124  S    
C262  H186  S    
O29   Zn5   S    
C120  F28   S    
C62   C66   A    
O28   Zn4   S    
C223  H95   S    
C48   O24   A    
C92   O38   A    
C201  H42   S    
C283  H234  S    
C131  C136  A    
C10   C14   S    
C210  C211  S    
C27   F43   S    
O39   Zn8   S    
C4    C68   S    
O66   C236  S    
C214  H74   S    
C181  F33   S    
C185  C186  S    
C45   O21   A    
C116  C120  A    
C151  F31   S    
C268  H200  S    
C147  C151  A    
C85   O30   A    
C196  H30   S    
O42   Zn6   S    
C6    C14   S    
C50   C66   A    
C138  C158  A    
C114  O58   S    
O63   C227  S    
C132  C136  A    
C198  C199  S    
C233  C234  S    
C275  H216  S    
C23   C171  T    
C276  H218  S    
C51   C67   A    
C189  H14   S    
C272  C273  S    
C188  H13   S    
C41   C53   A    
C221  H89   S    
O11   Zn12  S    
C42   C50   A    
C113  C117  A    
C43   C55   A    
C225  H98   S    
C12   C180  S    
C287  H244  S    
C26   C30   A    
C224  C225  S    
C115  C119  A    
C204  H50   S    
C148  O76   S    
C219  H85   S    
C250  H156  S    
C220  H88   S    
C115  O59   S    
C205  H53   S    
C86   C136  S    
C105  C109  A    
C146  O74   S    
C257  C258  S    
C107  C111  A    
C148  C152  A    
C191  H20   S    
C187  H9    S    
C2    C66   S    
C95   C167  S    
C265  H192  S    
C252  H161  S    
C101  O11   A    
C38   F6    S    
C81   F17   S    
C256  H171  S    
C97   C161  S    
C258  C259  S    
C137  C157  A    
C186  C187  S    
C127  C179  S    
O61   C221  S    
C56   C102  S    
C61   C81   A    
C280  H226  S    
C140  C160  A    
C257  H174  S    
C111  F24   S    
C277  H220  S    
C219  H84   S    
C7    C23   S    
C97   O46   A    
C8    C24   S    
C116  O60   S    
O30   Zn6   S    
C37   C41   A    
C24   C172  T    
C108  C132  A    
C9    C181  S    
C173  C181  S    
C266  H194  S    
C5    C87   S    
C149  F29   S    
C40   C44   A    
O15   Zn11  S    
C191  H19   S    
C18   C178  S    
C193  H25   S    
C8    C16   S    
C232  H114  S    
C246  C247  S    
C242  H138  S    
C39   F7    S    
C76   F16   S    
O64   C230  S    
C243  C244  S    
O24   Zn2   S    
C173  F37   S    
O70   C248  S    
C277  H221  S    
C1    O1    A    
C58   C62   A    
C190  H18   S    
C222  H91   S    
C155  C157  A    
C70   F10   S    
C4    O4    A    
C253  H164  S    
C130  C135  A    
C201  C202  S    
C87   C125  S    
C80   C84   A    
C157  C167  A    
C211  H66   S    
C279  H224  S    
C182  F34   S    
C240  C241  S    
C214  H72   S    
C197  H33   S    
C263  H187  S    
C10   O78   S    
C92   C170  S    
C251  H160  S    
C290  H251  S    
C271  H206  S    
C19   C179  S    
C47   O23   A    
C72   F12   S    
C54   C58   A    
C248  H152  S    
C218  C219  S    
C259  H178  S    
C6    C22   S    
C144  O63   S    
C118  F26   S    
C195  H28   S    
C292  H254  S    
C96   O43   A    
C197  H34   S    
C229  H107  S    
C17   C163  T    
C18   C164  T    
C225  C226  S    
C290  H250  S    
C47   O27   A    
C245  H146  S    
C192  H21   S    
C203  C204  S    
C110  F21   S    
C69   C73   A    
O18   Zn3   S    
C174  C178  S    
C74   F14   S    
C94   O40   A    
O3    Zn2   S    
C227  H104  S    
C62   C82   A    
C266  C267  S    
C83   F19   S    
C208  H59   S    
C244  H142  S    
C95   O42   A    
C25   C29   A    
C234  H120  S    
C243  H141  S    
C187  H11   S    
C12   C16   S    
O12   Zn11  S    
C5    C181  S    
C239  H131  S    
C247  H150  S    
C142  O61   S    
C87   C173  S    
C206  C207  S    
C245  C246  S    
C150  F30   S    
O22   Zn1   S    
C76   C80   A    
C286  H242  S    
C13   H1    S    
O82   C284  S    
C285  H239  S    
C138  C142  A    
C280  H228  S    
C176  C184  S    
O54   C200  S    
C117  F25   S    
C216  H78   S    
C265  H191  S    
C33   C37   A    
C56   C60   A    
C63   C83   A    
C263  H188  S    
C5    C21   S    
C223  H94   S    
C281  H230  S    
C238  H128  S    
C104  O15   A    
C175  F39   S    
C185  H5    S    
C102  O12   A    
C20   C180  S    
C75   F15   S    
C44   C56   A    
O55   C203  S    
C114  C118  A    
C237  C238  S    
C40   F8    S    
C232  H116  S    
C194  C195  S    
C278  H223  S    
C203  H47   S    
C69   F9    S    
C144  C146  A    
C222  C223  S    
C138  O70   S    
C264  H190  S    
C289  H247  S    
C255  H169  S    
C212  C213  S    
C281  C282  S    
C89   C175  S    
C32   C36   A    
C261  H182  S    
C127  F3    S    
C202  H45   S    
O84   C290  S    
O83   C287  S    
C137  C141  A    
C239  H132  S    
C93   C171  S    
C53   C57   A    
O44   Zn8   S    
C193  H24   S    
C58   C70   A    
C240  H133  S    
C95   O41   A    
C213  C214  S    
C250  H157  S    
C202  H46   S    
C218  H82   S    
C274  H213  S    
C217  H79   S    
C124  C134  A    
C20   C166  T    
C34   O50   S    
C126  F2    S    
C137  O69   S    
O26   Zn3   S    
C103  O14   A    
O46   Zn10  S    
C79   C83   A    
C200  C201  S    
C252  H162  S    
C269  C270  S    
C43   C51   A    
C12   C184  S    
O40   Zn7   S    
C209  H62   S    
C88   O66   S    
C184  F36   S    
O14   Zn10  S    
C33   O49   S    
C273  H210  S    
C143  O64   S    
C242  C243  S    
C269  H202  S    
C86   O31   A    
C25   C49   A    
C108  C112  A    
C48   C166  S    
C235  H121  S    
C241  H135  S    
C74   C78   A    
C244  H144  S    
C276  H217  S    
C282  H232  S    
O5    Zn9   S    
C233  H118  S    
O27   Zn4   S    
C284  H236  S    
C229  H109  S    
C239  C240  S    
C145  C149  A    
C101  O7    A    
C209  C210  S    
C204  H49   S    
C48   O28   A    
C231  H112  S    
C89   O67   S    
C218  H83   S    
C200  H40   S    
C35   C39   A    
C278  H222  S    
C72   C76   A    
C215  H75   S    
O20   Zn4   S    
C217  H81   S    
C270  H203  S    
C6    C88   S    
O71   C251  S    
C262  H185  S    
O32   Zn8   S    
C128  F4    S    
C49   C65   A    
C259  H177  S    
C201  H43   S    
C38   C42   A    
C210  H64   S    
O52   C194  S    
C14   H2    S    
C21   C169  T    
C214  H73   S    
C26   F42   S    
C7    C89   S    
C143  C145  A    
O9    Zn10  S    
O41   Zn5   S    
C159  C168  A    
C268  H199  S    
O69   C245  S    
C192  C193  S    
O17   Zn3   S    
C85   O29   A    
C230  C231  S    
C117  C121  A    
C258  H176  S    
C120  C124  A    
C98   O47   A    
C194  H26   S    
C251  H159  S    
C46   O26   A    
C88   C126  S    
C191  C192  S    
C77   C81   A    
C272  H209  S    
C1    O17   A    
C188  H12   S    
C221  H90   S    
C52   C68   A    
C261  C262  S    
C228  C229  S    
C8    C184  S    
C225  H99   S    
C194  H27   S    
C156  C162  A    
C224  H97   S    
C46   C164  S    
C91   O37   A    
C219  C220  S    
C54   C100  S    
O53   C197  S    
C139  C143  A    
C121  C131  A    
C286  H240  S    
C122  C132  A    
C220  H87   S    
C226  H102  S    
C63   C67   A    
O23   Zn2   S    
C71   F11   S    
C10   C178  S    
C142  C148  A    
C36   C40   A    
C254  C255  S    
C11   C183  S    
C35   O51   S    
C141  O62   S    
C93   O35   A    
C238  H130  S    
O67   C239  S    
C242  H139  S    
C269  H201  S    
C28   F44   S    
O38   Zn5   S    
C175  C179  S    
C198  H36   S    
C256  H170  S    
C15   H3    S    
C273  C274  S    
C31   F47   S    
C186  H8    S    
C153  C159  A    
O43   Zn7   S    
C122  C133  A    
C154  C160  A    
C206  H55   S    
C3    O3    A    
C82   F18   S    
C176  C180  S    
C147  O75   S    
O79   C275  S    
C189  C190  S    
C173  C177  S    
C97   O45   A    
C99   O9    A    
C258  H175  S    
C9    O77   S    
C237  H126  S    
C16   C128  S    
O16   Zn12  S    
C85   C135  S    
C199  H38   S    
O74   C260  S    
O51   C191  S    
C237  H127  S    
C207  H56   S    
C207  H57   S    
C246  H148  S    
C125  C177  S    
C291  H252  S    
C292  H256  S    
C91   O33   A    
C215  C216  S    
C105  O53   S    
C84   F20   S    
C270  C271  S    
C213  H70   S    
O81   C281  S    
C106  C110  A    
C190  H17   S    
C34   C38   A    
C259  H179  S    
C3    C67   S    
C189  H15   S    
C283  H233  S    
O25   Zn3   S    
C102  O8    A    
C279  H225  S    
C240  H134  S    
C100  O6    A    
C207  C208  S    
O57   C209  S    
C55   C101  S    
C145  O73   S    
C57   C69   A    
C107  C131  A    
C92   O34   A    
C103  C133  S    
C230  H110  S    
C196  H31   S    
C212  H68   S    
C71   C75   A    
C28   C52   A    
C205  H51   S    
C251  C252  S    
C275  H215  S    
C260  C261  S    
C212  H69   S    
O31   Zn7   S    
C267  H196  S    
C276  C277  S    
C195  H29   S    
C96   O44   A    
O65   C233  S    
C188  C189  S    
C229  H108  S    
C279  C280  S    
C107  O55   S    
C109  C115  A    
C228  H105  S    
C25   F41   S    
C287  H243  S    
C291  C292  S    
C150  C154  A    
C204  C205  S    
C90   C128  S    
C253  H163  S    
C32   F48   S    
C121  C133  A    
C123  C129  A    
C216  H77   S    
C59   C71   A    
