data_mof_unit_18791.cif
_audit_creation_date              2012-12-11T16:45:23-0500
_audit_creation_method            fapswitch 2.2
_symmetry_space_group_name_H-M    P1
_symmetry_Int_Tables_number       1
_space_group_crystal_system       triclinic
_cell_length_a                    19.932101
_cell_length_b                    17.168134
_cell_length_c                    15.359573
_cell_angle_alpha                 89.545753
_cell_angle_beta                  52.422187
_cell_angle_gamma                 89.631556
_cell_volume                      4165.37614558

loop_
_atom_site_label
_atom_site_type_symbol
_atom_type_description
_atom_site_fract_x
_atom_site_fract_y
_atom_site_fract_z
_atom_type_partial_charge
C1    C     C_R   0.875194 0.693632 0.991081 -0.119794
C2    C     C_R   0.149533 0.681924 0.972743 -0.100403
C3    C     C_R   0.375209 0.193636 0.991066 -0.119832
C4    C     C_R   0.649526 0.181928 0.972754 -0.100429
C5    C     C_R   0.898707 0.314725 0.301294 0.029403
C6    C     C_R   0.113243 0.321067 0.688697 0.066968
C7    C     C_R   0.398700 0.814727 0.301297 0.029370
C8    C     C_R   0.613198 0.821058 0.688724 0.066912
C9    C     C_R   0.843227 0.315289 0.938195 0.165957
C10   C     C_R   0.208177 0.345165 0.982382 0.154693
C11   C     C_R   0.343229 0.815287 0.938193 0.165924
C12   C     C_R   0.708187 0.845174 0.982358 0.154698
C13   C     C_R   0.805852 0.639216 0.321863 0.058997
C14   C     C_R   0.174190 0.657424 0.672720 0.052528
C15   C     C_R   0.305834 0.139199 0.321855 0.058961
C16   C     C_R   0.674197 0.157418 0.672719 0.052497
C17   C     C_R   0.688382 0.639909 0.522408 -0.017759
C18   C     C_R   0.288097 0.650653 0.472502 -0.021586
C19   C     C_R   0.188350 0.139890 0.522400 -0.017749
C20   C     C_R   0.788101 0.150652 0.472498 -0.021645
C21   C     C_R   0.726020 0.670728 0.418012 0.075796
C22   C     C_R   0.251620 0.688004 0.572587 0.065103
C23   C     C_R   0.225992 0.170707 0.418000 0.075810
C24   C     C_R   0.751636 0.187990 0.572587 0.065155
C25   C     C_R   0.200395 0.244198 0.408737 -0.185382
C26   C     C_R   0.797178 0.248298 0.576308 -0.205575
C27   C     C_R   0.700402 0.744210 0.408754 -0.185441
C28   C     C_R   0.297157 0.748314 0.576313 -0.205602
C29   C     C_R   0.159677 0.295297 0.496233 0.213383
C30   C     C_R   0.868832 0.279094 0.479296 0.201333
C31   C     C_R   0.659626 0.795287 0.496265 0.213439
C32   C     C_R   0.368816 0.779103 0.479303 0.201326
C33   C     C_R   0.132054 0.268158 0.601409 -0.010799
C34   C     C_R   0.889273 0.255272 0.377939 0.019230
C35   C     C_R   0.631995 0.768146 0.601445 -0.010735
C36   C     C_R   0.389269 0.755275 0.377941 0.019331
C37   C     C_R   0.640016 0.688302 0.613873 0.041564
C38   C     C_R   0.357076 0.683848 0.375504 0.058818
C39   C     C_R   0.140024 0.188301 0.613857 0.041515
C40   C     C_R   0.857069 0.183852 0.375503 0.058792
C41   C     C_3   0.570166 0.629217 0.675575 -0.243738
C42   C     C_3   0.402807 0.606946 0.337479 -0.251493
C43   C     C_3   0.070114 0.129264 0.675582 -0.243600
C44   C     C_3   0.902790 0.106946 0.337444 -0.251485
C45   C     C_R   0.902056 0.301957 0.209774 0.059939
C46   C     C_R   0.103214 0.303785 0.785244 0.053570
C47   C     C_R   0.402051 0.801957 0.209776 0.059930
C48   C     C_R   0.603191 0.803780 0.785258 0.053569
C49   C     C_3   0.623758 0.576097 0.576580 0.046221
C50   C     C_3   0.326100 0.570549 0.441442 0.097177
C51   C     C_3   0.123659 0.076128 0.576602 0.046251
C52   C     C_3   0.826095 0.070544 0.441406 0.097307
C53   C     C_2   0.763587 0.198260 0.991553 -0.203118
C54   C     C_2   0.303838 0.234952 0.909477 -0.193161
C55   C     C_2   0.263612 0.698243 0.991513 -0.203100
C56   C     C_2   0.803798 0.734929 0.909520 -0.193197
C57   C     C_2   0.297950 0.759489 0.923239 -0.189001
C58   C     C_2   0.780728 0.804348 0.959673 -0.177666
C59   C     C_2   0.797943 0.259491 0.923253 -0.189078
C60   C     C_2   0.280715 0.304345 0.959712 -0.177642
C61   C     C_R   0.862358 0.391271 0.900936 -0.151071
C62   C     C_R   0.166839 0.407025 0.054293 -0.121032
C63   C     C_R   0.362360 0.891270 0.900934 -0.151072
C64   C     C_R   0.666847 0.907029 0.054279 -0.121015
C65   C     C_R   0.858778 0.582564 0.316837 0.063688
C66   C     C_R   0.128006 0.593136 0.682164 0.087026
C67   C     C_R   0.358768 0.082558 0.316835 0.063650
C68   C     C_R   0.628006 0.093135 0.682166 0.087003
C69   C     C_R   0.875002 0.300564 0.994298 -0.117487
C70   C     C_R   0.159037 0.320236 0.953184 -0.114910
C71   C     C_R   0.374999 0.800564 0.994302 -0.117475
C72   C     C_R   0.659047 0.820251 0.953158 -0.114921
C73   C     C_R   0.849404 0.669430 0.216658 -0.143560
C74   C     C_R   0.137630 0.682542 0.778350 -0.140822
C75   C     C_R   0.349394 0.169417 0.216651 -0.143547
C76   C     C_R   0.637635 0.182537 0.778350 -0.140828
C77   C     C_R   0.911906 0.393265 0.301221 -0.116576
C78   C     C_R   0.090748 0.397288 0.696998 -0.080984
C79   C     C_R   0.411902 0.893265 0.301222 -0.116610
C80   C     C_R   0.590724 0.897284 0.697014 -0.081007
C81   C     C_R   0.863606 0.601776 0.898885 -0.158978
C82   C     C_R   0.159629 0.589052 0.067524 -0.151448
C83   C     C_R   0.363618 0.101782 0.898870 -0.158970
C84   C     C_R   0.659620 0.089057 0.067539 -0.151458
C85   C     C_R   0.845455 0.678717 0.932505 0.151750
C86   C     C_R   0.196342 0.655914 0.005422 0.158995
C87   C     C_R   0.345474 0.178727 0.932483 0.151747
C88   C     C_R   0.696329 0.155922 0.005444 0.158998
H1    H     H_    0.883838 0.749623 0.014403 0.086849
H2    H     H_    0.151967 0.738385 0.939930 0.082973
H3    H     H_    0.383870 0.249626 0.014372 0.086870
H4    H     H_    0.651958 0.238390 0.939944 0.082987
H5    H     H_    0.561132 0.606114 0.749869 0.145830
H6    H     H_    0.414534 0.585745 0.260951 0.130994
H7    H     H_    0.061054 0.106137 0.749887 0.145800
H8    H     H_    0.914493 0.085766 0.260926 0.130975
H9    H     H_    0.648538 0.525215 0.594299 0.113304
H10   H     H_    0.291140 0.532176 0.423828 0.135359
H11   H     H_    0.148394 0.025217 0.594333 0.113288
H12   H     H_    0.791120 0.032186 0.423803 0.135279
H13   H     H_    0.777624 0.183197 0.047575 0.128700
H14   H     H_    0.280939 0.213793 0.865695 0.126361
H15   H     H_    0.277671 0.683161 0.047508 0.128686
H16   H     H_    0.780832 0.713739 0.865841 0.126361
H17   H     H_    0.283791 0.774006 0.867103 0.135140
H18   H     H_    0.804939 0.826105 0.001571 0.126152
H19   H     H_    0.783800 0.273993 0.867097 0.135146
H20   H     H_    0.304872 0.326079 0.001694 0.126138
H21   H     H_    0.855009 0.419146 0.843789 0.110985
H22   H     H_    0.185013 0.435222 0.099463 0.107420
H23   H     H_    0.355013 0.919144 0.843785 0.110997
H24   H     H_    0.685025 0.935226 0.099444 0.107418
H25   H     H_    0.885808 0.244269 0.014705 0.084256
H26   H     H_    0.170715 0.272239 0.901513 0.088657
H27   H     H_    0.385800 0.744271 0.014719 0.084256
H28   H     H_    0.670742 0.772277 0.901450 0.088673
H29   H     H_    0.829795 0.715113 0.188500 0.108926
H30   H     H_    0.151834 0.735205 0.801420 0.093294
H31   H     H_    0.329782 0.215093 0.188488 0.108931
H32   H     H_    0.651846 0.235197 0.801418 0.093299
H33   H     H_    0.926600 0.420759 0.349783 0.147301
H34   H     H_    0.065289 0.422607 0.658892 0.144052
H35   H     H_    0.426598 0.920757 0.349783 0.147304
H36   H     H_    0.565263 0.922612 0.658926 0.144076
H37   H     H_    0.857668 0.574098 0.840858 0.101242
H38   H     H_    0.174147 0.560756 0.117188 0.104985
H39   H     H_    0.357686 0.074108 0.840836 0.101242
H40   H     H_    0.674133 0.060762 0.117210 0.104989
H41   H     H_    0.222181 0.267028 0.329942 0.154210
H42   H     H_    0.779213 0.270526 0.653492 0.140981
H43   H     H_    0.722197 0.767045 0.329959 0.154215
H44   H     H_    0.279186 0.770547 0.653499 0.140996
N1    N     N_R   0.908660 0.628630 0.995840 -0.043942
N2    N     N_R   0.091340 0.628630 0.004160 -0.044675
N3    N     N_R   0.408660 0.128630 0.995840 -0.043943
N4    N     N_R   0.591340 0.128630 0.004160 -0.044673
N5    N     N_R   0.922310 0.368460 0.151950 -0.057071
N6    N     N_R   0.077690 0.368460 0.848050 -0.056485
N7    N     N_R   0.422310 0.868460 0.151950 -0.057072
N8    N     N_R   0.577690 0.868460 0.848050 -0.056487
N9    N     N_R   0.903470 0.421430 0.936420 -0.043855
N10   N     N_R   0.096530 0.421430 0.063580 -0.042078
N11   N     N_R   0.403470 0.921430 0.936420 -0.043857
N12   N     N_R   0.596530 0.921430 0.063580 -0.042076
N13   N     N_R   0.927500 0.575670 0.211370 -0.059964
N14   N     N_R   0.072500 0.575670 0.788630 -0.056815
N15   N     N_R   0.427500 0.075670 0.211370 -0.059961
N16   N     N_R   0.572500 0.075670 0.788630 -0.056809
N17   N     N_R   0.908660 0.365680 0.995820 -0.048568
N18   N     N_R   0.091340 0.365680 0.004180 -0.053039
N19   N     N_R   0.408660 0.865680 0.995820 -0.048571
N20   N     N_R   0.591340 0.865680 0.004180 -0.053041
N21   N     N_R   0.922310 0.631420 0.151980 -0.052025
N22   N     N_R   0.077690 0.631420 0.848020 -0.047395
N23   N     N_R   0.422310 0.131420 0.151980 -0.052023
N24   N     N_R   0.577690 0.131420 0.848020 -0.047395
N25   N     N_R   0.927500 0.426330 0.211360 -0.050402
N26   N     N_R   0.072500 0.426330 0.788640 -0.050988
N27   N     N_R   0.427500 0.926330 0.211360 -0.050405
N28   N     N_R   0.572500 0.926330 0.788640 -0.050986
N29   N     N_R   0.903470 0.570760 0.936440 -0.041837
N30   N     N_R   0.096530 0.570760 0.063560 -0.042848
N31   N     N_R   0.403470 0.070760 0.936440 -0.041836
N32   N     N_R   0.596530 0.070760 0.063560 -0.042846
Ni1   Ni    Ni4+2 1.000000 0.630300 0.000000 0.215809
Ni2   Ni    Ni4+2 0.500000 0.130300 0.000000 0.215809
Ni3   Ni    Ni4+2 0.000000 0.369700 0.000000 0.207288
Ni4   Ni    Ni4+2 0.500000 0.869700 0.000000 0.207284
Ni5   Ni    Ni4+2 0.988090 0.497570 0.863760 0.219094
Ni6   Ni    Ni4+2 0.011910 0.497570 0.136240 0.228633
Ni7   Ni    Ni4+2 0.488090 0.997570 0.863760 0.219096
Ni8   Ni    Ni4+2 0.511910 0.997570 0.136240 0.228632
I1    I     I_    0.166193 0.411137 0.439572 -0.486989
I2    I     I_    0.948114 0.350573 0.493405 -0.460686
I3    I     I_    0.666075 0.911116 0.439625 -0.486936
I4    I     I_    0.448087 0.850582 0.493431 -0.460589
N33   N     N_3   0.490656 0.656709 0.699511 -0.183852
H45   H     H_    0.501127 0.680244 0.629135 0.193671
H46   H     H_    0.450089 0.609057 0.725383 0.167425
N34   N     N_3   0.478850 0.606684 0.331614 -0.139087
H47   H     H_    0.503882 0.550265 0.310937 0.169782
H48   H     H_    0.523822 0.642198 0.265479 0.133401
N35   N     N_3   0.990625 0.156842 0.699505 -0.183853
H49   H     H_    0.001121 0.180423 0.629121 0.193644
H50   H     H_    0.949993 0.109223 0.725384 0.167429
N36   N     N_3   0.978842 0.106650 0.331549 -0.139046
H51   H     H_    0.003955 0.050267 0.310651 0.169627
H52   H     H_    0.023753 0.142281 0.265563 0.133479
I5    I     I_    0.575374 0.541836 0.489240 -0.382580
I6    I     I_    0.344197 0.516633 0.553559 -0.347335
I7    I     I_    0.075233 0.041951 0.489289 -0.382481
I8    I     I_    0.844231 0.016600 0.553462 -0.347230
N37   N     N_3   0.908823 0.226620 0.166759 -0.223932
H53   H     H_    0.960255 0.226211 0.083998 0.087711
H54   H     H_    0.853079 0.216189 0.176473 0.099860
N38   N     N_3   0.092152 0.226499 0.827027 -0.220983
H55   H     H_    0.061161 0.228785 0.911073 0.084633
H56   H     H_    0.152278 0.202781 0.790024 0.091860
N39   N     N_3   0.408828 0.726619 0.166757 -0.223922
H57   H     H_    0.460251 0.726217 0.083994 0.087721
H58   H     H_    0.353081 0.716175 0.176485 0.099859
N40   N     N_3   0.592133 0.726498 0.827047 -0.220983
H59   H     H_    0.561168 0.728790 0.911083 0.084637
H60   H     H_    0.652259 0.702778 0.790027 0.091848
N41   N     N_3   0.855162 0.554346 0.407662 -0.210492
H61   H     H_    0.917576 0.546006 0.378921 0.111842
H62   H     H_    0.834723 0.599764 0.463488 0.104388
N42   N     N_3   0.120743 0.566104 0.600361 -0.197492
H63   H     H_    0.056986 0.553111 0.640095 0.112489
H64   H     H_    0.132415 0.612822 0.548820 0.113645
N43   N     N_3   0.355146 0.054358 0.407670 -0.210495
H65   H     H_    0.417550 0.045993 0.378933 0.111852
H66   H     H_    0.334740 0.099791 0.463456 0.104405
N44   N     N_3   0.620746 0.066093 0.600364 -0.197515
H67   H     H_    0.556988 0.053140 0.640079 0.112501
H68   H     H_    0.632469 0.112784 0.548774 0.113653

loop_
_geom_bond_atom_site_label_1
_geom_bond_atom_site_label_2
_ccdc_geom_bond_type
C84   H40   S    
C83   C87   A    
N8    Ni4   S    
C55   H15   S    
C27   H43   S    
C7    C36   S    
C9    C59   S    
C15   C75   A    
C70   N18   A    
C18   C50   S    
C42   H6    S    
C25   H41   S    
C53   C59   D    
N9    N17   A    
C54   C60   D    
N41   H61   S    
C70   H26   S    
N37   H53   S    
C32   I4    S    
C69   H25   S    
C2    N2    A    
N40   H60   S    
C37   C41   S    
C9    C61   A    
C14   C74   A    
C41   N33   S    
C35   C37   A    
C9    C69   A    
C26   H42   S    
C38   C42   S    
C11   C63   A    
N35   H50   S    
C79   N27   A    
C54   C87   S    
C20   C40   A    
N44   H68   S    
C80   N28   A    
C49   I5    S    
C68   N16   A    
N23   Ni2   S    
N19   Ni4   S    
C29   C33   A    
N16   Ni7   S    
C74   N22   A    
C3    H3    S    
C52   I8    S    
C43   N35   S    
C2    H2    S    
C82   H38   S    
C8    C80   A    
N12   Ni8   S    
N13   Ni6   S    
C33   C39   A    
C41   H5    S    
C20   C24   A    
C53   H13   S    
N42   H63   S    
C72   N20   A    
N30   Ni6   S    
C43   H7    S    
N22   Ni1   S    
C67   N43   S    
C16   C68   A    
C56   C58   D    
N31   Ni7   S    
C21   C27   A    
C3    N3    A    
C60   H20   S    
C4    N4    A    
C12   C58   S    
C44   C52   S    
C15   C23   S    
C12   C72   A    
C61   H21   S    
N39   H57   S    
C16   C24   S    
C16   C76   A    
N36   H52   S    
C51   H11   S    
C68   N44   S    
C47   N39   S    
C10   C62   A    
N3    N31   A    
C62   N10   A    
C1    N1    A    
C13   C65   A    
C41   C49   S    
N20   Ni4   S    
N34   H48   S    
C50   I6    S    
N17   Ni3   S    
N41   H62   S    
C25   C29   A    
C74   H30   S    
C71   N19   A    
C50   H10   S    
C73   H29   S    
N27   Ni8   S    
C30   C34   A    
C3    C87   A    
C28   C32   A    
C75   H31   S    
C56   H16   S    
N38   H56   S    
N40   H59   S    
C42   N34   S    
C77   H33   S    
C48   N8    A    
N44   H67   S    
C31   I3    S    
C64   N12   A    
N33   H46   S    
C82   C86   A    
C5    C45   A    
C76   N24   A    
C59   H19   S    
N2    N30   A    
N1    N29   A    
N6    Ni3   S    
C28   H44   S    
C8    C35   S    
C7    C47   A    
C10   C60   S    
N35   H49   S    
C8    C48   A    
C44   H8    S    
N1    Ni1   S    
N25   Ni6   S    
C66   N42   S    
N6    N26   A    
N43   H65   S    
C62   H22   S    
N24   Ni2   S    
C71   H27   S    
C15   C67   A    
C5    C34   S    
N28   Ni7   S    
N37   H54   S    
C14   C66   A    
N2    Ni1   S    
C13   C21   S    
C76   H32   S    
C19   C39   A    
C42   C50   S    
C4    C88   A    
C10   C70   A    
C61   N9    A    
N43   H66   S    
C13   C73   A    
C26   C30   A    
C55   C57   D    
C27   C31   A    
C67   N15   A    
N14   N22   A    
C48   N40   S    
C31   C35   A    
N32   Ni8   S    
C1    C85   A    
C47   N7    A    
C17   C37   A    
C17   C49   S    
N21   Ni1   S    
C32   C36   A    
N5    Ni3   S    
C51   I7    S    
N34   H47   S    
C19   C23   A    
C7    C79   A    
C45   N5    A    
N4    N32   A    
N13   N21   A    
N7    N27   A    
C83   N31   A    
N15   Ni8   S    
C1    H1    S    
C6    C46   A    
C81   H37   S    
N9    Ni5   S    
C18   C22   A    
C81   N29   A    
C78   N26   A    
C54   H14   S    
C84   C88   A    
C29   I1    S    
N38   H55   S    
C84   N32   A    
C39   C43   S    
N26   Ni5   S    
C46   N38   S    
C80   H36   S    
N4    Ni2   S    
N15   N23   A    
C82   N30   A    
C72   H28   S    
C6    C33   S    
N5    N25   A    
C69   N17   A    
N10   N18   A    
C55   C86   S    
C36   C38   A    
C18   C38   A    
N29   Ni5   S    
C20   C52   S    
N8    N28   A    
C64   H24   S    
C24   C26   A    
C14   C22   S    
C56   C85   S    
C79   H35   S    
C57   H17   S    
C43   C51   S    
C19   C51   S    
C12   C64   A    
N18   Ni3   S    
C65   N13   A    
N11   N19   A    
N3    Ni2   S    
C52   H12   S    
C2    C86   A    
C53   C88   S    
C11   C71   A    
C45   N37   S    
C23   C25   A    
C63   H23   S    
N7    Ni4   S    
C78   H34   S    
C83   H39   S    
C66   N14   A    
C49   H9    S    
C6    C78   A    
N11   Ni7   S    
C75   N23   A    
C40   C44   S    
C65   N41   S    
C44   N36   S    
N42   H64   S    
N33   H45   S    
N14   Ni5   S    
C73   N21   A    
N39   H58   S    
C63   N11   A    
C46   N6    A    
C34   C40   A    
C22   C28   A    
N16   N24   A    
C58   H18   S    
N36   H51   S    
C11   C57   S    
C5    C77   A    
C30   I2    S    
C81   C85   A    
N10   Ni6   S    
N12   N20   A    
C77   N25   A    
C4    H4    S    
C17   C21   A    
