data_mof_unit_56792.cif
_audit_creation_date              2013-03-05T15:50:17-0500
_audit_creation_method            fapswitch 2.2
_symmetry_space_group_name_H-M    P1
_symmetry_Int_Tables_number       1
_space_group_crystal_system       triclinic
_cell_length_a                    18.388184
_cell_length_b                    25.970753
_cell_length_c                    18.211702
_cell_angle_alpha                 90.147732
_cell_angle_beta                  90.183451
_cell_angle_gamma                 89.631296
_cell_volume                      8696.83596729

loop_
_atom_site_label
_atom_site_type_symbol
_atom_site_description
_atom_site_fract_x
_atom_site_fract_y
_atom_site_fract_z
_atom_type_partial_charge
Zn1   Zn    Zn3+2 0.249990 0.293780 0.913250 0.970390
Zn2   Zn    Zn3+2 0.249990 0.706220 0.086750 0.957251
Zn3   Zn    Zn3+2 0.249990 0.706220 0.913250 0.960758
Zn4   Zn    Zn3+2 0.249990 0.293780 0.086750 0.953904
Zn5   Zn    Zn3+2 0.749990 0.793780 0.413250 0.963132
Zn6   Zn    Zn3+2 0.749990 0.206220 0.586750 0.963719
Zn7   Zn    Zn3+2 0.749990 0.206220 0.413250 0.967507
Zn8   Zn    Zn3+2 0.749990 0.793780 0.586750 0.962649
Zn9   Zn    Zn3+2 0.336760 0.206240 0.000000 0.968732
Zn10  Zn    Zn3+2 0.336760 0.793760 0.000000 0.967433
Zn11  Zn    Zn3+2 0.836760 0.706240 0.500000 0.962610
Zn12  Zn    Zn3+2 0.836760 0.293760 0.500000 0.966152
Zn13  Zn    Zn3+2 0.163250 0.206230 0.000000 0.951841
Zn14  Zn    Zn3+2 0.163250 0.793770 0.000000 0.962084
Zn15  Zn    Zn3+2 0.663250 0.706230 0.500000 0.957633
Zn16  Zn    Zn3+2 0.663250 0.293770 0.500000 0.959413
O1    O     O_3   0.249990 0.250010 0.000000 -0.479737
O2    O     O_3   0.249990 0.749990 0.000000 -0.482735
O3    O     O_3   0.749990 0.750010 0.500000 -0.484906
O4    O     O_3   0.749990 0.249990 0.500000 -0.485042
O5    O     O_R   0.335430 0.280650 0.146160 -0.634942
O6    O     O_R   0.335430 0.719350 0.853840 -0.633430
O7    O     O_R   0.335430 0.719350 0.146160 -0.654979
O8    O     O_R   0.335430 0.280650 0.853840 -0.632478
O9    O     O_R   0.835430 0.780650 0.646160 -0.628155
O10   O     O_R   0.835430 0.219350 0.353840 -0.620448
O11   O     O_R   0.835430 0.219350 0.646160 -0.641633
O12   O     O_R   0.835430 0.780650 0.353840 -0.629356
O13   O     O_R   0.164550 0.280640 0.853840 -0.627170
O14   O     O_R   0.164550 0.719360 0.146160 -0.645994
O15   O     O_R   0.164550 0.719360 0.853840 -0.639393
O16   O     O_R   0.164550 0.280640 0.146160 -0.651178
O17   O     O_R   0.664550 0.780640 0.353840 -0.641475
O18   O     O_R   0.664550 0.219360 0.646160 -0.629693
O19   O     O_R   0.664550 0.219360 0.353840 -0.639485
O20   O     O_R   0.664550 0.780640 0.646160 -0.641451
O21   O     O_R   0.396160 0.219380 0.914560 -0.640138
O22   O     O_R   0.396160 0.780620 0.085440 -0.631209
O23   O     O_R   0.396160 0.780620 0.914560 -0.642728
O24   O     O_R   0.396160 0.219380 0.085440 -0.631044
O25   O     O_R   0.896160 0.719380 0.414560 -0.645599
O26   O     O_R   0.896160 0.280620 0.585440 -0.639861
O27   O     O_R   0.896160 0.280620 0.414560 -0.651224
O28   O     O_R   0.896160 0.719380 0.585440 -0.644989
O29   O     O_R   0.103840 0.219370 0.085450 -0.640117
O30   O     O_R   0.103840 0.780630 0.914550 -0.644850
O31   O     O_R   0.103840 0.780630 0.085450 -0.637623
O32   O     O_R   0.103840 0.219370 0.914550 -0.657448
O33   O     O_R   0.603840 0.719370 0.585450 -0.643574
O34   O     O_R   0.603840 0.280630 0.414550 -0.631607
O35   O     O_R   0.603840 0.280630 0.585450 -0.651566
O36   O     O_R   0.603840 0.719370 0.414550 -0.629104
O37   O     O_R   0.310730 0.133160 0.000000 -0.636278
O38   O     O_R   0.310730 0.866840 0.000000 -0.612484
O39   O     O_R   0.810730 0.633160 0.500000 -0.615988
O40   O     O_R   0.810730 0.366840 0.500000 -0.627846
O41   O     O_R   0.249970 0.366860 0.060720 -0.656037
O42   O     O_R   0.249970 0.633140 0.939280 -0.648430
O43   O     O_R   0.249970 0.633140 0.060720 -0.645897
O44   O     O_R   0.249970 0.366860 0.939280 -0.647798
O45   O     O_R   0.749970 0.866860 0.560720 -0.646295
O46   O     O_R   0.749970 0.133140 0.439280 -0.650798
O47   O     O_R   0.749970 0.133140 0.560720 -0.646076
O48   O     O_R   0.749970 0.866860 0.439280 -0.650542
O49   O     O_R   0.189290 0.133150 0.000000 -0.644768
O50   O     O_R   0.189290 0.866850 0.000000 -0.648647
O51   O     O_R   0.689290 0.633150 0.500000 -0.649846
O52   O     O_R   0.689290 0.366850 0.500000 -0.653585
C1    C     C_R   0.388816 0.249266 0.140707 0.871386
C2    C     C_R   0.389281 0.750014 0.859490 0.854344
C3    C     C_R   0.388516 0.750835 0.141007 0.818234
C4    C     C_R   0.389872 0.250000 0.860085 0.863249
C5    C     C_R   0.887748 0.748348 0.641749 0.854001
C6    C     C_R   0.893823 0.245939 0.363992 0.836099
C7    C     C_R   0.889988 0.249562 0.639386 0.864242
C8    C     C_R   0.888948 0.749368 0.359591 0.864169
C9    C     C_R   0.110128 0.250181 0.860377 0.782172
C10   C     C_R   0.110255 0.749934 0.140311 0.786592
C11   C     C_R   0.110880 0.750468 0.859469 0.784170
C12   C     C_R   0.106538 0.253632 0.136886 0.791852
C13   C     C_R   0.610702 0.749893 0.359908 0.783433
C14   C     C_R   0.610545 0.250235 0.640070 0.782717
C15   C     C_R   0.610222 0.249870 0.360133 0.791346
C16   C     C_R   0.610984 0.749773 0.640436 0.780484
C17   C     C_R   0.251089 0.109340 0.001507 0.807626
C18   C     C_R   0.250638 0.890689 0.003265 0.829819
C19   C     C_R   0.751343 0.609098 0.504924 0.803205
C20   C     C_R   0.749446 0.390844 0.500690 0.850331
C21   C     C_R   0.248300 0.391318 0.999934 0.770293
C22   C     C_R   0.248173 0.608697 0.999777 0.770576
C23   C     C_R   0.748599 0.891332 0.500405 0.766497
C24   C     C_R   0.748606 0.108681 0.500184 0.770832
C25   C     C_3   0.190412 0.470219 0.059336 -0.186091
C26   C     C_3   0.222885 0.529926 0.920670 -0.196284
C27   C     C_3   0.189449 0.530650 0.058319 -0.189058
C28   C     C_3   0.221797 0.469816 0.921183 -0.196999
C29   C     C_3   0.739379 0.970435 0.583076 -0.197174
C30   C     C_3   0.681620 0.030325 0.451886 -0.186594
C31   C     C_3   0.736991 0.030442 0.582455 -0.201346
C32   C     C_3   0.680069 0.969887 0.454269 -0.184537
H1    H     H_    0.212373 0.458362 0.113841 0.138327
H2    H     H_    0.266645 0.541591 0.882067 0.141481
H3    H     H_    0.209424 0.543717 0.113028 0.143786
H4    H     H_    0.264009 0.456601 0.881509 0.142503
H5    H     H_    0.790239 0.958806 0.612217 0.134837
H6    H     H_    0.693823 0.041533 0.394259 0.136347
H7    H     H_    0.785117 0.043894 0.614325 0.134536
H8    H     H_    0.687997 0.955829 0.397018 0.137790
H9    H     H_    0.178108 0.905542 0.884194 0.156178
H10   H     H_    0.170219 0.094344 0.887926 0.165723
H11   H     H_    0.656508 0.405085 0.608688 0.167992
H12   H     H_    0.655285 0.594393 0.610807 0.165294
H13   H     H_    0.339370 0.455546 0.071768 0.187243
H14   H     H_    0.361212 0.543782 0.978190 0.169164
H15   H     H_    0.337643 0.543313 0.073440 0.188682
H16   H     H_    0.360641 0.455942 0.975956 0.171769
H17   H     H_    0.864117 0.954750 0.499940 0.168432
H18   H     H_    0.826139 0.043802 0.413777 0.190220
H19   H     H_    0.863763 0.042465 0.504572 0.175126
H20   H     H_    0.822363 0.956357 0.411052 0.194009
C33   C     C_3   0.320707 0.470027 0.017343 -0.463286
C34   C     C_3   0.320418 0.529468 0.018186 -0.462797
C35   C     C_3   0.816383 0.969871 0.468799 -0.456383
C36   C     C_3   0.817213 0.029251 0.470407 -0.473515
C37   C     C_3   0.243841 0.449021 0.999221 0.081401
C38   C     C_3   0.243754 0.551027 0.998914 0.077742
C39   C     C_3   0.744780 0.949048 0.502159 0.080748
C40   C     C_3   0.744803 0.051009 0.501619 0.083781
H21   H     H_    0.171075 0.117929 0.682729 0.145491
H22   H     H_    0.882668 0.696589 0.025574 0.155614
H23   H     H_    0.938602 0.616710 0.921976 0.163278
H24   H     H_    0.895272 0.146294 0.064370 0.155073
H25   H     H_    0.456390 0.898986 0.402141 0.169896
H26   H     H_    0.395682 0.169934 0.536616 0.150414
H27   H     H_    0.434455 0.119004 0.424579 0.162529
H28   H     H_    0.455297 0.900334 0.606118 0.169496
C41   C     C_R   0.988270 0.319026 0.868875 -0.137234
C42   C     C_R   0.143659 0.764900 0.294370 -0.162164
C43   C     C_R   0.117190 0.816449 0.733502 -0.184849
C44   C     C_R   0.099336 0.332208 0.257916 -0.125294
C45   C     C_R   0.603526 0.670425 0.251174 -0.170006
C46   C     C_R   0.637034 0.293248 0.782452 -0.154963
C47   C     C_R   0.617902 0.316581 0.236046 -0.146798
C48   C     C_R   0.606895 0.670707 0.750566 -0.152710
C49   C     C_R   0.928727 0.352249 0.874217 -0.116986
C50   C     C_R   0.160510 0.777601 0.366711 -0.152539
C51   C     C_R   0.125344 0.844563 0.668945 -0.155251
C52   C     C_R   0.115760 0.356027 0.324506 -0.164689
C53   C     C_R   0.603006 0.632898 0.196432 -0.139752
C54   C     C_R   0.650585 0.314577 0.851336 -0.147838
C55   C     C_R   0.621991 0.349931 0.176423 -0.138107
C56   C     C_R   0.607672 0.633678 0.805778 -0.106717
C57   C     C_R   0.550763 0.634713 0.141256 -0.146432
C58   C     C_R   0.596569 0.314816 0.904420 -0.137581
C59   C     C_R   0.567244 0.350269 0.123737 -0.147006
C60   C     C_R   0.554981 0.634752 0.860288 -0.150336
C61   C     C_R   0.874507 0.351263 0.820931 -0.151359
C62   C     C_R   0.105242 0.784426 0.417289 -0.142417
C63   C     C_R   0.072464 0.842227 0.614585 -0.147762
C64   C     C_R   0.087780 0.336551 0.389364 -0.146040
C65   C     C_R   0.498233 0.673621 0.141286 -0.148982
C66   C     C_R   0.528855 0.293512 0.889002 -0.157817
C67   C     C_R   0.508439 0.317063 0.130229 -0.152762
C68   C     C_R   0.501131 0.672764 0.859670 -0.157129
C69   C     C_R   0.879767 0.317227 0.761877 -0.149844
C70   C     C_R   0.033435 0.776514 0.396164 -0.144632
C71   C     C_R   0.011845 0.811175 0.624127 -0.155677
C72   C     C_R   0.038345 0.296186 0.386967 -0.126361
C73   C     C_R   0.497256 0.712059 0.196903 0.080650
C74   C     C_R   0.513905 0.270898 0.819568 0.060240
C75   C     C_R   0.503026 0.282756 0.190520 0.063502
C76   C     C_R   0.499508 0.711010 0.804302 0.063287
C77   C     C_R   0.940066 0.283200 0.754946 0.063432
C78   C     C_R   0.015616 0.760764 0.323394 0.062408
C79   C     C_R   0.004125 0.780559 0.688072 0.070997
C80   C     C_R   0.015915 0.274605 0.319090 0.060429
C81   C     C_R   0.994700 0.284015 0.809413 0.070107
C82   C     C_R   0.071220 0.757609 0.270797 0.076570
C83   C     C_R   0.058524 0.782359 0.742539 0.078513
C84   C     C_R   0.054544 0.287991 0.255192 0.079163
C85   C     C_R   0.551669 0.710993 0.251451 0.073203
C86   C     C_R   0.568760 0.270980 0.765604 0.080983
C87   C     C_R   0.558368 0.282779 0.244134 0.078061
C88   C     C_R   0.553985 0.710502 0.749844 0.063249
C89   C     C_R   0.442807 0.750855 0.199218 -0.166103
C90   C     C_R   0.445391 0.248876 0.803183 -0.164591
C91   C     C_R   0.443735 0.248689 0.197831 -0.165374
C92   C     C_R   0.444280 0.749107 0.801798 -0.162895
C93   C     C_R   0.946913 0.249051 0.694544 -0.158763
C94   C     C_R   0.943905 0.747815 0.302887 -0.171981
C95   C     C_R   0.943059 0.748812 0.698704 -0.163651
C96   C     C_R   0.956935 0.239834 0.313665 -0.215386
C97   C     C_R   0.441383 0.788818 0.256344 -0.008183
C98   C     C_R   0.430912 0.226220 0.733146 0.030573
C99   C     C_R   0.438316 0.214260 0.258465 0.022430
C100  C     C_R   0.442976 0.786715 0.745191 0.036309
C101  C     C_R   0.007832 0.215235 0.687427 0.019614
C102  C     C_R   0.926477 0.731760 0.229998 0.031957
C103  C     C_R   0.937155 0.716645 0.761696 0.027060
C104  C     C_R   0.950763 0.208029 0.250642 0.043466
C105  C     C_R   0.059254 0.213883 0.745495 0.030140
C106  C     C_R   0.981460 0.734575 0.175654 0.038105
C107  C     C_R   0.996226 0.714554 0.811568 0.038197
C108  C     C_R   0.986974 0.222856 0.185998 0.032902
C109  C     C_R   0.501035 0.790336 0.305794 0.051896
C110  C     C_R   0.485898 0.227948 0.678793 0.034381
C111  C     C_R   0.494781 0.214650 0.311786 0.037182
C112  C     C_R   0.502788 0.789966 0.697057 0.034263
C113  C     C_R   0.053875 0.249494 0.804069 -0.135666
C114  C     C_R   0.053325 0.747908 0.196268 -0.149107
C115  C     C_R   0.054237 0.749331 0.803744 -0.142102
C116  C     C_R   0.045926 0.257781 0.190676 -0.197212
C117  C     C_R   0.554089 0.750757 0.304188 -0.139575
C118  C     C_R   0.554128 0.249789 0.695759 -0.135981
C119  C     C_R   0.553551 0.249052 0.304369 -0.138617
C120  C     C_R   0.555623 0.750346 0.697197 -0.146624
C121  C     C_R   0.382737 0.825112 0.266811 0.194434
C122  C     C_R   0.363783 0.201456 0.714858 0.229109
C123  C     C_R   0.379431 0.178815 0.268095 0.199714
C124  C     C_R   0.382464 0.820162 0.732949 0.217172
C125  C     C_R   0.020168 0.182650 0.624767 0.219224
C126  C     C_R   0.856584 0.712136 0.209047 0.236306
C127  C     C_R   0.874674 0.686140 0.777105 0.206123
C128  C     C_R   0.909934 0.161512 0.249343 0.290596
C129  C     C_R   0.390791 0.865201 0.318418 -0.179807
C130  C     C_R   0.351720 0.182547 0.643789 -0.188241
C131  C     C_R   0.380243 0.144359 0.327189 -0.208139
C132  C     C_R   0.388883 0.862137 0.685269 -0.201915
C133  C     C_R   0.080076 0.148965 0.623613 -0.194543
C134  C     C_R   0.841426 0.701331 0.135190 -0.192579
C135  C     C_R   0.877338 0.648970 0.832797 -0.200924
C136  C     C_R   0.889572 0.140038 0.181695 -0.218118
C137  C     C_R   0.126429 0.145295 0.683384 -0.172433
C138  C     C_R   0.894687 0.706241 0.082188 -0.180879
C139  C     C_R   0.937844 0.644631 0.877929 -0.171983
C140  C     C_R   0.912875 0.162049 0.116520 -0.181526
C141  C     C_R   0.452009 0.868244 0.362300 -0.198033
C142  C     C_R   0.405435 0.185304 0.591002 -0.172495
C143  C     C_R   0.435520 0.145402 0.378773 -0.184535
C144  C     C_R   0.451459 0.868481 0.644062 -0.155150
C145  C     C_R   0.115883 0.176927 0.743908 -0.155865
C146  C     C_R   0.964233 0.721436 0.102050 -0.137534
C147  C     C_R   0.995707 0.678098 0.869253 -0.136958
C148  C     C_R   0.962158 0.202489 0.118367 -0.119938
C149  C     C_R   0.505699 0.830789 0.357719 -0.143512
C150  C     C_R   0.472089 0.206955 0.608212 -0.129083
C151  C     C_R   0.491893 0.180236 0.371847 -0.143814
C152  C     C_R   0.506748 0.831794 0.647509 -0.133278
H29   H     H_    0.028926 0.321000 0.911885 0.124815
H30   H     H_    0.188103 0.760099 0.257637 0.159259
H31   H     H_    0.157321 0.821397 0.776235 0.115779
H32   H     H_    0.119953 0.350157 0.208841 0.166887
H33   H     H_    0.644925 0.667272 0.293159 0.130958
H34   H     H_    0.680521 0.294742 0.742649 0.117074
H35   H     H_    0.661858 0.317361 0.275553 0.118251
H36   H     H_    0.648369 0.668025 0.708801 0.111866
H37   H     H_    0.924600 0.378775 0.919990 0.145399
H38   H     H_    0.216614 0.782803 0.383214 0.145058
H39   H     H_    0.172072 0.869199 0.661914 0.123550
H40   H     H_    0.151205 0.389139 0.325817 0.140880
H41   H     H_    0.643426 0.602404 0.196771 0.133634
H42   H     H_    0.703028 0.331383 0.863326 0.132437
H43   H     H_    0.667807 0.375582 0.171018 0.131749
H44   H     H_    0.649050 0.603832 0.805905 0.125306
H45   H     H_    0.550563 0.605663 0.098513 0.125335
H46   H     H_    0.607093 0.331724 0.957731 0.132281
H47   H     H_    0.570353 0.376324 0.077576 0.121019
H48   H     H_    0.555496 0.605810 0.902963 0.122246
H49   H     H_    0.828214 0.377048 0.825240 0.124967
H50   H     H_    0.118082 0.795290 0.473206 0.139930
H51   H     H_    0.077978 0.864989 0.565230 0.124991
H52   H     H_    0.103101 0.353449 0.441517 0.144480
H53   H     H_    0.458463 0.672964 0.097385 0.115061
H54   H     H_    0.488612 0.295147 0.932157 0.115125
H55   H     H_    0.467456 0.318731 0.087511 0.105492
H56   H     H_    0.460931 0.671731 0.902900 0.111594
H57   H     H_    0.836181 0.318073 0.721816 0.104878
H58   H     H_    0.992562 0.782684 0.437848 0.122888
H59   H     H_    0.971655 0.811233 0.580608 0.108899
H60   H     H_    0.019477 0.281322 0.438865 0.157483
H61   H     H_    0.090258 0.124917 0.576028 0.137950
H62   H     H_    0.788384 0.687165 0.119189 0.140476
H63   H     H_    0.830307 0.625351 0.843889 0.134417
H64   H     H_    0.856550 0.105688 0.179582 0.135887
H65   H     H_    0.348830 0.893841 0.327234 0.149542
H66   H     H_    0.300467 0.164554 0.629919 0.137650
H67   H     H_    0.336889 0.116692 0.333490 0.141380
H68   H     H_    0.343339 0.888105 0.676639 0.129606
H69   H     H_    0.152280 0.171814 0.789964 0.135370
H70   H     H_    0.004294 0.721773 0.058796 0.148287
H71   H     H_    0.040289 0.674669 0.907906 0.137890
H72   H     H_    0.978886 0.218491 0.066385 0.165479
H73   H     H_    0.550848 0.834018 0.395642 0.141265
H74   H     H_    0.512556 0.206935 0.565237 0.137139
H75   H     H_    0.533603 0.179451 0.413891 0.130892
H76   H     H_    0.552319 0.836591 0.610800 0.151853
C153  C     C_R   0.351764 0.053198 0.098182 0.224208
C154  C     C_R   0.339368 0.949400 0.112468 0.195507
C155  C     C_R   0.888086 0.543384 0.476530 0.275829
C156  C     C_R   0.844021 0.452739 0.406140 0.270367
C157  C     C_R   0.363273 0.031413 0.167481 -0.213854
C158  C     C_R   0.357865 0.978744 0.174223 -0.269230
C159  C     C_R   0.932726 0.519807 0.423924 -0.269256
C160  C     C_R   0.909118 0.476500 0.386274 -0.237360
C161  C     C_R   0.298799 0.973310 0.053813 0.018629
C162  C     C_R   0.302267 0.027416 0.049397 -0.055110
C163  C     C_R   0.801337 0.474294 0.464098 -0.008376
C164  C     C_R   0.815737 0.524760 0.486643 -0.006186
C165  C     C_R   0.254189 0.946387 0.001818 -0.135126
C166  C     C_R   0.255623 0.053753 0.998991 -0.136989
C167  C     C_R   0.748113 0.446780 0.503617 -0.135720
C168  C     C_R   0.756910 0.553349 0.517764 -0.150424
C169  C     C_R   0.213359 0.972965 0.947330 0.042342
C170  C     C_R   0.212270 0.026983 0.947440 0.036262
C171  C     C_R   0.701095 0.472790 0.553847 0.037518
C172  C     C_R   0.702137 0.527027 0.556686 0.028584
C173  C     C_R   0.174124 0.946738 0.891478 -0.257389
C174  C     C_R   0.169352 0.053136 0.894011 -0.235244
C175  C     C_R   0.654363 0.446333 0.602446 -0.262208
C176  C     C_R   0.652730 0.553216 0.603363 -0.233300
C177  C     C_R   0.128297 0.973094 0.842730 0.178079
C178  C     C_R   0.124860 0.026779 0.844728 0.235573
C179  C     C_R   0.604816 0.472586 0.647347 0.196305
C180  C     C_R   0.601801 0.526632 0.645682 0.235075
H77   H     H_    0.391130 0.052089 0.210723 0.157811
H78   H     H_    0.382490 0.960659 0.221801 0.152751
H79   H     H_    0.986637 0.534458 0.413104 0.152204
H80   H     H_    0.943007 0.460147 0.343510 0.155544
N1    N     N_2   0.314631 0.818301 0.230102 -0.319631
H81   H     H_    0.295873 0.781558 0.236561 0.230159
C181  C     C_3   0.257191 0.856613 0.235936 -0.850196
H82   H     H_    0.212407 0.846672 0.197499 0.243952
H83   H     H_    0.277085 0.895166 0.220935 0.247950
H84   H     H_    0.235392 0.857811 0.292653 0.244883
N2    N     N_2   0.307829 0.194510 0.767128 -0.312590
H85   H     H_    0.257513 0.205527 0.747724 0.224051
C182  C     C_3   0.307878 0.144359 0.801444 -0.788338
H86   H     H_    0.269098 0.144788 0.847836 0.216839
H87   H     H_    0.362721 0.134849 0.823588 0.261477
H88   H     H_    0.291205 0.114338 0.761318 0.224184
N3    N     N_2   0.320052 0.175713 0.218139 -0.320999
H89   H     H_    0.313712 0.139292 0.196503 0.220172
C183  C     C_3   0.252256 0.195909 0.246581 -0.728645
H90   H     H_    0.209370 0.191817 0.204154 0.231869
H91   H     H_    0.257980 0.237291 0.260943 0.267732
H92   H     H_    0.234989 0.174104 0.295889 0.215545
N4    N     N_2   0.311875 0.806238 0.756582 -0.326192
H93   H     H_    0.277668 0.837239 0.765164 0.190618
C184  C     C_3   0.279728 0.766605 0.710760 -0.723567
H94   H     H_    0.318249 0.734005 0.702086 0.247192
H95   H     H_    0.263947 0.782834 0.656557 0.226936
H96   H     H_    0.231165 0.750665 0.737850 0.260407
N5    N     N_2   0.976139 0.185425 0.560586 -0.313808
H97   H     H_    0.005220 0.195308 0.514424 0.209348
C185  C     C_3   0.931222 0.140779 0.547911 -0.796307
H98   H     H_    0.893987 0.148635 0.501161 0.239388
H99   H     H_    0.898178 0.132160 0.597276 0.262315
H100  H     H_    0.965444 0.106702 0.534279 0.212243
N6    N     N_2   0.802225 0.700015 0.261464 -0.309027
H101  H     H_    0.750256 0.709144 0.244309 0.222725
C186  C     C_3   0.807597 0.648233 0.290289 -0.793162
H102  H     H_    0.768509 0.643676 0.336099 0.225251
H103  H     H_    0.863180 0.640517 0.311927 0.257952
H104  H     H_    0.794613 0.619708 0.246655 0.228961
N7    N     N_2   0.805765 0.697905 0.745980 -0.324934
H105  H     H_    0.775383 0.665669 0.734211 0.192239
C187  C     C_3   0.765710 0.735184 0.789524 -0.714409
H106  H     H_    0.714067 0.745233 0.761993 0.251669
H107  H     H_    0.797655 0.771080 0.796376 0.252933
H108  H     H_    0.752846 0.719034 0.844423 0.222127
N8    N     N_2   0.895953 0.133213 0.314774 -0.276730
H109  H     H_    0.854627 0.106712 0.310020 0.222855
C188  C     C_3   0.960166 0.111857 0.349681 -0.844267
H110  H     H_    0.944259 0.089943 0.399196 0.232837
H111  H     H_    0.997687 0.142940 0.367090 0.247167
H112  H     H_    0.988738 0.085211 0.311431 0.246462
N9    N     N_2   0.080089 0.054921 0.794669 -0.314988
H113  H     H_    0.064213 0.035201 0.748169 0.248611
C189  C     C_3   0.020917 0.083349 0.828252 -0.753127
H114  H     H_    0.990249 0.104731 0.785298 0.245271
H115  H     H_    0.041964 0.111759 0.868614 0.258379
H116  H     H_    0.983206 0.056500 0.856103 0.233728
N10   N     N_2   0.087700 0.945440 0.789651 -0.332541
H117  H     H_    0.119088 0.918617 0.762918 0.226120
C190  C     C_3   0.020615 0.924115 0.816906 -0.744103
H118  H     H_    0.032125 0.894780 0.859836 0.250750
H119  H     H_    0.990845 0.905344 0.771041 0.245620
H120  H     H_    0.985539 0.955111 0.840015 0.245107
N11   N     N_2   0.550408 0.554695 0.688983 -0.316473
H121  H     H_    0.524007 0.533985 0.728902 0.252820
C191  C     C_3   0.501428 0.588040 0.648395 -0.745515
H122  H     H_    0.465141 0.608773 0.687316 0.242988
H123  H     H_    0.467483 0.564906 0.610184 0.239323
H124  H     H_    0.532019 0.617315 0.616965 0.261100
N12   N     N_2   0.557907 0.444108 0.693866 -0.316572
H125  H     H_    0.539022 0.410634 0.670003 0.241733
C192  C     C_3   0.587486 0.434883 0.766417 -0.828901
H126  H     H_    0.637560 0.410810 0.762712 0.242037
H127  H     H_    0.546804 0.414269 0.800171 0.255935
H128  H     H_    0.600656 0.471868 0.794119 0.238960
N13   N     N_2   0.405684 0.087229 0.069093 -0.253673
H129  H     H_    0.418678 0.079604 0.015008 0.242712
C193  C     C_3   0.468729 0.101371 0.112487 -0.740546
H130  H     H_    0.502806 0.128548 0.080829 0.246333
H131  H     H_    0.501897 0.066664 0.125588 0.225271
H132  H     H_    0.451894 0.121199 0.163588 0.238961
N14   N     N_2   0.378912 0.902728 0.103213 -0.259899
H133  H     H_    0.390003 0.883785 0.151398 0.242332
C194  C     C_3   0.444548 0.908499 0.060218 -0.655815
H134  H     H_    0.470567 0.870243 0.051913 0.246477
H135  H     H_    0.483618 0.933984 0.089284 0.206245
H136  H     H_    0.431737 0.925045 0.005425 0.239300
N15   N     N_2   0.920493 0.579786 0.525444 -0.254522
H137  H     H_    0.969550 0.594522 0.508262 0.223078
C195  C     C_3   0.920867 0.565706 0.602321 -0.735390
H138  H     H_    0.945794 0.597123 0.635157 0.240640
H139  H     H_    0.953104 0.529832 0.610521 0.231364
H140  H     H_    0.864684 0.560040 0.622698 0.233113
N16   N     N_2   0.820296 0.409326 0.364772 -0.291131
H141  H     H_    0.861553 0.389295 0.338822 0.231749
C196  C     C_3   0.759647 0.419931 0.316323 -0.830313
H142  H     H_    0.745496 0.384415 0.285855 0.227939
H143  H     H_    0.774401 0.450141 0.275986 0.240769
H144  H     H_    0.711343 0.432665 0.348187 0.255595
C197  C     C_1   0.117475 0.446370 0.055151 0.169585
N17   N     N_1   0.060599 0.427628 0.052137 -0.223645
C198  C     C_1   0.155450 0.553704 0.890650 0.220573
N18   N     N_1   0.103028 0.572214 0.866930 -0.196469
C199  C     C_1   0.115929 0.553880 0.050954 0.187024
N19   N     N_1   0.058588 0.572144 0.045441 -0.216773
C200  C     C_1   0.152685 0.447387 0.893793 0.223970
N20   N     N_1   0.098972 0.429847 0.872216 -0.193888
C201  C     C_1   0.679729 0.947181 0.626599 0.235388
N21   N     N_1   0.633521 0.929097 0.660767 -0.190563
C202  C     C_1   0.610894 0.055319 0.468484 0.177588
N22   N     N_1   0.555716 0.074834 0.481651 -0.232350
C203  C     C_1   0.672888 0.052685 0.621120 0.238541
N23   N     N_1   0.623181 0.070082 0.651394 -0.180614
C204  C     C_1   0.609561 0.948333 0.477830 0.168774
N24   N     N_1   0.554597 0.931519 0.496598 -0.253963

loop_
_geom_bond_atom_site_label_1
_geom_bond_atom_site_label_2
_geom_bond_distance
_ccdc_geom_bond_type
C170  C174  1.422147 A    
C191  H124  1.109910 S    
C198  N18   1.157280 T    
C48   C88   1.414893 A    
C26   C198  1.485072 S    
C32   C39   1.567466 S    
C129  C141  1.381006 A    
C197  N17   1.157496 T    
C182  H86   1.107331 S    
C21   C37   1.500411 S    
C157  C158  1.377931 A    
C62   C70   1.390518 A    
O26   C7    1.278529 A    
C162  C166  1.427179 A    
C23   C39   1.500388 S    
C75   C87   1.408053 A    
C193  H131  1.111057 S    
C109  C149  1.414522 A    
C192  H127  1.110795 S    
O30   C11   1.277536 A    
N11   C191  1.447923 S    
C52   C64   1.387830 A    
C53   C57   1.388623 A    
Zn12  O26   1.928132 S    
C100  C124  1.424542 A    
C56   C60   1.389502 A    
C55   C59   1.388484 A    
C112  C120  1.410600 A    
C29   H5    1.114226 S    
C110  C118  1.413171 A    
C47   C55   1.393226 A    
N15   C195  1.447913 S    
H26   C142  1.081772 S    
C108  C116  1.420113 A    
C52   H40   1.082532 S    
O11   C7    1.284038 A    
C53   H41   1.082619 S    
N5    C185  1.445553 S    
H10   C174  1.076436 S    
O34   C15   1.276534 A    
C63   H51   1.082458 S    
C186  H104  1.111430 S    
C175  C179  1.399098 A    
C64   H52   1.082499 S    
H16   C33   1.113464 S    
C49   H37   1.082591 S    
C179  C180  1.404752 A    
C188  H112  1.111467 S    
C25   H1    1.113834 S    
N2    C182  1.446070 S    
C165  C169  1.420191 A    
Zn2   O43   1.955065 S    
H23   C139  1.082718 S    
C203  N23   1.157643 T    
C150  H74   1.081646 S    
Zn5   O48   1.955061 S    
C57   C65   1.393383 A    
Zn6   O47   1.955065 S    
Zn15  O3    1.964713 S    
Zn7   O46   1.957437 S    
C131  H67   1.083211 S    
O16   C12   1.290842 A    
C48   H36   1.080621 S    
C132  H68   1.083200 S    
C15   C119  1.452961 S    
C159  C160  1.387075 A    
C133  H61   1.082980 S    
Zn16  O4    1.952798 S    
Zn12  O4    1.965015 S    
Zn1   O13   1.936365 S    
C22   C38   1.500515 S    
C141  C149  1.384034 A    
H18   C36   1.112325 S    
C26   C28   1.561404 S    
H24   C140  1.082558 S    
C139  C147  1.387863 A    
Zn4   O16   1.942958 S    
C65   H53   1.081965 S    
C72   C80   1.417204 A    
C46   C86   1.417978 A    
H28   C144  1.082054 S    
N11   H121  1.030114 S    
N10   H117  1.024846 S    
C71   H59   1.081913 S    
C182  H88   1.111115 S    
Zn6   O4    1.948694 S    
C72   H60   1.080930 S    
C166  C170  1.413941 A    
C105  C145  1.411918 A    
C93   C101  1.424984 A    
N16   C196  1.445382 S    
C111  C151  1.415667 A    
H11   C175  1.078013 S    
C17   C166  1.446136 S    
C134  H62   1.083436 S    
C30   H6    1.113744 S    
Zn10  O22   1.928132 S    
N7    H105  1.031138 S    
O25   C8    1.275976 A    
Zn13  O29   1.932603 S    
Zn10  O2    1.965015 S    
C44   C84   1.418162 A    
C63   C71   1.391610 A    
C134  C138  1.383989 A    
O29   C12   1.291395 A    
C45   C85   1.416476 A    
Zn15  O33   1.932603 S    
C8    C94   1.447484 S    
C145  H69   1.079311 S    
N2    H85   1.028490 S    
C26   H2    1.114178 S    
C177  C178  1.395651 A    
H9    C173  1.079786 S    
N6    H101  1.030823 S    
O37   C17   1.263008 A    
O48   C23   1.280659 A    
C194  H134  1.110158 S    
C122  C130  1.400660 A    
C190  H119  1.110593 S    
C184  H94   1.111662 S    
C167  C171  1.426508 A    
C29   C201  1.487491 S    
N16   H141  1.032207 S    
Zn16  O35   1.936499 S    
C99   C123  1.437174 A    
N13   H129  1.032656 S    
C35   C36   1.542521 S    
C199  N19   1.157563 T    
C97   C121  1.440494 A    
C153  N13   1.435916 S    
Zn7   O10   1.942913 S    
C177  N10   1.416409 S    
O33   C16   1.280594 A    
C135  H63   1.083300 S    
C132  C144  1.386707 A    
C101  C125  1.436661 A    
C154  C158  1.399225 A    
O40   C20   1.284401 A    
C106  C146  1.417710 A    
C136  C140  1.388920 A    
C82   C114  1.417895 A    
C84   C116  1.420147 A    
C13   C117  1.451546 S    
C195  H138  1.110860 S    
Zn5   O17   1.936365 S    
C102  C106  1.419414 A    
C195  H139  1.111203 S    
C187  H108  1.111947 S    
C1    C91   1.447579 S    
C2    C92   1.460694 S    
C12   C116  1.489428 S    
C65   C73   1.420367 A    
C96   C104  1.417023 A    
Zn15  O51   1.954422 S    
C25   C27   1.569586 S    
C47   H35   1.080647 S    
C74   C86   1.410555 A    
N1    C181  1.450355 S    
C107  C115  1.409956 A    
H25   C141  1.080681 S    
C3    C89   1.453874 S    
C105  C113  1.413318 A    
C27   H3    1.113675 S    
N3    C183  1.446311 S    
C32   H8    1.113530 S    
Zn8   O3    1.943935 S    
C97   C109  1.417681 A    
C43   C83   1.410269 A    
C196  H144  1.110679 S    
C29   C31   1.558830 S    
C61   C69   1.393572 A    
O38   C18   1.264737 A    
C189  H116  1.111133 S    
C59   C67   1.392960 A    
C30   C202  1.481456 S    
O5    C1    1.275839 A    
O32   C9    1.277898 A    
C100  C112  1.411718 A    
C112  C152  1.416384 A    
C33   C37   1.552522 S    
C35   C39   1.552774 S    
C200  N20   1.157504 T    
C60   H48   1.082549 S    
C104  C108  1.410072 A    
C61   H49   1.082603 S    
Zn11  O28   1.929199 S    
Zn12  O40   1.954381 S    
C194  H136  1.111455 S    
C159  H79   1.082984 S    
C138  C146  1.387359 A    
C156  C163  1.428345 A    
C185  H99   1.110772 S    
Zn7   O4    1.943937 S    
C184  H96   1.104923 S    
C183  H91   1.110999 S    
C50   H38   1.082814 S    
O8    C4    1.279937 A    
C71   C79   1.419799 A    
Zn9   O1    1.953099 S    
C191  H123  1.111190 S    
C90   C98   1.428274 A    
C130  H66   1.083472 S    
C42   H30   1.064299 S    
O50   C18   1.291423 A    
C169  C173  1.420249 A    
C50   C62   1.384030 A    
H12   C176  1.078924 S    
Zn1   O1    1.948695 S    
C46   H34   1.081976 S    
Zn13  O1    1.964713 S    
Zn2   O14   1.938422 S    
C48   C56   1.393130 A    
C192  H126  1.111767 S    
C66   H54   1.081762 S    
C27   C38   1.569801 S    
C42   C50   1.391736 A    
C161  C165  1.434394 A    
C126  N6    1.421694 S    
O9    C5    1.274933 A    
N14   C194  1.449572 S    
O39   C19   1.265222 A    
O36   C13   1.280911 A    
C181  H84   1.109453 S    
C158  H78   1.083172 S    
C68   C76   1.417328 A    
C154  C161  1.440678 A    
C125  N5    1.421441 S    
C80   C84   1.410709 A    
O13   C9    1.285609 A    
C126  C134  1.400812 A    
Zn1   O8    1.938380 S    
C123  N3    1.421538 S    
Zn2   O7    1.936320 S    
C153  C157  1.399314 A    
Zn3   O6    1.942913 S    
C135  C139  1.385331 A    
O18   C14   1.277064 A    
O31   C10   1.284453 A    
O6    C2    1.278443 A    
C164  C168  1.426198 A    
Zn4   O41   1.957432 S    
C121  C129  1.408984 A    
C18   C165  1.448717 S    
N15   H137  1.031977 S    
C44   H32   1.079978 S    
N5    H97   1.031667 S    
C189  H114  1.110732 S    
Zn14  O30   1.929452 S    
C67   H55   1.082147 S    
C64   C72   1.392460 A    
C11   C115  1.452284 S    
C186  H103  1.111431 S    
Zn11  O3    1.953099 S    
C196  H142  1.107204 S    
O41   C21   1.277905 A    
C176  C180  1.401191 A    
C41   C49   1.393132 A    
C110  C150  1.417765 A    
Zn16  O34   1.929452 S    
C188  H111  1.110244 S    
C88   C120  1.413046 A    
N8    H109  1.031814 S    
C124  C132  1.401231 A    
C143  C151  1.386495 A    
Zn8   O20   1.942958 S    
C92   C100  1.421981 A    
C182  H87   1.111453 S    
C193  H130  1.110558 S    
C67   C75   1.419931 A    
C78   C82   1.405147 A    
H20   C35   1.113381 S    
C55   H43   1.082283 S    
C36   C40   1.552021 S    
C56   H44   1.082647 S    
C30   C40   1.567657 S    
C27   C199  1.482677 S    
C109  C117  1.412893 A    
C171  C172  1.409644 A    
C204  N24   1.156588 T    
C103  C107  1.414531 A    
Zn8   O9    1.933740 S    
C160  H80   1.083170 S    
C108  C148  1.414632 A    
C127  C135  1.402528 A    
C31   C203  1.487763 S    
C174  C178  1.393847 A    
C157  H77   1.081524 S    
C163  C164  1.399089 A    
O7    C3    1.281225 A    
C193  H132  1.106531 S    
C192  H128  1.111537 S    
N4    H93   1.030413 S    
O19   C15   1.276352 A    
C58   H46   1.081938 S    
H19   C36   1.112148 S    
H22   C138  1.082890 S    
Zn9   O24   1.929199 S    
Zn6   O18   1.938422 S    
Zn10  O23   1.932353 S    
C47   C87   1.415927 A    
C124  N4    1.418183 S    
C57   H45   1.082653 S    
C181  H82   1.110368 S    
C128  N8    1.426566 S    
C66   C74   1.419694 A    
C131  C143  1.382215 A    
O14   C10   1.276001 A    
C142  C150  1.386409 A    
C111  C119  1.413624 A    
C187  H107  1.111633 S    
Zn15  O36   1.928384 S    
O15   C11   1.275588 A    
O42   C22   1.273592 A    
C4    C90   1.457119 S    
C33   C34   1.543732 S    
C78   C94   1.411829 A    
Zn4   O1    1.943935 S    
C30   C32   1.570769 S    
Zn1   O44   1.955061 S    
Zn9   O37   1.960354 S    
O12   C8    1.276301 A    
Zn11  O39   1.960354 S    
C94   C102  1.426463 A    
C147  H71   1.082215 S    
C190  H118  1.111930 S    
C19   C168  1.470053 S    
C32   C204  1.480735 S    
C20   C167  1.453600 S    
C68   H56   1.082143 S    
C69   H57   1.082241 S    
C58   C66   1.393247 A    
C41   H29   1.082414 S    
N12   H125  1.032543 S    
Zn5   O3    1.948695 S    
C31   H7    1.114321 S    
C70   C78   1.423789 A    
C171  C175  1.417568 A    
C62   H50   1.081747 S    
C172  C176  1.415848 A    
C45   H33   1.080114 S    
C46   C54   1.392434 A    
N7    C187  1.448896 S    
C169  C170  1.402885 A    
C31   C40   1.574671 S    
C163  C167  1.415116 A    
O28   C5    1.279488 A    
C25   C37   1.569611 S    
C189  H115  1.110644 S    
Zn3   O42   1.957437 S    
C173  C177  1.399178 A    
C99   C111  1.419409 A    
C161  C162  1.409528 A    
O21   C4    1.277543 A    
C125  C133  1.402486 A    
C144  C152  1.390230 A    
C123  C131  1.401381 A    
C155  C159  1.400741 A    
C156  C160  1.399274 A    
C121  N1    1.429507 S    
C183  H90   1.107680 S    
C130  C142  1.382830 A    
C83   C115  1.410936 A    
Zn2   O2    1.948694 S    
N1    H81   1.023942 S    
Zn14  O2    1.952798 S    
C187  H106  1.102588 S    
C29   C39   1.576706 S    
C51   C63   1.386916 A    
C44   C52   1.393110 A    
C45   C53   1.392442 A    
C191  H122  1.110865 S    
C98   C122  1.433430 A    
Zn13  O49   1.954422 S    
O44   C21   1.273151 A    
C43   C51   1.394568 A    
C51   H39   1.082714 S    
C180  N11   1.427965 S    
C102  C126  1.435752 A    
C95   C103  1.425699 A    
Zn12  O27   1.932353 S    
C128  C136  1.401854 A    
C79   C95   1.411488 A    
C155  C164  1.431095 A    
C80   C96   1.418783 A    
C107  C147  1.416153 A    
C69   C77   1.419141 A    
C151  H75   1.082155 S    
C49   C61   1.389396 A    
C152  H76   1.081661 S    
Zn3   O2    1.943937 S    
C81   C113  1.408873 A    
C41   C81   1.416952 A    
C14   C118  1.453236 S    
C148  H72   1.081222 S    
C185  H98   1.109354 S    
C149  H73   1.081755 S    
N8    C188  1.447250 S    
O46   C24   1.279992 A    
O47   C24   1.271215 A    
N14   H133  1.026395 S    
C101  C105  1.416698 A    
Zn16  O52   1.960397 S    
C156  N16   1.424399 S    
C194  H135  1.111874 S    
C179  N12   1.422985 S    
C9    C113  1.454379 S    
Zn8   O45   1.957432 S    
C190  H120  1.111057 S    
O27   C6    1.287310 A    
C184  H95   1.111304 S    
H15   C34   1.113441 S    
C133  C137  1.383481 A    
C74   C90   1.417513 A    
C106  C114  1.417450 A    
C24   C40   1.500157 S    
N13   C193  1.449650 S    
C26   C38   1.572665 S    
C98   C110  1.418234 A    
N9    C189  1.447275 S    
O24   C1    1.276406 A    
C122  N2    1.416635 S    
C104  C128  1.426570 A    
C79   C83   1.407384 A    
C168  C172  1.414255 A    
H21   C137  1.082479 S    
O43   C22   1.277601 A    
C129  H65   1.080361 S    
C34   C38   1.552951 S    
Zn3   O15   1.933783 S    
N10   C190  1.445318 S    
C28   C200  1.485639 S    
N4    C184  1.451058 S    
Zn5   O12   1.938380 S    
C76   C88   1.411864 A    
Zn6   O11   1.936320 S    
C77   C81   1.409755 A    
C73   C85   1.407887 A    
C87   C119  1.408889 A    
Zn9   O21   1.936249 S    
Zn14  O50   1.960397 S    
C178  N9    1.426167 S    
H13   C33   1.113421 S    
N6    C186  1.447567 S    
C136  H64   1.082910 S    
C154  N14   1.419407 S    
C181  H83   1.103495 S    
O35   C14   1.276655 A    
C25   C197  1.482555 S    
N9    H113  1.030907 S    
C5    C95   1.450446 S    
C6    C96   1.488524 S    
C137  C145  1.386376 A    
C54   H42   1.082431 S    
O52   C20   1.273114 A    
C42   C82   1.411967 A    
C153  C162  1.437241 A    
C127  N7    1.418288 S    
C10   C114  1.464568 S    
O22   C3    1.283965 A    
C91   C99   1.426794 A    
Zn7   O19   1.933783 S    
C43   H31   1.078771 S    
O20   C16   1.277786 A    
C89   C97   1.431647 A    
C155  N15   1.428959 S    
Zn13  O32   1.928384 S    
C85   C117  1.409284 A    
O49   C17   1.290460 A    
Zn14  O31   1.936499 S    
C186  H102  1.109988 S    
O51   C19   1.300254 A    
C75   C91   1.415312 A    
C140  C148  1.391874 A    
C28   H4    1.114105 S    
H17   C35   1.113464 S    
C73   C89   1.416503 A    
C188  H110  1.108642 S    
Zn4   O5    1.933740 S    
N12   C192  1.447190 S    
C76   C92   1.413993 A    
C77   C93   1.416658 A    
O10   C6    1.292885 A    
O23   C2    1.284523 A    
H27   C143  1.081434 S    
C28   C37   1.572667 S    
Zn11  O25   1.936249 S    
Zn10  O38   1.954381 S    
C7    C93   1.448474 S    
C202  N22   1.156788 T    
H14   C34   1.113532 S    
O45   C23   1.270558 A    
C185  H100  1.110663 S    
C103  C127  1.428764 A    
C60   C68   1.393788 A    
C196  H143  1.111647 S    
C201  N21   1.157487 T    
C54   C58   1.388256 A    
C183  H92   1.111153 S    
C86   C118  1.410444 A    
N3    H89   1.030883 S    
C146  H70   1.080334 S    
O17   C13   1.281256 A    
C70   H58   1.080884 S    
C59   H47   1.082411 S    
C16   C120  1.453110 S    
C195  H140  1.109675 S    
