data_mof_unit_36895.cif
_audit_creation_date              2012-12-10T19:45:55-0500
_audit_creation_method            fapswitch 2.2
_symmetry_space_group_name_H-M    P1
_symmetry_Int_Tables_number       1
_space_group_crystal_system       triclinic
_cell_length_a                    10.322312
_cell_length_b                    14.927537
_cell_length_c                    14.198583
_cell_angle_alpha                 88.296096
_cell_angle_beta                  100.064986
_cell_angle_gamma                 91.987945
_cell_volume                      2152.22313902

loop_
_atom_site_label
_atom_site_type_symbol
_atom_type_description
_atom_site_fract_x
_atom_site_fract_y
_atom_site_fract_z
_atom_type_partial_charge
C1    C     C_R   0.498874 0.327534 0.500860 1.038667
C2    C     C_R   0.490181 0.672457 0.497354 0.881160
C3    C     C_R   0.434894 0.047878 0.504173 0.078594
C4    C     C_R   0.429538 0.951666 0.496721 0.060375
C5    C     C_R   0.387475 0.475775 0.091172 -0.275092
C6    C     C_R   0.543761 0.578311 0.896928 -0.268406
C7    C     C_R   0.390651 0.472342 0.190679 -0.005988
C8    C     C_R   0.545270 0.574547 0.798050 -0.029401
C9    C     C_R   0.608981 0.532659 0.216764 -0.019147
C10   C     C_R   0.455663 0.426510 0.795141 -0.026879
C11   C     C_R   0.612802 0.530987 0.117557 0.305741
C12   C     C_R   0.461198 0.425389 0.895517 0.308965
C13   C     C_R   0.499063 0.505397 0.052974 0.037334
C14   C     C_R   0.499838 0.503683 0.947001 0.018846
C15   C     C_R   0.256669 0.495374 0.462902 0.999428
C16   C     C_R   0.742992 0.495224 0.536921 1.003555
C17   C     C_2   0.114724 0.483594 0.448294 -0.453063
C18   C     C_2   0.880489 0.471479 0.548597 -0.423511
C19   C     C_2   0.057904 0.409420 0.481625 0.366232
C20   C     C_2   0.915924 0.414333 0.486045 0.398997
C21   C     C_R   0.524235 0.086570 0.577788 -0.217269
C22   C     C_R   0.460762 0.914449 0.415008 -0.225747
C23   C     C_R   0.552308 0.178081 0.575827 -0.123464
C24   C     C_R   0.472232 0.822583 0.409830 -0.095306
C25   C     C_R   0.482691 0.231085 0.500585 -0.209822
C26   C     C_R   0.458703 0.767656 0.491349 -0.246532
C27   C     C_R   0.388462 0.192689 0.426926 0.495625
C28   C     C_R   0.413239 0.805721 0.569727 0.468803
C29   C     C_R   0.367094 0.099654 0.429745 -0.331920
C30   C     C_R   0.402895 0.897812 0.572810 -0.269084
H1    H     H_    0.953283 0.506089 0.600747 0.100893
H2    H     H_    0.056742 0.541550 0.422462 0.133977
H3    H     H_    0.579384 0.043981 0.632696 0.189279
H4    H     H_    0.478174 0.957718 0.355410 0.169886
H5    H     H_    0.301085 0.065657 0.373540 0.128415
H6    H     H_    0.375226 0.927322 0.635002 0.163260
H7    H     H_    0.297973 0.454951 0.044169 0.190558
H8    H     H_    0.576545 0.639519 0.934049 0.202754
H9    H     H_    0.303999 0.449336 0.218221 0.164412
H10   H     H_    0.580932 0.632416 0.761581 0.188047
N1    N     N_R   0.500000 0.499980 0.252470 -0.134863
N2    N     N_R   0.500000 0.500020 0.747530 -0.152352
O1    O     O_R   0.500010 0.369070 0.579480 -0.607264
O2    O     O_R   0.499990 0.630930 0.420520 -0.556470
O3    O     O_R   0.500010 0.369060 0.420520 -0.561682
O4    O     O_R   0.499990 0.630940 0.579480 -0.590364
O5    O     O_R   0.317810 0.500010 0.549800 -0.579923
O6    O     O_R   0.682190 0.499990 0.450200 -0.579408
O7    O     O_R   0.317810 0.500000 0.390840 -0.614516
O8    O     O_R   0.682190 0.500000 0.609160 -0.609599
Zn1   Zn    Zn3+2 0.500000 0.500010 0.606140 0.999967
Zn2   Zn    Zn3+2 0.500000 0.499990 0.393860 1.033966
O9    O     O_3   0.818585 0.361475 0.430144 -0.585958
C31   C     C_3   0.857583 0.331087 0.346297 0.097774
H11   H     H_    0.930043 0.277266 0.363808 0.154931
H12   H     H_    0.900713 0.386583 0.306728 0.175791
C32   C     C_3   0.737540 0.292235 0.280851 -0.816162
H13   H     H_    0.662925 0.344355 0.260893 0.259469
H14   H     H_    0.766709 0.267803 0.214679 0.185429
H15   H     H_    0.693317 0.235378 0.317786 0.267205
O10   O     O_3   0.128995 0.330940 0.501936 -0.590733
C33   C     C_3   0.068867 0.268860 0.559922 0.178246
H16   H     H_    0.966772 0.249181 0.526974 0.160316
H17   H     H_    0.067033 0.297690 0.631017 0.186539
C34   C     C_3   0.145651 0.182924 0.573864 -0.827581
H18   H     H_    0.252592 0.198506 0.589872 0.274411
H19   H     H_    0.116603 0.141926 0.633747 0.213891
H20   H     H_    0.124327 0.143061 0.507970 0.225063
O11   O     O_3   0.726246 0.559507 0.084361 -0.599243
C35   C     C_3   0.798798 0.483757 0.070467 0.125146
H21   H     H_    0.753705 0.450115 0.003324 0.122581
H22   H     H_    0.804749 0.434176 0.131298 0.133545
C36   C     C_3   0.938548 0.513870 0.061617 -0.758349
H23   H     H_    0.987145 0.547090 0.128095 0.278983
H24   H     H_    0.996165 0.454882 0.050203 0.188791
H25   H     H_    0.937009 0.561654 0.999988 0.252500
O12   O     O_3   0.416926 0.349792 0.940950 -0.604928
C37   C     C_3   0.526468 0.301567 0.987455 0.139012
H26   H     H_    0.584457 0.340089 0.047071 0.102868
H27   H     H_    0.592383 0.284700 0.936612 0.172169
C38   C     C_3   0.477773 0.214743 0.029966 -0.754938
H28   H     H_    0.420806 0.173303 0.972391 0.271877
H29   H     H_    0.562925 0.176359 0.067052 0.199195
H30   H     H_    0.413813 0.229768 0.082494 0.248894
C39   C     C_2   0.660895 0.214096 0.649345 0.952560
O13   O     O_2   0.729735 0.278115 0.630352 -0.651629
O14   O     O_R   0.687630 0.172218 0.739792 -0.791981
H31   H     H_    0.763928 0.202317 0.783468 0.336736
C40   C     C_2   0.495985 0.789295 0.317365 1.007005
O15   O     O_2   0.419494 0.734390 0.273559 -0.607330
O16   O     O_R   0.600267 0.826350 0.276719 -0.797191
H32   H     H_    0.604784 0.800060 0.212380 0.351746
O17   O     O_3   0.327096 0.248861 0.352729 -0.590015
C41   C     C_3   0.208516 0.213000 0.300462 0.137635
H33   H     H_    0.141328 0.187374 0.349054 0.143930
H34   H     H_    0.229300 0.159118 0.253261 0.135099
C42   C     C_3   0.138918 0.286394 0.236316 -0.851975
H35   H     H_    0.196979 0.306514 0.179883 0.247016
H36   H     H_    0.040171 0.261345 0.201324 0.199117
H37   H     H_    0.127162 0.345649 0.279187 0.264892
O18   O     O_3   0.382663 0.753837 0.645633 -0.599146
C43   C     C_3   0.247549 0.728971 0.625102 0.112690
H38   H     H_    0.222482 0.694114 0.555561 0.120375
H39   H     H_    0.185961 0.789087 0.622804 0.135121
C44   C     C_3   0.214014 0.664888 0.703244 -0.778937
H40   H     H_    0.107011 0.647507 0.689323 0.192662
H41   H     H_    0.269335 0.602354 0.704308 0.271560
H42   H     H_    0.239760 0.696656 0.774086 0.254275
C45   C     C_2   0.723112 0.574022 0.279672 1.022248
O19   O     O_2   0.833653 0.547195 0.280091 -0.681778
O20   O     O_R   0.706202 0.647269 0.334431 -0.772428
H43   H     H_    0.791940 0.670417 0.373434 0.322165
C46   C     C_2   0.393737 0.348690 0.742905 0.992475
O21   O     O_2   0.301936 0.359475 0.677424 -0.613845
O22   O     O_R   0.435228 0.262498 0.771868 -0.793219
H44   H     H_    0.381278 0.213595 0.734034 0.332769

loop_
_geom_bond_atom_site_label_1
_geom_bond_atom_site_label_2
_ccdc_geom_bond_type
O14   H31   S    
O17   C41   S    
C5    H7    S    
C10   N2    A    
C36   H23   S    
O20   H43   S    
C15   O5    A    
O1    Zn1   S    
C24   C40   S    
C16   O6    A    
C42   H35   S    
C39   O13   D    
C2    O4    A    
C44   H41   S    
O18   C43   S    
C24   C26   A    
O11   C35   S    
C45   O20   S    
C37   H27   S    
C32   H14   S    
C21   H3    S    
O22   H44   S    
C27   C29   A    
C43   C44   S    
C3    C29   A    
C33   H17   S    
C38   H29   S    
C28   O18   S    
C1    O1    A    
C19   C20   S    
C2    O2    A    
C34   H19   S    
C6    H8    S    
C35   H21   S    
C40   O16   S    
N1    Zn2   S    
C5    C13   A    
O10   C33   S    
N2    Zn1   S    
O2    Zn2   S    
C7    N1    A    
C13   C14   S    
C1    C25   S    
C36   H24   S    
C41   H33   S    
C42   H36   S    
C38   H28   S    
C39   O14   S    
C9    C45   S    
C22   H4    S    
C44   H42   S    
C31   H12   S    
O16   H32   S    
C5    C7    A    
C37   H26   S    
C32   H15   S    
C6    C8    A    
C41   C42   S    
O12   C37   S    
O4    Zn1   S    
C43   H39   S    
C33   H16   S    
C6    C14   A    
C4    C22   A    
C34   H20   S    
C12   O12   S    
C35   C36   S    
O8    Zn1   S    
C2    C26   S    
C41   H34   S    
C9    C11   A    
C10   C46   S    
C10   C12   A    
C12   C14   A    
C21   C23   A    
C36   H25   S    
C22   C24   A    
C27   O17   S    
C3    C4    S    
C38   H30   S    
C46   O21   D    
C15   C17   S    
C31   H11   S    
C42   H37   S    
C33   C34   S    
C9    N1    A    
O7    Zn2   S    
C8    N2    A    
C20   O9    S    
O5    Zn1   S    
C11   O11   S    
O9    C31   S    
C25   C27   A    
C44   H40   S    
C29   H5    S    
C26   C28   A    
O3    Zn2   S    
C30   H6    S    
C28   C30   A    
C45   O19   D    
C11   C13   A    
C37   C38   S    
C1    O3    A    
C32   H13   S    
C19   O10   S    
C17   C19   D    
C18   C20   D    
C15   O7    A    
C43   H38   S    
C16   O8    A    
C3    C21   A    
O6    Zn2   S    
C23   C25   A    
C16   C18   S    
C34   H18   S    
C23   C39   S    
C17   H2    S    
C7    H9    S    
C35   H22   S    
C18   H1    S    
C8    H10   S    
C40   O15   D    
C4    C30   A    
C46   O22   S    
C31   C32   S    
