data_mof_unit_42371.cif
_audit_creation_date              2012-10-26T20:32:02-0400
_audit_creation_method            fapswitch 2.2
_symmetry_space_group_name_H-M    P1
_symmetry_Int_Tables_number       1
_space_group_crystal_system       triclinic
_cell_length_a                    10.629263
_cell_length_b                    10.866605
_cell_length_c                    9.560091
_cell_angle_alpha                 89.677587
_cell_angle_beta                  90.668463
_cell_angle_gamma                 90.155508
_cell_volume                      1104.13226903

loop_
_atom_site_label
_atom_site_type_symbol
_atom_type_description
_atom_site_fract_x
_atom_site_fract_y
_atom_site_fract_z
_atom_type_partial_charge
C1    C     C_R   0.498609 0.262656 0.500160 0.543545
C2    C     C_R   0.495896 0.936569 0.620223 0.000096
C3    C     C_3   0.489665 0.924313 0.775157 -0.242589
C4    C     C_R   0.259365 0.499826 0.499117 0.549345
C5    C     C_3   0.481934 0.066345 0.776736 -0.105349
C6    C     C_R   0.589216 0.564616 0.074408 0.157357
C7    C     C_R   0.404552 0.447546 0.073534 -0.020186
C8    C     C_R   0.404071 0.448450 0.924897 -0.016213
C9    C     C_R   0.589248 0.564437 0.927094 0.156910
C10   C     C_3   0.727695 0.544356 0.923635 -0.283915
C11   C     C_3   0.727957 0.545007 0.081971 -0.276395
C12   C     C_3   0.957231 0.601358 0.434520 -0.126242
C13   C     C_R   0.500989 0.737171 0.499517 0.549714
C14   C     C_R   0.740755 0.499802 0.500728 0.549872
C15   C     C_3   0.043242 0.397822 0.564079 -0.126524
C16   C     C_3   0.956727 0.399271 0.432870 -0.127241
C17   C     C_3   0.877815 0.499537 0.501660 0.045706
C18   C     C_3   0.962233 0.498059 0.632824 -0.115848
C19   C     C_3   0.043692 0.599934 0.565755 -0.122074
C20   C     C_3   0.354272 0.115182 0.825465 -0.273152
C21   C     C_3   0.347954 0.116715 0.984789 -0.458736
C22   C     C_3   0.038457 0.501109 0.365788 -0.116976
C23   C     C_3   0.122538 0.499690 0.497299 0.048606
C24   C     C_R   0.490589 0.060487 0.620893 0.013366
C25   C     C_R   0.497218 0.129827 0.498679 0.000293
C26   C     C_R   0.504610 0.065241 0.371124 -0.166515
C27   C     C_R   0.506095 0.936149 0.370490 -0.166608
C28   C     C_R   0.501702 0.869669 0.497576 0.005302
Cu1   Cu    Cu3+1 0.499990 0.499980 0.640670 0.922297
Cu2   Cu    Cu3+1 0.500010 0.500020 0.359330 0.923253
H1    H     H_    0.918013 0.317153 0.378644 0.103318
H2    H     H_    0.081596 0.314543 0.616986 0.097361
H3    H     H_    0.931637 0.496362 0.743028 0.104118
H4    H     H_    0.082286 0.682106 0.619990 0.105533
H5    H     H_    0.918907 0.684641 0.381633 0.102129
H6    H     H_    0.072262 0.502330 0.256335 0.110004
H7    H     H_    0.509724 0.113701 0.272099 0.133700
H8    H     H_    0.511072 0.889232 0.271049 0.133710
H9    H     H_    0.403065 0.875391 0.808989 0.142828
H10   H     H_    0.357007 0.021898 0.027679 0.154062
H11   H     H_    0.424672 0.174932 0.028648 0.149583
H12   H     H_    0.578743 0.887873 0.820982 0.120811
H13   H     H_    0.256291 0.155261 0.017422 0.128986
H14   H     H_    0.340759 0.209900 0.784953 0.165432
H15   H     H_    0.275646 0.058203 0.783109 0.144768
H16   H     H_    0.565324 0.112256 0.825026 0.144292
H17   H     H_    0.328921 0.402054 0.128296 0.113154
H18   H     H_    0.326865 0.405624 0.869170 0.110556
H19   H     H_    0.752374 0.452955 0.880260 0.145296
H20   H     H_    0.778227 0.624231 0.877430 0.119688
H21   H     H_    0.754147 0.454381 0.128244 0.152305
H22   H     H_    0.778420 0.625401 0.127401 0.121221
N1    N     N_R   0.500800 0.500930 0.147930 -0.231587
N2    N     N_R   0.500800 0.500890 0.852020 -0.231085
O1    O     O_R   0.500000 0.319640 0.618810 -0.507298
O2    O     O_R   0.500010 0.319680 0.381230 -0.509562
O3    O     O_R   0.316850 0.499950 0.618770 -0.514358
O4    O     O_R   0.316860 0.499990 0.381190 -0.511157
O5    O     O_R   0.499990 0.680320 0.618770 -0.497888
O6    O     O_R   0.500000 0.680360 0.381190 -0.504644
O7    O     O_R   0.683140 0.500010 0.618810 -0.507874
O8    O     O_R   0.683150 0.500050 0.381230 -0.508501

loop_
_geom_bond_atom_site_label_1
_geom_bond_atom_site_label_2
_ccdc_geom_bond_type
C4    O3    A    
C12   C17   S    
C15   C18   S    
C19   C23   S    
C8    H18   S    
C26   H7    S    
Cu1   Cu2   S    
C13   O5    A    
C22   H6    S    
C9    C10   S    
C11   H22   S    
C20   H15   S    
C6    C11   S    
C16   H1    S    
C3    C5    S    
C6    C9    A    
C15   C23   S    
C2    C3    S    
C1    O1    A    
C3    H9    S    
C15   H2    S    
C13   C28   S    
C13   O6    A    
C24   C25   A    
C12   H5    S    
C1    C25   S    
C10   H19   S    
C14   C17   S    
C26   C27   A    
C21   H10   S    
C10   H20   S    
C21   H11   S    
Cu2   O4    S    
C12   C19   S    
Cu1   O1    S    
Cu2   N1    S    
C1    O2    A    
Cu1   O3    S    
C17   C18   S    
Cu2   O8    S    
C2    C24   A    
C18   H3    S    
Cu1   O7    S    
C11   H21   S    
C10   C11   S    
C7    N1    A    
C6    N1    A    
C4    O4    A    
C15   C16   S    
C14   O8    A    
C12   C22   S    
C7    C8    A    
C3    H12   S    
C20   C21   S    
C18   C19   S    
Cu1   N2    S    
C8    N2    A    
C27   C28   A    
C5    C20   S    
C4    C23   S    
C2    C28   A    
C22   C23   S    
C5    C24   S    
C16   C22   S    
C9    N2    A    
C27   H8    S    
C20   H14   S    
C25   C26   A    
C21   H13   S    
C14   O7    A    
Cu2   O2    S    
Cu1   O5    S    
C7    H17   S    
C16   C17   S    
C5    H16   S    
C19   H4    S    
Cu2   O6    S    
