data_mof_unit_67665.cif
_audit_creation_date              2012-12-10T19:42:34-0500
_audit_creation_method            fapswitch 2.2
_symmetry_space_group_name_H-M    P1
_symmetry_Int_Tables_number       1
_space_group_crystal_system       triclinic
_cell_length_a                    10.993051
_cell_length_b                    10.968924
_cell_length_c                    9.855486
_cell_angle_alpha                 98.113951
_cell_angle_beta                  97.829523
_cell_angle_gamma                 92.600862
_cell_volume                      1162.99795252

loop_
_atom_site_label
_atom_site_type_symbol
_atom_type_description
_atom_site_fract_x
_atom_site_fract_y
_atom_site_fract_z
_atom_type_partial_charge
C1    C     C_R   0.498878 0.262179 0.500124 0.788191
C2    C     C_R   0.507514 0.737898 0.499957 0.802443
C3    C     C_R   0.870441 0.482171 0.500762 -0.089963
C4    C     C_R   0.126792 0.493144 0.496662 -0.099920
C5    C     C_R   0.953802 0.493870 0.625407 0.028127
C6    C     C_R   0.042934 0.473280 0.371330 0.024396
C7    C     C_R   0.238918 0.056436 0.054540 -0.273948
C8    C     C_R   0.798554 0.903500 0.916525 -0.224784
C9    C     C_R   0.287943 0.045383 0.190802 -0.225335
C10   C     C_R   0.742441 0.924386 0.786257 -0.233417
C11   C     C_R   0.413130 0.075634 0.239331 0.147973
C12   C     C_R   0.613712 0.921853 0.756476 0.147216
C13   C     C_R   0.487251 0.123001 0.151763 -0.182212
C14   C     C_R   0.542102 0.895788 0.857449 -0.160038
C15   C     C_R   0.437809 0.137285 0.017269 -0.217517
C16   C     C_R   0.598392 0.874815 0.987184 -0.257021
C17   C     C_R   0.314724 0.101629 0.964609 0.514055
C18   C     C_R   0.726394 0.881391 0.018788 0.501927
C19   C     C_R   0.482256 0.918120 0.378798 -0.272433
C20   C     C_R   0.547212 0.083900 0.620631 -0.215985
C21   C     C_R   0.516699 0.872797 0.502280 -0.102905
C22   C     C_R   0.502425 0.128102 0.497999 -0.087882
C23   C     C_R   0.261947 0.499236 0.499978 0.793894
C24   C     C_R   0.737099 0.493213 0.499599 0.785995
C25   C     C_R   0.555401 0.957824 0.624747 0.016127
C26   C     C_R   0.468318 0.042854 0.374627 0.016373
C27   C     C_2   0.510144 0.509570 0.077968 -0.126827
C28   C     C_2   0.490846 0.488927 0.921608 -0.092492
C29   C     C_R   0.166761 0.556039 0.054262 0.258147
C30   C     C_R   0.810496 0.420941 0.935648 0.246015
C31   C     C_R   0.120775 0.567840 0.181545 -0.094496
C32   C     C_R   0.855860 0.404475 0.807985 -0.101938
C33   C     C_R   0.082385 0.462333 0.233934 0.103792
C34   C     C_R   0.913952 0.504969 0.762760 0.110299
C35   C     C_R   0.084648 0.345739 0.156950 -0.141693
C36   C     C_R   0.927602 0.620056 0.845164 -0.168998
C37   C     C_R   0.122468 0.334550 0.027298 -0.166777
C38   C     C_R   0.892214 0.633581 0.976057 -0.172668
C39   C     C_R   0.167763 0.437849 0.978353 -0.175710
C40   C     C_R   0.830363 0.536327 0.019714 -0.164149
C41   C     C_R   0.916667 0.464734 0.375274 -0.256740
C42   C     C_R   0.079866 0.502691 0.621298 -0.258827
Cu1   Cu    Cu3+1 0.521120 0.521140 0.639640 0.954724
Cu2   Cu    Cu3+1 0.478880 0.478860 0.360360 0.950743
H1    H     H_    0.204991 0.423851 0.882285 0.129602
H2    H     H_    0.794825 0.553359 0.116838 0.134900
H3    H     H_    0.583074 0.150077 0.187955 0.140573
H4    H     H_    0.443036 0.892721 0.836394 0.145436
H5    H     H_    0.496318 0.174776 0.951720 0.148950
H6    H     H_    0.543372 0.854305 0.064574 0.147275
H7    H     H_    0.465924 0.855506 0.283938 0.170499
H8    H     H_    0.577563 0.147798 0.714164 0.156234
H9    H     H_    0.424033 0.416634 0.867207 0.174534
H10   H     H_    0.577809 0.581216 0.132157 0.172195
H11   H     H_    0.614971 0.621639 0.903332 0.226417
H12   H     H_    0.385430 0.377987 0.097075 0.226604
H13   H     H_    0.115848 0.658045 0.240731 0.110240
H14   H     H_    0.840065 0.316426 0.740785 0.107309
H15   H     H_    0.057874 0.263705 0.197638 0.137494
H16   H     H_    0.968532 0.698619 0.808861 0.129829
H17   H     H_    0.117634 0.245579 0.964974 0.160094
H18   H     H_    0.915418 0.719090 0.044639 0.188949
H19   H     H_    0.854115 0.445423 0.279591 0.159104
H20   H     H_    0.141939 0.520121 0.716292 0.148721
H21   H     H_    0.142497 0.029703 0.022895 0.120762
H22   H     H_    0.897926 0.906810 0.938526 0.123082
H23   H     H_    0.229080 0.008814 0.257171 0.149551
H24   H     H_    0.799165 0.945387 0.709843 0.134472
N1    N     N_2   0.447120 0.447110 0.150550 -0.282082
N2    N     N_2   0.552880 0.552890 0.849450 -0.285078
O1    O     O_R   0.517830 0.337490 0.617920 -0.589211
O2    O     O_R   0.482170 0.662510 0.382080 -0.584951
O3    O     O_R   0.482150 0.301790 0.382070 -0.572306
O4    O     O_R   0.517850 0.698210 0.617930 -0.565785
O5    O     O_R   0.337480 0.517860 0.617920 -0.585869
O6    O     O_R   0.662520 0.482140 0.382080 -0.592365
O7    O     O_R   0.301810 0.482160 0.382070 -0.559302
O8    O     O_R   0.698190 0.517840 0.617930 -0.566049
C43   C     C_3   0.208014 0.668460 0.995884 -0.463284
C44   C     C_3   0.305651 0.748502 0.094271 -0.856758
H25   H     H_    0.267868 0.787763 0.188493 0.248474
H26   H     H_    0.384663 0.694948 0.123396 0.281695
H27   H     H_    0.336606 0.824808 0.042147 0.242595
H28   H     H_    0.245127 0.642404 0.897491 0.215558
H29   H     H_    0.130647 0.727204 0.976629 0.202129
C45   C     C_3   0.730095 0.321048 0.974730 -0.436241
C46   C     C_3   0.797756 0.206911 0.999067 -0.891034
H30   H     H_    0.851795 0.176926 0.914434 0.254875
H31   H     H_    0.858422 0.224593 0.099668 0.254702
H32   H     H_    0.728574 0.132171 0.004664 0.252545
H33   H     H_    0.691206 0.353868 0.070521 0.213492
H34   H     H_    0.652250 0.296327 0.890114 0.209376
O9    O     O_3   0.275349 0.123672 0.829892 -0.640319
C47   C     C_3   0.168910 0.052455 0.759450 0.041988
H35   H     H_    0.140727 0.093131 0.663909 0.182190
H36   H     H_    0.088511 0.060034 0.816096 0.105225
C48   C     C_3   0.195763 0.917874 0.715331 -0.366451
H37   H     H_    0.278240 0.915230 0.661386 0.233919
H38   H     H_    0.213920 0.870788 0.807917 0.207280
C49   C     C_3   0.087686 0.848757 0.616915 -0.934371
H39   H     H_    0.002429 0.852987 0.665652 0.249524
H40   H     H_    0.107934 0.750961 0.590625 0.265898
H41   H     H_    0.073060 0.889523 0.519699 0.261851
O10   O     O_3   0.779827 0.854025 0.145254 -0.651782
C50   C     C_3   0.801967 0.961999 0.244267 0.059755
H42   H     H_    0.776486 0.938360 0.343186 0.176564
H43   H     H_    0.745740 0.039278 0.218047 0.121492
C51   C     C_3   0.938582 0.004712 0.266807 -0.371756
H44   H     H_    0.994799 0.926271 0.288899 0.219142
H45   H     H_    0.963487 0.035882 0.171199 0.204421
C52   C     C_3   0.968091 0.110668 0.387044 -0.949582
H46   H     H_    0.914587 0.190927 0.365211 0.263516
H47   H     H_    0.067731 0.139482 0.401652 0.256133
H48   H     H_    0.945170 0.081152 0.484336 0.251654

loop_
_geom_bond_atom_site_label_1
_geom_bond_atom_site_label_2
_ccdc_geom_bond_type
C38   C40   A    
C46   H30   S    
C8    H22   S    
O9    C47   S    
C52   H46   S    
C32   H14   S    
C5    C42   A    
C48   H37   S    
C27   H10   S    
Cu1   O8    S    
C40   H2    S    
C50   H43   S    
C1    O1    A    
Cu2   O7    S    
C19   C21   A    
C16   H6    S    
C45   H33   S    
C43   H28   S    
C20   C25   A    
C51   H44   S    
C35   H15   S    
Cu2   O6    S    
C19   C26   A    
C7    C17   A    
C6    C41   A    
C31   C33   A    
C30   C45   S    
C27   N1    D    
C39   H1    S    
Cu1   O4    S    
C1    C22   S    
C3    C24   S    
C47   H35   S    
C44   H27   S    
C2    O2    A    
O10   C50   S    
C48   H38   S    
Cu1   O5    S    
C50   C51   S    
C4    C6    A    
C13   H3    S    
C4    C23   S    
C45   C46   S    
C24   O6    A    
C14   H4    S    
C11   C26   S    
C3    C5    A    
C49   H41   S    
C8    C18   A    
C32   C34   A    
Cu1   Cu2   S    
C9    H23   S    
C7    H21   S    
C29   C43   S    
C29   C31   A    
C5    C34   S    
C29   C39   A    
C2    C21   S    
C49   H40   S    
C30   C40   A    
Cu2   N1    S    
C52   H47   S    
C16   C18   A    
C18   O10   S    
C23   O7    A    
C47   H36   S    
C9    C11   A    
C10   C12   A    
C24   O8    A    
C20   C22   A    
Cu1   N2    S    
C13   C15   A    
C14   C16   A    
C17   O9    S    
C41   H19   S    
C42   H20   S    
C43   H29   S    
C48   C49   S    
C7    C9    A    
C21   C25   A    
C3    C41   A    
Cu1   O1    S    
C35   C37   A    
C28   N2    D    
C23   O5    A    
C44   H25   S    
C36   H16   S    
C2    O4    A    
C37   H17   S    
C28   H9    S    
C51   C52   S    
C15   C17   A    
C10   H24   S    
C50   H42   S    
C47   C48   S    
C6    C33   S    
C12   C25   S    
C20   H8    S    
C1    O3    A    
C31   H13   S    
C36   C38   A    
C12   C14   A    
C37   C39   A    
C45   H34   S    
C30   C32   A    
C11   C13   A    
C4    C42   A    
C49   H39   S    
C33   C35   A    
C44   H26   S    
C51   H45   S    
Cu2   O2    S    
C52   H48   S    
C34   C36   A    
C15   H5    S    
Cu2   O3    S    
H11   N2    S    
C43   C44   S    
C19   H7    S    
C8    C10   A    
H12   N1    S    
C22   C26   A    
C46   H32   S    
C27   C28   S    
C46   H31   S    
C38   H18   S    
