data_mof_unit_48203.cif
_audit_creation_date              2013-03-05T15:52:43-0500
_audit_creation_method            fapswitch 2.2
_symmetry_space_group_name_H-M    P1
_symmetry_Int_Tables_number       1
_space_group_crystal_system       triclinic
_cell_length_a                    10.755096
_cell_length_b                    10.745874
_cell_length_c                    17.037851
_cell_angle_alpha                 99.978264
_cell_angle_beta                  100.154381
_cell_angle_gamma                 61.475178
_cell_volume                      1693.92581712

loop_
_atom_site_label
_atom_site_type_symbol
_atom_site_description
_atom_site_fract_x
_atom_site_fract_y
_atom_site_fract_z
_atom_type_partial_charge
O1    O     O_R   0.749250 0.499990 0.439200 -0.488007
O2    O     O_R   0.477870 0.725740 0.440280 -0.503629
C1    C     C_R   0.354332 0.775964 0.402241 0.589027
O3    O     O_R   0.260770 0.742210 0.412610 -0.475778
O4    O     O_R   0.297990 0.466320 0.394220 -0.473344
C2    C     C_R   0.369833 0.346567 0.357048 0.552340
O5    O     O_R   0.487720 0.253870 0.385870 -0.538525
O6    O     O_R   0.721940 0.304340 0.422320 -0.504844
C3    C     C_R   0.777008 0.375499 0.405009 0.588145
O7    O     O_R   0.750770 0.502570 0.614050 -0.498800
O8    O     O_R   0.479280 0.728140 0.602370 -0.483775
C4    C     C_R   0.380655 0.716493 0.631542 0.584594
O9    O     O_R   0.262290 0.744790 0.587460 -0.500564
O10   O     O_R   0.299400 0.468710 0.556310 -0.511153
C5    C     C_R   0.366485 0.344426 0.579076 0.589977
O11   O     O_R   0.489240 0.256450 0.560730 -0.521665
O12   O     O_R   0.723350 0.306730 0.584410 -0.494432
C6    C     C_R   0.778952 0.378471 0.628670 0.593058
Cr1   Cr    Cr6+3 0.608020 0.610770 0.522990 1.070452
Cr2   Cr    Cr6+3 0.289390 0.599570 0.488050 1.083980
Cr3   Cr    Cr6+3 0.602610 0.289690 0.489020 1.037437
O13   O     O_3   0.500010 0.500010 0.500020 -0.283026
C7    C     C_1   0.343713 0.337043 0.273669 -0.002955
C8    C     C_1   0.332383 0.327534 0.202827 0.030832
C9    C     C_2   0.845208 0.324068 0.331478 -0.090948
C10   C     C_2   0.817628 0.339829 0.156450 0.192800
C11   C     C_2   0.817531 0.232850 0.188910 0.155900
C12   C     C_2   0.798666 0.248110 0.273789 -0.095887
H1    H     H_    0.734297 0.202942 0.287109 0.165557
H2    H     H_    0.911671 0.367598 0.319271 0.134672
C13   C     C_2   0.333069 0.847551 0.332967 -0.086822
C14   C     C_2   0.348302 0.818076 0.157868 0.215931
C15   C     C_2   0.438225 0.847766 0.216808 -0.010200
C16   C     C_2   0.448413 0.815964 0.298213 -0.066596
H3    H     H_    0.554695 0.759434 0.328470 0.196269
H4    H     H_    0.226336 0.904472 0.303121 0.136731
C17   C     C_2   0.339462 0.323680 0.653749 0.214930
C18   C     C_2   0.335409 0.356770 0.836752 -0.059912
C19   C     C_2   0.443106 0.284402 0.791568 0.030310
C20   C     C_2   0.423172 0.345516 0.718430 0.111607
H5    H     H_    0.251080 0.460653 0.821223 0.102278
C21   C     C_1   0.850411 0.327771 0.704522 0.022411
C22   C     C_1   0.897517 0.292121 0.771070 -0.013096
C23   C     C_1   0.356947 0.768106 0.713279 0.017752
C24   C     C_1   0.323485 0.814371 0.779927 -0.007074
O14   O     O_R   0.170650 0.915100 0.051290 -0.434972
O15   O     O_R   0.941960 0.184500 0.049060 -0.468559
C25   C     C_R   0.892795 0.308957 0.086366 0.558133
O16   O     O_R   0.922640 0.402670 0.071640 -0.455208
O17   O     O_R   0.196880 0.368740 0.083740 -0.468145
C26   C     C_R   0.319416 0.300240 0.119563 0.584389
O18   O     O_R   0.411120 0.181190 0.091480 -0.507436
O19   O     O_R   0.364220 0.944920 0.062310 -0.544890
C27   C     C_R   0.293806 0.892789 0.085051 0.529132
O20   O     O_R   0.158740 0.906940 0.874970 -0.513226
O21   O     O_R   0.930920 0.176940 0.885610 -0.500103
C28   C     C_R   0.944802 0.272674 0.854015 0.559194
O22   O     O_R   0.910730 0.394510 0.895320 -0.496496
O23   O     O_R   0.185840 0.361180 0.920280 -0.507264
C29   C     C_R   0.308255 0.295028 0.895996 0.573189
O24   O     O_R   0.399210 0.173040 0.915160 -0.507549
O25   O     O_R   0.353170 0.937370 0.898860 -0.488599
C30   C     C_R   0.279458 0.881947 0.856954 0.549794
Cr4   Cr    Cr6+3 0.053780 0.052210 0.965970 1.101967
Cr5   Cr    Cr6+3 0.060060 0.372530 0.992430 1.109899
Cr6   Cr    Cr6+3 0.372600 0.061970 0.991430 1.059387
O26   O     O_3   0.162150 0.162240 0.983280 -0.308192
N1    N     N_R   0.824712 0.105593 0.141095 0.079005
O27   O     O_R   0.883569 0.986302 0.173340 -0.303040
O28   O     O_R   0.745649 0.115257 0.072836 -0.319007
N2    N     N_R   0.496641 0.426532 0.714955 -0.326101
O29   O     O_R   0.560616 0.464664 0.779385 -0.000029
O30   O     O_R   0.560624 0.464672 0.779384 -0.000029
N3    N     N_R   0.252277 0.254344 0.652823 0.037924
O31   O     O_R   0.280567 0.164663 0.703806 -0.371878
O32   O     O_R   0.152564 0.269023 0.593982 -0.347642
N4    N     N_R   0.760100 0.482842 0.196115 0.033225
O33   O     O_R   0.642885 0.534959 0.228876 -0.332969
O34   O     O_R   0.825055 0.560187 0.201359 -0.334830
C31   C     C_3   0.522314 0.922529 0.204206 -0.247646
C32   C     C_3   0.630673 0.929497 0.274205 -0.405221
H6    H     H_    0.577892 0.984203 0.329431 0.154189
H7    H     H_    0.715834 0.820950 0.285453 0.209383
H8    H     H_    0.680697 0.990662 0.259188 0.190561
H9    H     H_    0.582617 0.867204 0.151421 0.222577
H10   H     H_    0.445032 0.033425 0.194018 0.160223
N5    N     N_R   0.290382 0.725864 0.169702 0.066189
O35   O     O_R   0.369556 0.610438 0.204798 -0.302299
O36   O     O_R   0.161453 0.750704 0.140375 -0.256714
C33   C     C_3   0.570269 0.139595 0.806625 -0.226189
C34   C     C_3   0.680765 0.083212 0.746863 -0.405320
H11   H     H_    0.632865 0.065707 0.685326 0.178571
H12   H     H_    0.723743 0.158783 0.747680 0.179910
H13   H     H_    0.770408 0.979900 0.763570 0.148239
H14   H     H_    0.624950 0.147972 0.867607 0.185354
H15   H     H_    0.532639 0.058564 0.802780 0.203166

loop_
_geom_bond_atom_site_label_1
_geom_bond_atom_site_label_2
_geom_bond_distance
_ccdc_geom_bond_type
C17   N3    1.446576 S    
O11   Cr3   2.049275 S    
C20   N2    1.441231 S    
N5    O35   1.299947 A    
C32   H6    1.109540 S    
C28   O22   1.287264 A    
C3    C9    1.452547 S    
C33   H14   1.111833 S    
O4    Cr2   1.935700 S    
O19   C27   1.273307 A    
C9    C12   1.349677 D    
O8    Cr1   1.933471 S    
C10   C11   1.359809 D    
O25   C30   1.263711 A    
O16   Cr5   2.050674 S    
C12   H1    1.086670 S    
C17   C20   1.357344 D    
C6    C21   1.432328 S    
C18   C19   1.336307 D    
C5    O11   1.259175 A    
O21   C28   1.318080 A    
O12   C6    1.265074 A    
C16   H3    1.085797 S    
C5    C17   1.429478 S    
C31   H10   1.102674 S    
C11   N1    1.440453 S    
O24   Cr6   2.046939 S    
N1    O27   1.300848 A    
Cr5   O26   1.976082 S    
O20   C30   1.277093 A    
C7    C8    1.182962 T    
O21   Cr4   1.929674 S    
C19   C33   1.529617 S    
C10   C25   1.461633 S    
C8    C26   1.393958 S    
Cr6   O26   1.978654 S    
O23   C29   1.267349 A    
Cr3   O13   1.976090 S    
C14   C27   1.471970 S    
C32   H7    1.109689 S    
C15   C16   1.458541 S    
N4    O34   1.301391 A    
O1    Cr1   2.052083 S    
C10   N4    1.442458 S    
N3    O31   1.301046 A    
O25   Cr6   1.934721 S    
C26   O18   1.259958 A    
Cr4   O26   1.979284 S    
O10   Cr2   1.928625 S    
Cr1   O13   1.979395 S    
O1    C3    1.275895 A    
C18   H5    1.090652 S    
C19   C20   1.443941 S    
N2    O30   1.301394 A    
O6    C3    1.262840 A    
O17   C26   1.263628 A    
N4    O33   1.296125 A    
C14   N5    1.453839 S    
C24   C30   1.426281 S    
O12   Cr3   1.934172 S    
O14   Cr4   2.047705 S    
C29   O24   1.262097 A    
C31   H9    1.111313 S    
C34   H12   1.107081 S    
O22   Cr5   2.051557 S    
O15   C25   1.273091 A    
O7    Cr1   2.048511 S    
O20   Cr4   2.051927 S    
O14   C27   1.272256 A    
O6    Cr3   1.931995 S    
C13   C16   1.338646 D    
C1    C13   1.445184 S    
O19   Cr6   1.929157 S    
N3    O32   1.301605 A    
C18   C29   1.437166 S    
C25   O16   1.266792 A    
Cr2   O13   1.978786 S    
N5    O36   1.300814 A    
C21   C22   1.204833 T    
C1    O3    1.268401 A    
C34   H11   1.110760 S    
C32   H8    1.109722 S    
O18   Cr6   2.054213 S    
C23   C24   1.201542 T    
C9    H2    1.085596 S    
O9    Cr2   2.052460 S    
O2    Cr1   1.930726 S    
O10   C5    1.270917 A    
C31   C32   1.532470 S    
O8    C4    1.312281 A    
O15   Cr4   1.934270 S    
C15   C31   1.526973 S    
C33   H15   1.110733 S    
C2    O5    1.258835 A    
C14   C15   1.373607 D    
O2    C1    1.268612 A    
N2    O29   1.301328 A    
C4    C23   1.426363 S    
O5    Cr3   2.053720 S    
O23   Cr5   1.932053 S    
C34   H13   1.110637 S    
C33   C34   1.530147 S    
O4    C2    1.262764 A    
O7    C6    1.278570 A    
C2    C7    1.394235 S    
O17   Cr5   1.935152 S    
C22   C28   1.430693 S    
O3    Cr2   2.046686 S    
C4    O9    1.284313 A    
N1    O28   1.302004 A    
C11   C12   1.465918 S    
C13   H4    1.087108 S    
