data_mof_unit_32718.cif
_audit_creation_date              2012-12-10T18:36:09-0500
_audit_creation_method            fapswitch 2.2
_symmetry_space_group_name_H-M    P1
_symmetry_Int_Tables_number       1
_space_group_crystal_system       triclinic
_cell_length_a                    15.152648
_cell_length_b                    13.962318
_cell_length_c                    14.91054
_cell_angle_alpha                 90.001379
_cell_angle_beta                  92.262947
_cell_angle_gamma                 90.002468
_cell_volume                      3152.10452133

loop_
_atom_site_label
_atom_site_type_symbol
_atom_type_description
_atom_site_fract_x
_atom_site_fract_y
_atom_site_fract_z
_atom_type_partial_charge
C1    C     C_R   0.329899 0.499862 0.498947 0.904304
C2    C     C_R   0.670111 0.499859 0.500884 0.941638
C3    C     C_R   0.334168 0.527704 0.035100 0.386407
C4    C     C_R   0.663327 0.512600 0.965004 0.370650
C5    C     C_R   0.092332 0.574823 0.457199 0.317169
C6    C     C_R   0.904027 0.424374 0.457403 0.361241
C7    C     C_R   0.907627 0.574525 0.543371 0.314957
C8    C     C_R   0.096212 0.424386 0.542689 0.360622
C9    C     C_R   0.184963 0.574802 0.456723 0.227843
C10   C     C_R   0.811423 0.422545 0.461093 0.209273
C11   C     C_R   0.815000 0.574587 0.543480 0.233417
C12   C     C_R   0.188713 0.422353 0.538437 0.213782
C13   C     C_R   0.232849 0.499074 0.497967 -0.255376
C14   C     C_R   0.767191 0.499079 0.501812 -0.256485
C15   C     C_R   0.048386 0.499625 0.500244 -0.118667
C16   C     C_R   0.951720 0.499477 0.500307 -0.115206
C17   C     C_R   0.519574 0.108043 0.580047 0.223597
C18   C     C_R   0.428619 0.891690 0.460851 0.207143
C19   C     C_R   0.479277 0.107175 0.421707 0.216345
C20   C     C_R   0.570141 0.891745 0.541510 0.204630
C21   C     C_R   0.529709 0.208438 0.574615 0.517680
C22   C     C_R   0.438197 0.791755 0.449280 0.520896
C23   C     C_R   0.469793 0.207860 0.425833 0.510868
C24   C     C_R   0.561205 0.791557 0.551757 0.520320
C25   C     C_R   0.499196 0.054295 0.501158 -0.199294
C26   C     C_R   0.499253 0.945164 0.501398 -0.201537
C27   C     C_R   0.497780 0.499956 0.329032 0.764343
C28   C     C_R   0.501924 0.500020 0.671058 0.851006
C29   C     C_R   0.581864 0.492176 0.818072 0.358600
C30   C     C_R   0.413023 0.505479 0.182375 0.363119
C31   C     C_R   0.502594 0.501377 0.767830 -0.099082
C32   C     C_R   0.494048 0.500749 0.232224 -0.153450
C33   C     C_R   0.423591 0.518609 0.808322 -0.284950
C34   C     C_R   0.573980 0.506858 0.190908 -0.243134
C35   C     C_R   0.421260 0.530320 0.901027 0.001071
C36   C     C_R   0.576934 0.521892 0.098889 -0.013829
C37   C     C_R   0.500760 0.523161 0.953257 -0.097120
C38   C     C_R   0.497135 0.523943 0.046897 -0.118159
C39   C     C_R   0.583092 0.508336 0.912001 -0.094550
C40   C     C_R   0.413987 0.519236 0.088344 -0.043175
C41   C     C_R   0.339712 0.545474 0.941940 0.345757
C42   C     C_R   0.659200 0.530843 0.058027 0.377642
Cu1   Cu    Cu3+1 0.500000 0.596430 0.500000 1.010467
Cu2   Cu    Cu3+1 0.500000 0.403570 0.500000 1.034410
H1    H     H_    0.363487 0.521066 0.766405 0.173836
H2    H     H_    0.634498 0.500144 0.231840 0.176006
N1    N     N_R   0.500000 0.258690 0.500000 -0.310727
N2    N     N_R   0.500000 0.741310 0.500000 -0.329404
O1    O     O_R   0.371460 0.581430 0.500010 -0.515228
O2    O     O_R   0.628540 0.418570 0.499990 -0.561943
O3    O     O_R   0.628540 0.581430 0.499990 -0.513180
O4    O     O_R   0.371460 0.418570 0.500010 -0.561846
O5    O     O_R   0.499980 0.581440 0.370260 -0.601682
O6    O     O_R   0.500020 0.418560 0.629740 -0.520062
O7    O     O_R   0.500020 0.581440 0.629740 -0.610768
O8    O     O_R   0.499980 0.418560 0.370260 -0.518136
O9    O     O_3   0.656633 0.470117 0.773069 -0.756230
H3    H     H_    0.678552 0.408683 0.798631 0.358280
O10   O     O_3   0.333009 0.499053 0.223654 -0.729369
H4    H     H_    0.341551 0.482537 0.287869 0.310385
O11   O     O_3   0.263632 0.564644 0.889877 -0.624252
C43   C     C_3   0.269227 0.656599 0.848795 0.009629
H5    H     H_    0.225828 0.655822 0.787031 0.167730
H6    H     H_    0.336436 0.674837 0.826613 0.149437
C44   C     C_3   0.237817 0.736603 0.910252 -0.395142
H7    H     H_    0.165516 0.729676 0.918134 0.210537
H8    H     H_    0.272495 0.730990 0.977053 0.219892
C45   C     C_3   0.256634 0.835410 0.871727 -0.884416
H9    H     H_    0.328883 0.845938 0.866050 0.253899
H10   H     H_    0.231297 0.891397 0.916919 0.259242
H11   H     H_    0.223473 0.843552 0.804516 0.256127
O12   O     O_3   0.736811 0.545015 0.109366 -0.621741
C46   C     C_3   0.736167 0.636018 0.152976 0.008542
H12   H     H_    0.786417 0.633884 0.209212 0.164886
H13   H     H_    0.672639 0.652692 0.184180 0.152114
C47   C     C_3   0.759594 0.718570 0.090098 -0.399043
H14   H     H_    0.831029 0.715251 0.076281 0.208826
H15   H     H_    0.720280 0.712903 0.025847 0.218375
C48   C     C_3   0.740527 0.815811 0.131781 -0.884698
H16   H     H_    0.668914 0.823035 0.143724 0.253589
H17   H     H_    0.759948 0.873631 0.085383 0.259067
H18   H     H_    0.778724 0.824264 0.196264 0.257207
O13   O     O_3   0.256019 0.493323 0.069957 -0.548936
C49   C     C_3   0.187072 0.561799 0.071644 0.112173
H19   H     H_    0.125958 0.522358 0.087513 0.146184
H20   H     H_    0.171606 0.594382 0.005912 0.173250
C50   C     C_3   0.202446 0.637897 0.144819 -0.345169
H21   H     H_    0.199424 0.603783 0.211880 0.265082
H22   H     H_    0.268367 0.670850 0.138933 0.222777
C51   C     C_3   0.132424 0.716377 0.137936 -0.997643
H23   H     H_    0.139616 0.759058 0.075954 0.267782
H24   H     H_    0.140319 0.765140 0.196480 0.266339
H25   H     H_    0.065210 0.684646 0.137114 0.249184
O14   O     O_3   0.740988 0.477970 0.929833 -0.592805
C52   C     C_3   0.807759 0.548251 0.923639 0.085873
H26   H     H_    0.869584 0.510189 0.907695 0.149906
H27   H     H_    0.823437 0.583800 0.987945 0.180038
C53   C     C_3   0.788296 0.620766 0.848131 -0.343603
H28   H     H_    0.792678 0.584390 0.782187 0.262655
H29   H     H_    0.720857 0.650198 0.853060 0.222546
C54   C     C_3   0.854147 0.703505 0.852869 -0.988422
H30   H     H_    0.842389 0.749243 0.912062 0.267342
H31   H     H_    0.846116 0.748096 0.791517 0.264931
H32   H     H_    0.922932 0.676036 0.857928 0.247260
O15   O     O_3   0.046447 0.655308 0.427106 -0.545226
C55   C     C_3   0.007958 0.639177 0.340724 0.062197
H33   H     H_    0.955442 0.583985 0.342158 0.133259
H34   H     H_    0.058655 0.616234 0.293213 0.103040
C56   C     C_3   0.965386 0.731986 0.305993 -0.369849
H35   H     H_    0.016237 0.789241 0.304358 0.225403
H36   H     H_    0.938386 0.720501 0.236450 0.168553
C57   C     C_3   0.890587 0.764487 0.364766 -0.688269
H37   H     H_    0.838191 0.708889 0.366075 0.224923
H38   H     H_    0.861343 0.831784 0.337480 0.210736
H39   H     H_    0.915965 0.778768 0.434342 0.306288
O16   O     O_3   0.946975 0.348076 0.417912 -0.574131
C58   C     C_3   0.979259 0.373824 0.333199 0.043114
H40   H     H_    0.021256 0.313743 0.311122 0.180175
H41   H     H_    0.023604 0.436745 0.337395 0.113061
C59   C     C_3   0.905130 0.388827 0.261060 -0.362196
H42   H     H_    0.866020 0.321862 0.252938 0.238993
H43   H     H_    0.860255 0.447254 0.281117 0.221360
C60   C     C_3   0.942938 0.415691 0.171038 -0.886781
H44   H     H_    0.979489 0.484536 0.176947 0.232532
H45   H     H_    0.888342 0.424144 0.119761 0.296191
H46   H     H_    0.988278 0.358839 0.148428 0.254372
O17   O     O_3   0.953420 0.654778 0.574158 -0.547219
C61   C     C_3   0.992036 0.637768 0.660310 0.062333
H47   H     H_    0.045983 0.584358 0.657784 0.136706
H48   H     H_    0.941905 0.611932 0.707178 0.103617
C62   C     C_3   0.032151 0.730948 0.697084 -0.369584
H49   H     H_    0.979769 0.786393 0.700330 0.223853
H50   H     H_    0.059778 0.718363 0.766232 0.169265
C63   C     C_3   0.105646 0.767611 0.638677 -0.684217
H51   H     H_    0.159252 0.713614 0.635197 0.225900
H52   H     H_    0.133565 0.834720 0.667742 0.209115
H53   H     H_    0.079335 0.783500 0.569723 0.304108
O18   O     O_3   0.053457 0.348418 0.582845 -0.573734
C64   C     C_3   0.022967 0.374440 0.668219 0.039991
H54   H     H_    0.982604 0.313821 0.691849 0.183639
H55   H     H_    0.977576 0.436512 0.664334 0.114689
C65   C     C_3   0.098388 0.391304 0.738669 -0.363620
H56   H     H_    0.138740 0.325155 0.746262 0.239583
H57   H     H_    0.141819 0.450478 0.717363 0.222083
C66   C     C_3   0.062248 0.417940 0.829503 -0.889967
H58   H     H_    0.024040 0.485749 0.824022 0.233017
H59   H     H_    0.117855 0.428277 0.879330 0.294241
H60   H     H_    0.018849 0.360095 0.853726 0.253765
O19   O     O_3   0.230539 0.646685 0.414699 -0.659150
H61   H     H_    0.189118 0.693191 0.385890 0.363624
O20   O     O_3   0.762100 0.348836 0.422294 -0.716624
H62   H     H_    0.801141 0.296028 0.404279 0.361533
O21   O     O_3   0.769339 0.646366 0.585565 -0.654798
H63   H     H_    0.810700 0.692757 0.614637 0.362700
O22   O     O_3   0.238030 0.348286 0.576613 -0.712455
H64   H     H_    0.198994 0.295211 0.594017 0.361681
O23   O     O_3   0.531674 0.065984 0.663394 -0.696242
H65   H     H_    0.499056 0.004572 0.663533 0.334555
O24   O     O_3   0.350181 0.933336 0.430979 -0.693528
H66   H     H_    0.343241 0.995711 0.461414 0.341420
O25   O     O_3   0.467278 0.064146 0.338732 -0.690572
H67   H     H_    0.500329 0.002999 0.339042 0.334499
O26   O     O_3   0.648301 0.933557 0.572017 -0.696878
H68   H     H_    0.655084 0.996275 0.542172 0.342691
O27   O     O_3   0.567310 0.255557 0.647816 -0.546732
C67   C     C_3   0.660087 0.260874 0.639641 0.121278
H69   H     H_    0.679657 0.337119 0.646683 0.191430
H70   H     H_    0.684369 0.236104 0.573618 0.127565
C68   C     C_3   0.706693 0.203879 0.715200 -0.337627
H71   H     H_    0.679430 0.224332 0.780626 0.241214
H72   H     H_    0.694987 0.126141 0.704286 0.260953
C69   C     C_3   0.805969 0.222821 0.718725 -0.935767
H73   H     H_    0.834831 0.202908 0.653961 0.272084
H74   H     H_    0.838242 0.179416 0.773106 0.266530
H75   H     H_    0.819338 0.299750 0.732724 0.254714
O28   O     O_3   0.381655 0.744822 0.389144 -0.504315
C70   C     C_3   0.415326 0.750347 0.301639 0.122399
H76   H     H_    0.400702 0.681121 0.268054 0.183556
H77   H     H_    0.488577 0.760106 0.301223 0.097279
C71   C     C_3   0.368964 0.827921 0.244431 -0.355019
H78   H     H_    0.296660 0.814613 0.241500 0.241631
H79   H     H_    0.381235 0.899485 0.274108 0.278393
C72   C     C_3   0.403183 0.829094 0.149337 -0.940662
H80   H     H_    0.473733 0.850943 0.151044 0.262876
H81   H     H_    0.364423 0.881195 0.107579 0.275079
H82   H     H_    0.397197 0.757334 0.117632 0.239995
O29   O     O_3   0.437984 0.254802 0.349859 -0.545300
C73   C     C_3   0.344782 0.247138 0.343103 0.093348
H83   H     H_    0.315524 0.307372 0.380255 0.169523
H84   H     H_    0.318892 0.178711 0.370662 0.133261
C74   C     C_3   0.314368 0.253253 0.244252 -0.286804
H85   H     H_    0.349339 0.312518 0.211089 0.262154
H86   H     H_    0.331465 0.185451 0.209936 0.232918
C75   C     C_3   0.214938 0.270182 0.233690 -0.889313
H87   H     H_    0.178383 0.211209 0.265727 0.247838
H88   H     H_    0.194984 0.272857 0.161274 0.272804
H89   H     H_    0.197023 0.339424 0.264930 0.260692
O30   O     O_3   0.617954 0.744228 0.611469 -0.502571
C76   C     C_3   0.584197 0.748163 0.699053 0.129194
H90   H     H_    0.600245 0.678905 0.732224 0.181888
H91   H     H_    0.510771 0.756142 0.699388 0.095689
C77   C     C_3   0.628650 0.826598 0.756763 -0.359088
H92   H     H_    0.701284 0.816069 0.758834 0.244555
H93   H     H_    0.613740 0.898053 0.728033 0.272969
C78   C     C_3   0.595482 0.825152 0.852262 -0.936855
H94   H     H_    0.523932 0.842674 0.851467 0.259928
H95   H     H_    0.631951 0.879304 0.893764 0.274794
H96   H     H_    0.605617 0.753750 0.883682 0.242094

loop_
_geom_bond_atom_site_label_1
_geom_bond_atom_site_label_2
_ccdc_geom_bond_type
C75   H88   S    
C50   H21   S    
O23   H65   S    
C33   H1    S    
C46   H12   S    
C22   N2    A    
C52   H26   S    
C18   C26   A    
C49   C50   S    
C41   O11   S    
C72   H80   S    
C62   C63   S    
C61   H47   S    
C4    C42   A    
C63   H53   S    
C57   H38   S    
O25   H67   S    
O9    H3    S    
C52   C53   S    
O19   H61   S    
C60   H44   S    
C5    O15   S    
C78   H94   S    
C59   H42   S    
C7    C11   A    
C9    O19   S    
O27   C67   S    
C77   H93   S    
C51   H25   S    
C73   C74   S    
C73   H84   S    
C38   C40   A    
C49   H20   S    
C58   H41   S    
O24   H66   S    
C19   O25   S    
C64   C65   S    
C60   H45   S    
C75   H89   S    
C55   H33   S    
C15   C16   S    
C53   H28   S    
C21   O27   S    
O16   C58   S    
C8    O18   S    
C68   H71   S    
C9    C13   A    
C43   H6    S    
C18   O24   S    
C2    O2    A    
C62   H50   S    
C33   C35   A    
C36   C42   A    
Cu1   O5    S    
C3    C41   A    
C20   C24   A    
C69   H74   S    
C45   H9    S    
C70   H77   S    
C77   C78   S    
C76   C77   S    
O20   H62   S    
C47   C48   S    
O30   C76   S    
C34   H2    S    
Cu2   N1    S    
C17   O23   S    
Cu1   N2    S    
C71   C72   S    
O12   C46   S    
Cu2   O4    S    
C75   H87   S    
C24   O30   S    
C76   H90   S    
C54   H31   S    
C67   H70   S    
C46   H13   S    
C65   C66   S    
O11   C43   S    
C19   C25   A    
C57   H37   S    
C66   H59   S    
C28   O7    A    
C71   H79   S    
C66   H58   S    
C78   H95   S    
C23   N1    A    
C77   H92   S    
C74   H85   S    
C24   N2    A    
C54   H30   S    
C49   H19   S    
C10   C14   A    
C58   C59   S    
C48   H17   S    
C28   O6    A    
C27   O8    A    
Cu1   O1    S    
C60   H46   S    
C63   H52   S    
C44   H8    S    
C25   C26   S    
C20   O26   S    
C17   C21   A    
C73   H83   S    
C59   C60   S    
C32   C34   A    
C19   C23   A    
Cu1   Cu2   S    
C74   H86   S    
C5    C9    A    
C37   C38   A    
C10   O20   S    
C72   H81   S    
Cu2   O8    S    
C51   H24   S    
O13   C49   S    
C4    C39   A    
C8    C12   A    
C44   C45   S    
C30   O10   S    
C29   C39   A    
C43   H5    S    
C42   O12   S    
C30   C40   A    
C47   H14   S    
C6    O16   S    
C35   C41   A    
C4    O14   S    
Cu1   O7    S    
O28   C70   S    
C29   O9    S    
C3    C40   A    
C44   H7    S    
C8    C15   A    
C53   H29   S    
C50   H22   S    
C3    O13   S    
C67   H69   S    
O18   C64   S    
C46   C47   S    
C65   H57   S    
C56   C57   S    
C1    C13   S    
C12   O22   S    
O17   C61   S    
C61   C62   S    
C66   H60   S    
C69   H73   S    
C59   H43   S    
C69   H75   S    
C68   H72   S    
C78   H96   S    
Cu2   O2    S    
C52   H27   S    
C7    C16   A    
C31   C33   A    
C43   C44   S    
C35   C37   A    
C27   C32   S    
C18   C22   A    
C28   C31   S    
C47   H15   S    
C70   C71   S    
C20   C26   A    
C61   H48   S    
C6    C10   A    
C48   H18   S    
C22   O28   S    
C64   H54   S    
C27   O5    A    
C63   H51   S    
C54   H32   S    
C53   C54   S    
O15   C55   S    
C23   O29   S    
C72   H82   S    
C17   C25   A    
C56   H36   S    
C74   C75   S    
O29   C73   S    
C37   C39   A    
C58   H40   S    
C30   C32   A    
C64   H55   S    
Cu1   O3    S    
C51   H23   S    
C55   H34   S    
C45   H11   S    
C36   C38   A    
C11   C14   A    
C34   C36   A    
O14   C52   S    
C2    C14   S    
C1    O4    A    
C5    C15   A    
O26   H68   S    
C2    O3    A    
C11   O21   S    
C6    C16   A    
C48   H16   S    
Cu2   O6    S    
O10   H4    S    
C12   C13   A    
C67   C68   S    
C29   C31   A    
C70   H76   S    
C50   C51   S    
O22   H64   S    
C76   H91   S    
C45   H10   S    
C65   H56   S    
C68   C69   S    
C7    O17   S    
O21   H63   S    
C56   H35   S    
C1    O1    A    
C57   H39   S    
C71   H78   S    
C62   H49   S    
C21   N1    A    
C55   C56   S    
