data_mof_unit_14883.cif
_audit_creation_date              2012-12-11T16:12:46-0500
_audit_creation_method            fapswitch 2.2
_symmetry_space_group_name_H-M    P1
_symmetry_Int_Tables_number       1
_space_group_crystal_system       triclinic
_cell_length_a                    6.984964
_cell_length_b                    21.30719
_cell_length_c                    23.680421
_cell_angle_alpha                 89.999969
_cell_angle_beta                  90.000119
_cell_angle_gamma                 90.000079
_cell_volume                      3524.35599396

loop_
_atom_site_label
_atom_site_type_symbol
_atom_type_description
_atom_site_fract_x
_atom_site_fract_y
_atom_site_fract_z
_atom_type_partial_charge
O1    O     O_R   0.615270 0.806540 0.192260 -0.534816
O2    O     O_R   0.384730 0.193460 0.807740 -0.534300
O3    O     O_R   0.384730 0.193460 0.692260 -0.534819
O4    O     O_R   0.615270 0.806540 0.307740 -0.534294
O5    O     O_R   0.115270 0.693460 0.307740 -0.534816
O6    O     O_R   0.884730 0.306540 0.692260 -0.534301
O7    O     O_R   0.884730 0.306540 0.807740 -0.534815
O8    O     O_R   0.115270 0.693460 0.192260 -0.534306
O9    O     O_R   0.285500 0.813970 0.307340 -0.534527
O10   O     O_R   0.714500 0.186030 0.692660 -0.536186
O11   O     O_R   0.714500 0.186030 0.807340 -0.534528
O12   O     O_R   0.285500 0.813970 0.192660 -0.536187
O13   O     O_R   0.785500 0.686030 0.192660 -0.534530
O14   O     O_R   0.214500 0.313970 0.807340 -0.536187
O15   O     O_R   0.214500 0.313970 0.692660 -0.534528
O16   O     O_R   0.785500 0.686030 0.307340 -0.536187
C1    C     C_R   0.453807 0.828991 0.326648 0.716949
C2    C     C_R   0.546195 0.171014 0.673347 0.721355
C3    C     C_R   0.546193 0.171009 0.826649 0.716947
C4    C     C_R   0.453805 0.828986 0.173347 0.721351
C5    C     C_R   0.953806 0.671009 0.173351 0.716944
C6    C     C_R   0.046195 0.328985 0.826653 0.721358
C7    C     C_R   0.046193 0.328991 0.673351 0.716948
C8    C     C_R   0.953805 0.671014 0.326653 0.721362
O17   O     O_3   0.448760 0.710460 0.250000 -0.368116
O18   O     O_3   0.551240 0.289540 0.750000 -0.368112
O19   O     O_3   0.948760 0.789540 0.250000 -0.368108
O20   O     O_3   0.051240 0.210460 0.750000 -0.368113
V1    V     V_3+5 0.173900 0.757330 0.250000 1.488423
V2    V     V_3+5 0.826100 0.242670 0.750000 1.488412
V3    V     V_3+5 0.673900 0.742670 0.250000 1.488422
V4    V     V_3+5 0.326100 0.257330 0.750000 1.488411
C9    C     C_3   0.112543 0.524371 0.539523 0.138238
C10   C     C_3   0.886969 0.475653 0.460484 0.191900
C11   C     C_3   0.887451 0.475630 0.039522 0.138256
C12   C     C_3   0.113037 0.524346 0.960485 0.191902
C13   C     C_3   0.612533 0.975628 0.960476 0.138231
C14   C     C_3   0.386977 0.024348 0.039517 0.191902
C15   C     C_3   0.387486 0.024376 0.460473 0.138185
C16   C     C_3   0.613006 0.975648 0.539520 0.191897
C17   C     C_3   0.922004 0.552572 0.519486 0.086197
C18   C     C_3   0.077703 0.447370 0.480476 0.156039
C19   C     C_3   0.077989 0.447427 0.019486 0.086191
C20   C     C_3   0.922303 0.552631 0.980476 0.156047
C21   C     C_3   0.421993 0.947429 0.980515 0.086200
C22   C     C_3   0.577713 0.052629 0.019523 0.156025
C23   C     C_3   0.578027 0.052569 0.480518 0.086216
C24   C     C_3   0.422270 0.947373 0.519520 0.156005
C25   C     C_1   0.960553 0.625404 0.372053 -0.153410
C26   C     C_1   0.039434 0.374613 0.627962 -0.151740
C27   C     C_1   0.039448 0.374595 0.872053 -0.153411
C28   C     C_1   0.960566 0.625387 0.127962 -0.151750
C29   C     C_1   0.460553 0.874596 0.127947 -0.153411
C30   C     C_1   0.539434 0.125387 0.872038 -0.151730
C31   C     C_1   0.539446 0.125403 0.627948 -0.153425
C32   C     C_1   0.460568 0.874614 0.372037 -0.151700
C33   C     C_3   0.172537 0.512989 0.477407 -0.096652
C34   C     C_3   0.827426 0.486956 0.522612 -0.102300
C35   C     C_3   0.827463 0.487012 0.977405 -0.096646
C36   C     C_3   0.172573 0.513042 0.022614 -0.102308
C37   C     C_3   0.672538 0.987008 0.022591 -0.096657
C38   C     C_3   0.327423 0.013046 0.977390 -0.102285
C39   C     C_3   0.327460 0.012996 0.522586 -0.096672
C40   C     C_3   0.672581 0.986949 0.477394 -0.102259
C41   C     C_3   0.979652 0.541576 0.457182 0.016741
C42   C     C_3   0.020232 0.458421 0.542819 0.040077
C43   C     C_3   0.020347 0.458424 0.957182 0.016729
C44   C     C_3   0.979768 0.541579 0.042819 0.040072
C45   C     C_3   0.479653 0.958424 0.042818 0.016743
C46   C     C_3   0.520230 0.041579 0.957181 0.040079
C47   C     C_3   0.520346 0.041575 0.542819 0.016764
C48   C     C_3   0.479774 0.958422 0.457180 0.040090
C49   C     C_1   0.966031 0.587531 0.410328 0.060789
C50   C     C_1   0.033921 0.412491 0.589691 0.074831
C51   C     C_1   0.033969 0.412469 0.910329 0.060782
C52   C     C_1   0.966079 0.587509 0.089691 0.074818
C53   C     C_1   0.466031 0.912469 0.089672 0.060779
C54   C     C_1   0.533920 0.087509 0.910308 0.074846
C55   C     C_1   0.533967 0.087530 0.589673 0.060771
C56   C     C_1   0.466083 0.912492 0.410307 0.074890
N1    N     N_3   0.840655 0.610590 0.541423 -0.644207
H1    H     H_    0.808775 0.603196 0.584016 0.226769
H2    H     H_    0.710607 0.618026 0.520726 0.226987
N2    N     N_3   0.158350 0.389357 0.458325 -0.637374
H3    H     H_    0.186203 0.396453 0.415448 0.253091
H4    H     H_    0.290423 0.382456 0.477971 0.282971
N3    N     N_3   0.159333 0.389409 0.041424 -0.644209
H5    H     H_    0.191226 0.396804 0.084016 0.226765
H6    H     H_    0.289374 0.381970 0.020725 0.226989
N4    N     N_3   0.841665 0.610645 0.958324 -0.637377
H7    H     H_    0.813822 0.603550 0.915446 0.253087
H8    H     H_    0.709587 0.617546 0.977967 0.282975
N5    N     N_3   0.340635 0.889413 0.958577 -0.644218
H9    H     H_    0.308702 0.896812 0.915989 0.226768
H10   H     H_    0.210616 0.881968 0.979288 0.226991
N6    N     N_3   0.658371 0.110641 0.041673 -0.637369
H11   H     H_    0.686223 0.103545 0.084550 0.253094
H12   H     H_    0.790446 0.117538 0.022027 0.282972
N7    N     N_3   0.659399 0.110584 0.458582 -0.644217
H13   H     H_    0.691319 0.103187 0.415992 0.226776
H14   H     H_    0.789425 0.118023 0.479290 0.226985
N8    N     N_3   0.341589 0.889363 0.541667 -0.637359
H15   H     H_    0.313741 0.896457 0.584545 0.253103
H16   H     H_    0.209511 0.882473 0.522021 0.282971
N9    N     N_3   0.233044 0.552053 0.583017 -0.679416
H17   H     H_    0.266554 0.597642 0.570102 0.240019
H18   H     H_    0.150316 0.555982 0.619608 0.242852
N10   N     N_3   0.764792 0.448267 0.417228 -0.584794
H19   H     H_    0.732250 0.402520 0.429897 0.264970
H20   H     H_    0.846071 0.444745 0.380323 0.234261
N11   N     N_3   0.766942 0.447950 0.083015 -0.679409
H21   H     H_    0.733426 0.402361 0.070098 0.240013
H22   H     H_    0.849667 0.444018 0.119607 0.242851
N12   N     N_3   0.235218 0.551731 0.917230 -0.584793
H23   H     H_    0.267757 0.597478 0.929899 0.264972
H24   H     H_    0.153944 0.555252 0.880325 0.234261
N13   N     N_3   0.733021 0.947944 0.916979 -0.679421
H25   H     H_    0.766528 0.902354 0.929895 0.240026
H26   H     H_    0.650284 0.944015 0.880390 0.242861
N14   N     N_3   0.264811 0.051736 0.082775 -0.584793
H27   H     H_    0.232275 0.097483 0.070106 0.264966
H28   H     H_    0.346096 0.055256 0.119678 0.234262
N15   N     N_3   0.267021 0.052064 0.416973 -0.679436
H29   H     H_    0.233524 0.097655 0.429888 0.240038
H30   H     H_    0.349771 0.055990 0.380386 0.242869
N16   N     N_3   0.735153 0.948256 0.582780 -0.584775
H31   H     H_    0.767682 0.902508 0.570112 0.264958
H32   H     H_    0.653857 0.944737 0.619682 0.234256
C57   C     C_2   0.640367 0.471987 0.549994 0.365181
H33   H     H_    0.574099 0.506028 0.577654 0.085639
O21   O     O_2   0.567674 0.420419 0.543805 -0.527237
C58   C     C_2   0.361094 0.528566 0.451068 0.457003
H34   H     H_    0.466315 0.555313 0.474431 0.028828
O22   O     O_2   0.393658 0.513465 0.402324 -0.515011
C59   C     C_2   0.359630 0.528009 0.049998 0.365189
H35   H     H_    0.425865 0.493974 0.077672 0.085632
O23   O     O_2   0.432353 0.579570 0.043799 -0.527239
C60   C     C_2   0.638907 0.471438 0.951065 0.457030
H36   H     H_    0.533676 0.444696 0.974429 0.028843
O24   O     O_2   0.606351 0.486536 0.902320 -0.515015
C61   C     C_2   0.140362 0.028019 0.950012 0.365169
H37   H     H_    0.074055 0.993974 0.922364 0.085641
O25   O     O_2   0.067704 0.079594 0.956189 -0.527237
C62   C     C_2   0.861097 0.971429 0.048928 0.456975
H38   H     H_    0.966310 0.944680 0.025564 0.028809
O26   O     O_2   0.893673 0.986532 0.097671 -0.515004
C63   C     C_2   0.859651 0.971972 0.450023 0.365167
H39   H     H_    0.926043 0.006034 0.422410 0.085648
O27   O     O_2   0.932226 0.920381 0.456170 -0.527231
C64   C     C_2   0.138898 0.028580 0.548918 0.456912
H40   H     H_    0.033729 0.055353 0.525560 0.028755
O28   O     O_2   0.106275 0.013455 0.597653 -0.514989

loop_
_geom_bond_atom_site_label_1
_geom_bond_atom_site_label_2
_ccdc_geom_bond_type
O17   V3    S    
N3    H5    S    
O18   V4    S    
N16   H31   S    
C16   C47   S    
O12   V1    S    
O19   V1    S    
C33   C58   S    
C45   C53   S    
N11   H21   S    
C10   C18   S    
C21   N5    S    
C47   C55   S    
N12   H23   S    
C12   C43   S    
C15   N15   S    
N15   H29   S    
O16   V3    S    
N9    H18   S    
O11   C3    A    
N5    H9    S    
O8    V1    S    
C11   C35   S    
C63   O27   D    
C27   C51   T    
C17   C34   S    
N13   H26   S    
N15   H30   S    
C16   N16   S    
C46   C54   S    
O6    C7    A    
C20   C35   S    
C37   C45   S    
C42   C50   S    
C21   C38   S    
O1    V3    S    
C23   N7    S    
N10   H19   S    
C38   C46   S    
O3    C2    A    
O2    V4    S    
C35   C43   S    
C34   C42   S    
C63   H39   S    
O11   V2    S    
C58   H34   S    
N6    H12   S    
C9    C33   S    
C15   C48   S    
C11   C19   S    
O9    V1    S    
C14   N14   S    
O15   C7    A    
C14   C45   S    
C17   N1    S    
O16   C8    A    
O7    V2    S    
C59   O23   D    
C13   C46   S    
N8    H15   S    
C24   C48   S    
C18   C33   S    
N1    H2    S    
N14   H28   S    
C9    C42   S    
N1    H1    S    
O5    V1    S    
O17   V1    S    
C14   C22   S    
C22   C37   S    
O19   V3    S    
C59   H35   S    
C9    N9    S    
N2    H3    S    
C62   O26   D    
C41   C49   S    
O14   V4    S    
C23   C40   S    
C4    C29   S    
C7    C26   S    
C17   C41   S    
C35   C60   S    
C28   C52   T    
C21   C45   S    
C24   C39   S    
C29   C53   T    
C39   C64   S    
C31   C55   T    
O10   V2    S    
C37   C62   S    
N4    H8    S    
N7    H13   S    
C36   C59   S    
O20   V4    S    
C24   N8    S    
N6    H11   S    
O12   C4    A    
O8    C5    A    
C18   N2    S    
N11   H22   S    
N8    H16   S    
C1    C32   S    
C23   C47   S    
C60   O24   D    
C19   C36   S    
C58   O22   D    
O4    C1    A    
C2    C31   S    
C3    C30   S    
C19   C43   S    
N7    H14   S    
C22   N6    S    
C39   C47   S    
O18   V2    S    
C9    C17   S    
N3    H6    S    
C40   C63   S    
C10   C41   S    
C25   C49   T    
C12   C20   S    
C43   C51   S    
C38   C61   S    
C13   C21   S    
C11   N11   S    
N14   H27   S    
C15   C23   S    
C57   H33   S    
O9    C1    A    
C8    C25   S    
C16   C24   S    
O1    C4    A    
N16   H32   S    
C13   C37   S    
O6    V2    S    
O2    C3    A    
O13   V3    S    
C18   C42   S    
C33   C41   S    
C62   H38   S    
C12   C36   S    
O15   V4    S    
N12   H24   S    
C44   C52   S    
O7    C6    A    
C15   C39   S    
N9    H17   S    
C32   C56   T    
C19   N3    S    
O14   C6    A    
C61   O25   D    
C10   N10   S    
C48   C56   S    
C61   H37   S    
O13   C5    A    
C26   C50   T    
N4    H7    S    
O5    C8    A    
C11   C44   S    
O10   C2    A    
C16   C40   S    
O20   V2    S    
C30   C54   T    
N10   H20   S    
C12   N12   S    
C64   O28   D    
C40   C48   S    
O3    V4    S    
C22   C46   S    
O4    V3    S    
C20   C44   S    
C60   H36   S    
C13   N13   S    
C36   C44   S    
N5    H10   S    
C10   C34   S    
C64   H40   S    
N2    H4    S    
C34   C57   S    
C14   C38   S    
N13   H25   S    
C5    C28   S    
C6    C27   S    
C57   O21   D    
C20   N4    S    
