data_mof_unit_22724.cif
_audit_creation_date              2012-12-11T20:53:03-0500
_audit_creation_method            fapswitch 2.2
_symmetry_space_group_name_H-M    P1
_symmetry_Int_Tables_number       1
_space_group_crystal_system       triclinic
_cell_length_a                    8.504223
_cell_length_b                    22.996459
_cell_length_c                    26.931521
_cell_angle_alpha                 96.744766
_cell_angle_beta                  92.692467
_cell_angle_gamma                 89.115243
_cell_volume                      5224.43025701

loop_
_atom_site_label
_atom_site_type_symbol
_atom_type_description
_atom_site_fract_x
_atom_site_fract_y
_atom_site_fract_z
_atom_type_partial_charge
Ba1   Ba    Ba6+2 0.848110 0.472730 0.522970 1.727250
Ba2   Ba    Ba6+2 0.341700 0.527220 0.477020 1.743727
C1    C     C_3   0.707449 0.268093 0.661482 0.229391
C2    C     C_3   0.671252 0.325001 0.638258 0.328899
C3    C     C_3   0.534637 0.620200 0.630322 0.286256
C4    C     C_3   0.545394 0.639541 0.686503 0.234493
C5    C     C_3   0.129963 0.666076 0.347540 0.390449
C6    C     C_3   0.161463 0.693893 0.300529 -0.319321
C7    C     C_3   0.635848 0.670014 0.348217 0.677889
C8    C     C_3   0.708037 0.704715 0.310385 -0.319992
C9    C     C_R   0.011839 0.457841 0.179283 0.594391
C10   C     C_R   0.923105 0.557280 0.179535 0.588672
C11   C     C_2   0.755075 0.522449 0.270096 -0.135363
C12   C     C_3   0.100803 0.356059 0.662127 0.612032
C13   C     C_3   0.709148 0.515774 0.322960 -0.102388
C14   C     C_1   0.983178 0.492615 0.343228 0.045988
C15   C     C_2   0.023738 0.492910 0.296056 -0.154851
C16   C     C_2   0.904649 0.508935 0.256395 0.218792
C17   C     C_R   0.024508 0.505305 0.102799 -0.080999
C18   C     C_R   0.051927 0.455981 0.128588 -0.036593
C19   C     C_R   0.117221 0.405445 0.103007 -0.055892
C20   C     C_R   0.959617 0.556261 0.128606 -0.033762
C21   C     C_2   0.852279 0.519109 0.358436 0.093328
C22   C     C_2   0.363470 0.498826 0.642193 -0.269034
C23   C     C_3   0.038170 0.352406 0.713749 -0.280280
C24   C     C_R   0.173598 0.451737 0.975063 0.034681
C25   C     C_R   0.060201 0.550597 0.973204 -0.037015
C26   C     C_R   0.135574 0.500534 0.948554 0.052470
C27   C     C_R   0.253512 0.403690 0.949424 -0.095530
C28   C     C_R   0.291375 0.402960 0.899642 -0.048033
C29   C     C_R   0.252038 0.450070 0.872723 -0.021512
C30   C     C_R   0.173419 0.499183 0.896937 -0.124555
C31   C     C_R   0.133134 0.546756 0.869638 -0.098487
C32   C     C_R   0.176947 0.544307 0.818880 0.645853
C33   C     C_R   0.290734 0.448768 0.822065 0.583291
C34   C     C_3   0.141086 0.342949 0.408967 0.323724
C35   C     C_2   0.450012 0.485518 0.731023 0.024386
C36   C     C_3   0.500648 0.493481 0.678905 0.004964
C37   C     C_1   0.221182 0.513631 0.657465 0.025477
C38   C     C_2   0.177933 0.507842 0.703384 -0.099093
C39   C     C_2   0.297914 0.494692 0.743568 0.202560
C40   C     C_R   0.131599 0.452528 0.026080 0.018930
C41   C     C_R   0.061893 0.503668 0.051201 0.055961
C42   C     C_R   0.029067 0.553191 0.025281 0.035765
C43   C     C_R   0.156219 0.403666 0.053136 -0.098624
C44   C     C_R   0.933424 0.605424 0.103085 -0.055910
C45   C     C_3   0.111833 0.277324 0.389117 0.316582
C46   C     C_R   0.016017 0.596333 0.944561 -0.116937
C47   C     C_R   0.050660 0.595019 0.894272 0.425737
C48   C     C_R   0.967334 0.604073 0.052823 -0.092273
C49   C     C_R   0.379425 0.338555 0.527025 -0.216685
C50   C     C_R   0.682800 0.949753 0.542457 -0.086912
C51   C     C_R   0.732508 0.890518 0.537420 0.592959
C52   C     C_R   0.693138 0.884556 0.448173 0.620031
C53   C     C_R   0.655595 0.945017 0.451793 -0.020084
C54   C     C_R   0.645516 0.977318 0.499395 -0.050803
C55   C     C_R   0.668044 0.981706 0.589694 -0.068081
C56   C     C_3   0.025716 0.649959 0.585560 0.300324
C57   C     C_R   0.612799 0.039593 0.594742 0.432902
C58   C     C_R   0.575765 0.068379 0.551586 -0.079928
C59   C     C_R   0.597803 0.037296 0.503897 -0.106256
C60   C     C_R   0.625101 0.973684 0.408941 -0.067346
C61   C     C_R   0.585319 0.033188 0.413238 -0.053323
C62   C     C_R   0.569973 0.065593 0.460511 -0.005152
C63   C     C_R   0.527405 0.125604 0.465250 0.595257
C64   C     C_R   0.517240 0.126796 0.554185 0.713784
C65   C     C_2   0.876731 0.770435 0.459340 -0.085619
C66   C     C_3   0.894927 0.704629 0.449032 -0.015228
C67   C     C_3   0.034806 0.716131 0.598082 -0.304139
C68   C     C_1   0.690239 0.697309 0.509630 0.025917
C69   C     C_2   0.653039 0.754384 0.511588 0.034729
C70   C     C_2   0.757660 0.794480 0.486923 0.273247
C71   C     C_R   0.322242 0.238209 0.540031 -0.116092
C72   C     C_R   0.278214 0.297513 0.543742 0.015385
C73   C     C_R   0.509624 0.319076 0.498815 0.028808
C74   C     C_R   0.552870 0.259232 0.495451 -0.073366
C75   C     C_R   0.461396 0.218283 0.516710 0.201689
C76   C     C_2   0.813589 0.673776 0.486615 -0.190318
C77   C     C_3   0.591137 0.385640 0.362691 0.311841
C78   C     C_3   0.467256 0.375477 0.319626 -0.332889
H1    H     H_    0.773805 0.335493 0.617293 0.083504
H2    H     H_    0.900750 0.637280 0.580617 0.018504
H3    H     H_    0.089687 0.637208 0.550870 0.051939
H4    H     H_    0.968449 0.730315 0.632034 0.175253
H5    H     H_    0.983538 0.738264 0.566579 0.056165
H6    H     H_    0.159634 0.729510 0.604986 0.121323
H7    H     H_    0.577753 0.431025 0.381519 0.053128
H8    H     H_    0.487391 0.332914 0.296544 0.115820
H9    H     H_    0.470125 0.411255 0.295318 0.084651
H10   H     H_    0.349299 0.374383 0.334139 0.152575
H11   H     H_    0.568962 0.318258 0.611212 0.053977
H12   H     H_    0.408335 0.615543 0.618336 -0.030289
H13   H     H_    0.598012 0.577759 0.622422 0.030901
H14   H     H_    0.502406 0.685415 0.694298 0.105852
H15   H     H_    0.470723 0.611436 0.706260 0.003016
H16   H     H_    0.800246 0.275535 0.691553 0.086177
H17   H     H_    0.060461 0.308179 0.725473 0.155959
H18   H     H_    0.193279 0.623402 0.346041 0.090683
H19   H     H_    0.001378 0.658253 0.347613 -0.101060
H20   H     H_    0.288930 0.702668 0.298864 0.173123
H21   H     H_    0.123269 0.663882 0.266927 0.098296
H22   H     H_    0.094800 0.735795 0.300474 0.116802
H23   H     H_    0.733584 0.648762 0.368262 -0.035292
H24   H     H_    0.790976 0.737661 0.329832 0.109538
H25   H     H_    0.614596 0.727582 0.289650 0.150305
H26   H     H_    0.063142 0.398944 0.650591 0.033287
H27   H     H_    0.773736 0.674665 0.283244 0.116495
H28   H     H_    0.141772 0.479962 0.285502 0.136013
H29   H     H_    0.138654 0.366562 0.121573 0.126284
H30   H     H_    0.540206 0.478221 0.759561 0.101343
H31   H     H_    0.352843 0.364839 0.882210 0.129114
H32   H     H_    0.291407 0.365831 0.966937 0.074831
H33   H     H_    0.203402 0.362546 0.036698 0.076796
H34   H     H_    0.664772 0.532147 0.242337 0.111318
H35   H     H_    0.885978 0.645625 0.122005 0.127925
H36   H     H_    0.949924 0.633931 0.959957 0.119342
H37   H     H_    0.056282 0.515297 0.712906 0.149662
H38   H     H_    0.946335 0.644490 0.036992 0.085453
H39   H     H_    0.394849 0.505956 0.604945 0.032941
H40   H     H_    0.564240 0.053578 0.379234 0.130507
H41   H     H_    0.632787 0.950227 0.371813 0.127637
H42   H     H_    0.244273 0.207140 0.553187 0.136086
H43   H     H_    0.696549 0.961247 0.623289 0.169737
H44   H     H_    0.096246 0.385408 0.741701 0.129374
H45   H     H_    0.951725 0.798127 0.440792 0.101642
H46   H     H_    0.654897 0.244162 0.474852 0.168965
H47   H     H_    0.865222 0.633348 0.496639 0.075816
H48   H     H_    0.911188 0.362793 0.713994 0.091633
H49   H     H_    0.267453 0.349799 0.419831 -0.085005
H50   H     H_    0.070530 0.355615 0.442283 0.055803
N1    N     N_R   0.947755 0.508156 0.204337 -0.419761
N2    N     N_R   0.253535 0.495596 0.795600 -0.445234
N3    N     N_R   0.728715 0.857614 0.490882 -0.433432
N4    N     N_R   0.503729 0.156045 0.511905 -0.429331
O1    O     O_2   0.919820 0.530450 0.618560 -0.435762
O2    O     O_3   0.577337 0.342636 0.395239 -0.592087
O3    O     O_3   0.046749 0.308584 0.627860 -0.566361
O4    O     O_2   0.269870 0.469530 0.381410 -0.475436
O5    O     O_3   0.037890 0.469550 0.441610 -0.434921
O6    O     O_3   0.535640 0.573600 0.413100 -0.379169
O7    O     O_3   0.099047 0.376671 0.370246 -0.663012
O8    O     O_3   0.647280 0.568810 0.525990 -0.440210
O9    O     O_3   0.133260 0.602900 0.438000 -0.424956
O10   O     O_2   0.209497 0.707110 0.487019 -0.484389
O11   O     O_3   0.183968 0.703300 0.389935 -0.531742
O12   O     O_3   0.151800 0.530410 0.558380 -0.502527
O13   O     O_3   0.542410 0.431140 0.474010 -0.506953
O14   O     O_2   0.406930 0.639920 0.526240 -0.455140
O15   O     O_3   0.603424 0.662896 0.605811 -0.641905
O16   O     O_2   0.383761 0.534189 0.326720 -0.503500
O17   O     O_3   0.527137 0.630318 0.322883 -0.607103
O18   O     O_2   0.032076 0.414259 0.200863 -0.595947
O19   O     O_2   0.356939 0.405604 0.801401 -0.560613
O20   O     O_2   0.870310 0.602141 0.201872 -0.613334
O21   O     O_2   0.150200 0.586063 0.795593 -0.484237
O22   O     O_2   0.778398 0.868086 0.574496 -0.583387
O23   O     O_3   0.654050 0.426350 0.586890 -0.515123
O24   O     O_2   0.692364 0.855779 0.407020 -0.554080
O25   O     O_2   0.508499 0.150422 0.427684 -0.584789
O26   O     O_2   0.477182 0.151655 0.594090 -0.519513
O27   O     O_2   0.816317 0.458684 0.671720 -0.499940
O28   O     O_3   0.094432 0.623749 0.625390 -0.597790
O29   O     O_3   0.638809 0.370622 0.676147 -0.585449
O30   O     O_2   0.782760 0.360070 0.473730 -0.434598
O31   O     O_3   0.056430 0.397060 0.562000 -0.513807
O32   O     O_2   0.946321 0.291269 0.532857 -0.446340
P1    P     P_3+3 0.092730 0.547450 0.611370 1.039412
P2    P     P_3+3 0.606840 0.368620 0.459370 1.040110
P3    P     P_3+3 0.081075 0.322061 0.566234 1.011081
P4    P     P_3+3 0.096970 0.452510 0.388620 1.013808
P5    P     P_3+3 0.104761 0.679182 0.442478 1.027361
P6    P     P_3+3 0.649788 0.438394 0.652629 0.998984
P7    P     P_3+3 0.588670 0.642551 0.541114 0.982427
P8    P     P_3+3 0.540366 0.562791 0.346948 1.028605
C79   C     C_3   0.174983 0.261318 0.336522 -0.265242
H51   H     H_    0.115705 0.287677 0.308965 0.154178
H52   H     H_    0.303822 0.268650 0.337232 0.094936
H53   H     H_    0.153012 0.214447 0.323145 0.137601
C80   C     C_3   0.189533 0.237001 0.424086 -0.364070
H54   H     H_    0.317298 0.245399 0.427939 0.103869
H55   H     H_    0.134989 0.244224 0.460734 0.122407
H56   H     H_    0.172142 0.190270 0.409202 0.177715
Cl1   Cl    Cl    0.906114 0.261977 0.386509 -0.682423
C81   C     C_3   0.750209 0.377334 0.340405 -0.273614
H57   H     H_    0.766706 0.331653 0.322932 0.189790
H58   H     H_    0.767087 0.405979 0.310991 0.025292
H59   H     H_    0.833802 0.386931 0.372167 0.127791
Cl2   Cl    Cl    0.783545 0.214060 0.615583 -0.606819
C82   C     C_3   0.563584 0.245143 0.684608 -0.197785
H60   H     H_    0.530061 0.275846 0.717457 0.147667
H61   H     H_    0.462228 0.240381 0.657061 0.194669
H62   H     H_    0.591294 0.202029 0.697767 0.194829
Cl3   Cl    Cl    0.743875 0.634682 0.710326 -0.567318
Cl4   Cl    Cl    0.533936 0.719368 0.391626 -0.643515
Cl5   Cl    Cl    0.307211 0.353330 0.669126 -0.786684
Cl6   Cl    Cl    0.981975 0.655832 0.864632 -0.510917
Cl7   Cl    Cl    0.843089 0.555295 0.418765 -0.709501
Cl8   Cl    Cl    0.600025 0.073511 0.656746 -0.555853
C83   C     C_3   0.521991 0.780353 0.543491 -0.284782
H63   H     H_    0.566360 0.789587 0.582993 0.142884
H64   H     H_    0.474911 0.821206 0.530007 0.114330
H65   H     H_    0.421633 0.750455 0.542496 0.146280
C84   C     C_3   0.342639 0.402331 0.539861 -0.232441
H66   H     H_    0.435124 0.433666 0.543527 0.153145
H67   H     H_    0.255097 0.417201 0.512080 0.118854
H68   H     H_    0.311551 0.408702 0.579327 0.090828

loop_
_geom_bond_atom_site_label_1
_geom_bond_atom_site_label_2
_ccdc_geom_bond_type
C25   C46   A    
O12   P1    S    
O11   P5    S    
C38   C39   S    
C10   N1    Am   
C68   C76   D    
C74   H46   S    
C71   C72   A    
C27   H32   S    
C17   C18   A    
C49   C72   A    
C63   O25   D    
C1    Cl2   S    
C64   O26   D    
C16   N1    S    
C5    C6    S    
C79   H52   S    
C32   O21   D    
C77   C81   S    
C77   O2    S    
C84   H67   S    
O10   P5    D    
C27   C28   A    
C5    H19   S    
C11   C16   D    
C34   C45   S    
Ba2   O5    S    
C5    H18   S    
C23   H48   S    
C49   C73   A    
C65   C70   D    
C8    H24   S    
C1    C82   S    
O23   P6    S    
C28   C29   A    
C66   P5    S    
C55   C57   A    
O4    P4    D    
Ba1   P1    S    
C57   Cl8   S    
Ba2   O14   S    
C53   C60   A    
C10   C20   A    
C22   C37   D    
C3    O15   S    
C81   H57   S    
O5    P4    S    
Ba1   Ba2   S    
C78   H9    S    
C82   H61   S    
C72   P3    S    
C45   C80   S    
Ba1   O8    S    
C64   N4    Am   
O27   P6    D    
C25   C42   A    
C2    H1    S    
C79   H51   S    
Ba1   O30   S    
C17   C41   A    
C14   C15   D    
C4    H14   S    
C83   H65   S    
C22   C36   S    
C73   P2    S    
O8    P7    S    
C7    C8    S    
O3    P3    S    
C11   H34   S    
Ba1   O5    S    
C46   H36   S    
C80   H56   S    
C13   C21   S    
C38   H37   S    
C58   C64   A    
C57   C58   A    
O17   P8    S    
C66   C76   S    
Ba2   O9    S    
Ba1   O12   S    
C76   H47   S    
C77   H7    S    
C23   H44   S    
C49   C84   S    
C31   C32   A    
C79   H53   S    
C19   C43   A    
O31   P3    S    
C84   H68   S    
C9    C18   A    
C65   C66   S    
Ba2   O4    S    
C26   C30   A    
C17   C20   A    
C51   N3    Am   
C74   C75   A    
C12   Cl5   S    
C45   Cl1   S    
C50   C55   A    
C15   H28   S    
C34   H49   S    
C37   C38   D    
C14   P4    S    
C7    Cl4   S    
O2    P2    S    
Ba1   P2    S    
Ba2   O13   S    
C52   N3    Am   
C77   C78   S    
C58   C59   A    
C40   C43   A    
C35   C36   S    
C82   H62   S    
C73   C74   A    
C60   C61   A    
C34   H50   S    
C55   H43   S    
C3    H13   S    
C29   C30   A    
C12   O3    S    
Ba1   O31   S    
C7    H23   S    
C53   C54   A    
C15   C16   S    
C2    O29   S    
C36   P6    S    
O29   P6    S    
C35   H30   S    
C1    H16   S    
Ba2   P4    S    
C44   H35   S    
O30   P2    D    
C23   H17   S    
C46   C47   A    
O16   P8    D    
C71   H42   S    
C14   C21   D    
C11   C13   S    
C41   C42   A    
Ba2   O8    S    
C29   C33   A    
Ba1   O13   S    
C75   N4    S    
C1    C2    S    
C56   O28   S    
C68   C69   D    
C67   H5    S    
C50   C51   A    
C24   C40   A    
C51   O22   D    
C6    H21   S    
C42   C48   A    
C34   O7    S    
C21   Cl7   S    
C52   C53   A    
C7    O17   S    
C22   H39   S    
O1    P1    D    
C13   P8    S    
C20   C44   A    
C48   H38   S    
C33   O19   D    
O32   P3    D    
C10   O20   D    
C61   C62   A    
C9    N1    Am   
C39   N2    S    
C19   H29   S    
C56   C67   S    
C69   C83   S    
C47   Cl6   S    
C80   H54   S    
Ba2   O12   S    
C44   C48   A    
C24   C26   A    
O14   P7    D    
C81   H59   S    
C28   H31   S    
Ba2   O6    S    
C62   C63   A    
C2    H11   S    
C56   H2    S    
C6    H20   S    
O9    P5    S    
C69   C70   S    
C78   H8    S    
C67   H4    S    
C56   H3    S    
C30   C31   A    
C59   C62   A    
C61   H40   S    
C70   N3    S    
C3    C4    S    
C50   C54   A    
C33   N2    Am   
Ba1   O23   S    
O7    P4    S    
C81   H58   S    
C63   N4    Am   
O15   P7    S    
C52   O24   D    
C4    Cl3   S    
C12   C23   S    
C35   C39   D    
C82   H60   S    
C68   P7    S    
C3    H12   S    
O13   P2    S    
C83   H63   S    
C32   N2    Am   
O28   P1    S    
C37   P1    S    
C43   H33   S    
C9    O18   D    
C12   H26   S    
C8    H27   S    
C18   C19   A    
C24   C27   A    
O6    P8    S    
C4    H15   S    
C40   C41   A    
C31   C47   A    
C25   C26   A    
C83   H64   S    
C71   C75   A    
C54   C59   A    
C8    H25   S    
C84   H66   S    
C80   H55   S    
Ba1   O1    S    
C6    H22   S    
C78   H10   S    
C60   H41   S    
C45   C79   S    
C67   H6    S    
C65   H45   S    
C5    O11   S    
