data_mof_unit_13539.cif
_audit_creation_date              2012-10-26T20:21:48-0400
_audit_creation_method            fapswitch 2.2
_symmetry_space_group_name_H-M    P1
_symmetry_Int_Tables_number       1
_space_group_crystal_system       monoclinic
_cell_length_a                    15.834388
_cell_length_b                    14.781772
_cell_length_c                    9.674295
_cell_angle_alpha                 90.000073
_cell_angle_beta                  90.0
_cell_angle_gamma                 90.0
_cell_volume                      2264.36851745

loop_
_atom_site_label
_atom_site_type_symbol
_atom_type_description
_atom_site_fract_x
_atom_site_fract_y
_atom_site_fract_z
_atom_type_partial_charge
C1    C     C_R   0.119160 0.381754 0.500208 0.564312
C2    C     C_R   0.004146 0.579488 0.926520 0.130562
C3    C     C_R   0.995854 0.579488 0.073481 0.130564
C4    C     C_R   0.995854 0.420512 0.926519 0.130562
C5    C     C_R   0.504147 0.920512 0.073480 0.130562
C6    C     C_R   0.504146 0.079488 0.926520 0.130564
C7    C     C_R   0.495853 0.079488 0.073481 0.130562
C8    C     C_R   0.495854 0.920512 0.926519 0.130563
C9    C     C_R   0.781652 0.282338 0.373155 -0.101823
C10   C     C_R   0.219401 0.716714 0.623856 -0.135580
C11   C     C_R   0.218348 0.717662 0.373155 -0.101824
C12   C     C_R   0.880840 0.618246 0.500208 0.564314
C13   C     C_R   0.780597 0.283288 0.623856 -0.135582
C14   C     C_R   0.218347 0.282337 0.626844 -0.101823
C15   C     C_R   0.780597 0.716712 0.376144 -0.135581
C16   C     C_R   0.781654 0.717664 0.626845 -0.101824
C17   C     C_R   0.219403 0.283288 0.376144 -0.135581
C18   C     C_R   0.281654 0.782336 0.373155 -0.101824
C19   C     C_R   0.719400 0.216715 0.623856 -0.135579
C20   C     C_R   0.718345 0.217664 0.373155 -0.101825
C21   C     C_R   0.280598 0.783287 0.623856 -0.135580
C22   C     C_R   0.718348 0.782338 0.626844 -0.101824
C23   C     C_R   0.880840 0.381754 0.499792 0.564312
C24   C     C_R   0.280601 0.216716 0.376144 -0.135578
C25   C     C_R   0.281653 0.217663 0.626844 -0.101824
C26   C     C_R   0.719400 0.783284 0.376144 -0.135579
C27   C     C_R   0.186685 0.684764 0.498844 0.023313
C28   C     C_R   0.813314 0.315237 0.498844 0.023312
C29   C     C_R   0.813315 0.684764 0.501156 0.023312
C30   C     C_R   0.186686 0.315237 0.501156 0.023312
C31   C     C_R   0.686684 0.184765 0.498844 0.023313
C32   C     C_R   0.313315 0.815236 0.498844 0.023313
C33   C     C_R   0.313316 0.184765 0.501156 0.023314
C34   C     C_R   0.119160 0.618246 0.499792 0.564314
C35   C     C_R   0.686685 0.815235 0.501156 0.023314
C36   C     C_2   0.024257 0.332497 0.139624 0.624355
C37   C     C_2   0.024260 0.667503 0.860377 0.624348
C38   C     C_2   0.975742 0.667503 0.139625 0.624355
C39   C     C_2   0.975744 0.332497 0.860375 0.624356
C40   C     C_2   0.524261 0.832497 0.139623 0.624348
C41   C     C_2   0.524260 0.167503 0.860377 0.624351
C42   C     C_2   0.475737 0.167503 0.139623 0.624344
C43   C     C_2   0.475740 0.832497 0.860376 0.624352
C44   C     C_R   0.619159 0.881754 0.500208 0.564315
C45   C     C_R   0.380841 0.118246 0.500208 0.564316
C46   C     C_R   0.380840 0.881754 0.499792 0.564314
C47   C     C_R   0.619159 0.118246 0.499792 0.564315
C48   C     C_R   0.004146 0.420512 0.073480 0.130562
Cu1   Cu    Cu3+1 0.000000 0.500000 0.640660 1.053004
Cu2   Cu    Cu3+1 0.000000 0.500000 0.359340 1.053004
Cu3   Cu    Cu3+1 0.500000 0.000000 0.640660 1.053007
Cu4   Cu    Cu3+1 0.500000 0.000000 0.359340 1.053008
H1    H     H_    0.805354 0.306557 0.274907 0.184123
H2    H     H_    0.698005 0.190302 0.721668 0.180458
H3    H     H_    0.694642 0.193446 0.274907 0.184120
H4    H     H_    0.301992 0.809700 0.721669 0.180457
H5    H     H_    0.694646 0.806558 0.725093 0.184121
H6    H     H_    0.301996 0.190304 0.278331 0.180456
H7    H     H_    0.305356 0.193444 0.725093 0.184122
H8    H     H_    0.698005 0.809696 0.278331 0.180458
H9    H     H_    0.098468 0.221515 0.135771 0.339656
H10   H     H_    0.098469 0.778486 0.864239 0.339655
H11   H     H_    0.901531 0.778485 0.135768 0.339656
H12   H     H_    0.198006 0.690302 0.721669 0.180457
H13   H     H_    0.901534 0.221514 0.864227 0.339656
H14   H     H_    0.598469 0.721513 0.135759 0.339655
H15   H     H_    0.598469 0.278486 0.864240 0.339655
H16   H     H_    0.401529 0.278486 0.135755 0.339655
H17   H     H_    0.401530 0.721514 0.864237 0.339656
H18   H     H_    0.194645 0.693442 0.274907 0.184123
H19   H     H_    0.801991 0.309702 0.721668 0.180462
H20   H     H_    0.194644 0.306556 0.725093 0.184126
H21   H     H_    0.801991 0.690298 0.278332 0.180459
H22   H     H_    0.805358 0.693446 0.725093 0.184123
H23   H     H_    0.198010 0.309703 0.278332 0.180461
H24   H     H_    0.305357 0.806554 0.274907 0.184122
N1    N     N_R   0.000000 0.500000 0.852070 -0.314952
N2    N     N_R   0.000000 0.500000 0.147930 -0.314953
N3    N     N_R   0.500000 0.000000 0.852070 -0.314952
N4    N     N_R   0.500000 0.000000 0.147930 -0.314951
O1    O     O_R   0.090170 0.409820 0.618740 -0.472641
O2    O     O_R   0.409830 0.090180 0.381260 -0.503490
O3    O     O_R   0.409830 0.090180 0.618740 -0.472640
O4    O     O_R   0.590170 0.909820 0.381260 -0.503492
O5    O     O_R   0.409830 0.909820 0.381260 -0.472639
O6    O     O_R   0.590170 0.090180 0.618740 -0.503493
O7    O     O_R   0.590170 0.090180 0.381260 -0.472639
O8    O     O_R   0.409830 0.909820 0.618740 -0.503493
O9    O     O_2   0.976561 0.298105 0.223265 -0.483659
O10   O     O_R   0.093730 0.283436 0.091309 -0.718611
O11   O     O_2   0.976568 0.701893 0.776727 -0.483656
O12   O     O_R   0.909830 0.590180 0.381260 -0.503494
O13   O     O_R   0.093730 0.716565 0.908702 -0.718610
O14   O     O_2   0.023436 0.701894 0.223269 -0.483654
O15   O     O_R   0.906269 0.716563 0.091305 -0.718614
O16   O     O_2   0.023441 0.298105 0.776735 -0.483661
O17   O     O_R   0.906270 0.283436 0.908689 -0.718611
O18   O     O_2   0.476570 0.798107 0.223274 -0.483654
O19   O     O_R   0.593730 0.783435 0.091296 -0.718612
O20   O     O_2   0.476568 0.201893 0.776727 -0.483652
O21   O     O_R   0.593731 0.216564 0.908702 -0.718614
O22   O     O_2   0.523426 0.201892 0.223279 -0.483652
O23   O     O_R   0.909830 0.590180 0.618740 -0.472639
O24   O     O_R   0.406268 0.216565 0.091292 -0.718612
O25   O     O_2   0.523432 0.798107 0.776727 -0.483652
O26   O     O_R   0.406269 0.783435 0.908700 -0.718613
O27   O     O_R   0.090170 0.409820 0.381260 -0.503494
O28   O     O_R   0.909830 0.409820 0.381260 -0.472641
O29   O     O_R   0.090170 0.590180 0.618740 -0.503492
O30   O     O_R   0.090170 0.590180 0.381260 -0.472641
O31   O     O_R   0.909830 0.409820 0.618740 -0.503495
O32   O     O_R   0.590170 0.909820 0.618740 -0.472640

loop_
_geom_bond_atom_site_label_1
_geom_bond_atom_site_label_2
_ccdc_geom_bond_type
C10   C27   A    
C36   O9    D    
C11   C18   A    
Cu3   O32   S    
H11   O15   S    
C12   C29   S    
C33   C45   S    
C45   O2    A    
C8    C43   S    
C19   C31   A    
C40   O19   S    
C11   H18   S    
C22   C35   A    
C16   H22   S    
Cu4   O5    S    
C40   O18   D    
C39   O17   S    
C1    O1    A    
Cu2   N2    S    
Cu2   O30   S    
C43   O25   D    
C7    C42   S    
C48   N2    A    
Cu4   O4    S    
C3    C38   S    
C41   O21   S    
C6    C41   S    
C38   O15   S    
C8    N3    A    
C16   C22   A    
C13   C28   A    
Cu1   O31   S    
C46   O5    A    
C10   C21   A    
C31   C47   S    
Cu2   O28   S    
C17   C30   A    
C45   O3    A    
C14   H20   S    
C14   C30   A    
C20   H3    S    
C42   O22   D    
Cu3   O6    S    
C15   C29   A    
C46   O8    A    
C27   C34   S    
C21   C32   A    
C17   C24   A    
C37   O11   D    
Cu3   Cu4   S    
C47   O6    A    
C12   O23   A    
C13   C19   A    
C15   C26   A    
C13   H19   S    
C16   C29   A    
C43   O26   S    
C47   O7    A    
H14   O19   S    
C5    C8    A    
C9    C20   A    
C4    C39   S    
C11   C27   A    
C38   O14   D    
C41   O20   D    
C37   O13   S    
C23   C28   S    
C5    N4    A    
Cu4   O2    S    
C35   C44   S    
C1    O27   A    
C44   O32   A    
C19   H2    S    
Cu2   O12   S    
C15   H21   S    
Cu2   O27   S    
C34   O30   A    
C5    C40   S    
C9    H1    S    
Cu3   O3    S    
H9    O10   S    
H15   O21   S    
Cu1   O29   S    
C4    C48   A    
C36   O10   S    
C18   H24   S    
C32   C46   S    
C12   O12   A    
Cu4   O7    S    
C10   H12   S    
H16   O24   S    
C44   O4    A    
C42   O24   S    
Cu3   O8    S    
Cu1   O23   S    
C21   H4    S    
H17   O26   S    
C6    C7    A    
C23   O31   A    
C24   C33   A    
C2    C3    A    
H13   O17   S    
C4    N1    A    
C2    N1    A    
C2    C37   S    
C6    N3    A    
C23   O28   A    
C22   H5    S    
C1    C30   S    
Cu1   N1    S    
C36   C48   S    
Cu1   O1    S    
C14   C25   A    
Cu3   N3    S    
C39   O16   D    
C26   C35   A    
C18   C32   A    
C24   H6    S    
Cu1   Cu2   S    
H10   O13   S    
C17   H23   S    
C34   O29   A    
C25   H7    S    
Cu4   N4    S    
C3    N2    A    
C26   H8    S    
C9    C28   A    
C25   C33   A    
C7    N4    A    
C20   C31   A    
