data_mof_unit_18985.cif
_audit_creation_date              2012-12-11T14:52:25-0500
_audit_creation_method            fapswitch 2.2
_symmetry_space_group_name_H-M    P1
_symmetry_Int_Tables_number       1
_space_group_crystal_system       triclinic
_cell_length_a                    18.81009
_cell_length_b                    11.132741
_cell_length_c                    18.767229
_cell_angle_alpha                 89.995026
_cell_angle_beta                  91.381121
_cell_angle_gamma                 89.990908
_cell_volume                      3928.86347853

loop_
_atom_site_label
_atom_site_type_symbol
_atom_type_description
_atom_site_fract_x
_atom_site_fract_y
_atom_site_fract_z
_atom_type_partial_charge
C1    C     C_R   0.289038 0.001747 0.861298 0.550410
C2    C     C_R   0.710824 0.001593 0.138714 0.550608
C3    C     C_R   0.789039 0.501743 0.861296 0.551683
C4    C     C_R   0.210825 0.501597 0.138713 0.549269
C5    C     C_3   0.524039 0.721974 0.972817 -0.139545
C6    C     C_3   0.465818 0.732580 0.029462 -0.155210
C7    C     C_3   0.024066 0.221972 0.972800 -0.138667
C8    C     C_3   0.965845 0.232583 0.029445 -0.156256
C9    C     C_R   0.293431 0.507154 0.957482 0.363238
C10   C     C_R   0.704330 0.511254 0.041557 0.360171
C11   C     C_R   0.793462 0.007223 0.957506 0.361264
C12   C     C_R   0.204352 0.011196 0.041577 0.362059
C13   C     C_R   0.281629 0.477823 0.028621 -0.173738
C14   C     C_R   0.715835 0.483002 0.970241 -0.173794
C15   C     C_R   0.781653 0.977877 0.028640 -0.173592
C16   C     C_R   0.215851 0.982961 0.970257 -0.173849
C17   C     C_R   0.224095 0.529277 0.064270 -0.070757
C18   C     C_R   0.775897 0.528415 0.935981 -0.070394
C19   C     C_R   0.724096 0.029280 0.064276 -0.070116
C20   C     C_R   0.275898 0.028412 0.935986 -0.070998
C21   C     C_R   0.177035 0.606153 0.027252 0.416275
C22   C     C_R   0.826006 0.596901 0.974774 0.401485
C23   C     C_R   0.677022 0.106123 0.027251 0.416335
C24   C     C_R   0.326001 0.096916 0.974777 0.401160
C25   C     C_R   0.189306 0.635646 0.957945 -0.076403
C26   C     C_R   0.814813 0.623605 0.044893 -0.098647
C27   C     C_R   0.689300 0.135634 0.957948 -0.077575
C28   C     C_R   0.314813 0.123604 0.044899 -0.097123
C29   C     C_R   0.247109 0.587430 0.922013 -0.031150
C30   C     C_R   0.753684 0.583803 0.078926 -0.046293
C31   C     C_R   0.747123 0.087460 0.922027 -0.033954
C32   C     C_R   0.253696 0.083772 0.078940 -0.043292
C33   C     C_R   0.450637 0.735819 0.522505 0.415215
C34   C     C_R   0.457778 0.738216 0.449296 0.417842
C35   C     C_R   0.042198 0.238145 0.550705 0.417966
C36   C     C_R   0.049333 0.235749 0.477496 0.415312
C37   C     C_R   0.489375 0.836422 0.417998 -0.062653
C38   C     C_R   0.475475 0.831232 0.565850 -0.075072
C39   C     C_R   0.024525 0.331212 0.434151 -0.074924
C40   C     C_R   0.010630 0.336388 0.582005 -0.062529
C41   C     C_R   0.497908 0.942210 0.457352 -0.069830
C42   C     C_R   0.498234 0.938092 0.532455 -0.065459
C43   C     C_R   0.001792 0.438092 0.467547 -0.065211
C44   C     C_R   0.002119 0.442192 0.542650 -0.070179
C45   C     C_R   0.469223 0.820910 0.855781 0.566009
C46   C     C_R   0.530507 0.821138 0.144387 0.562084
C47   C     C_R   0.969238 0.320912 0.855771 0.571125
C48   C     C_R   0.030522 0.321136 0.144377 0.556818
C49   C     C_R   0.186757 0.656305 0.530611 -0.035782
C50   C     C_R   0.788472 0.725711 0.484232 0.007124
C51   C     C_R   0.711512 0.225710 0.515760 0.007150
C52   C     C_R   0.313214 0.156339 0.469401 -0.035680
C53   C     C_R   0.196409 0.654282 0.458370 -0.196577
C54   C     C_R   0.788799 0.705364 0.557607 -0.139152
C55   C     C_R   0.711186 0.205359 0.442386 -0.139428
C56   C     C_R   0.303537 0.154347 0.541638 -0.196685
C57   C     C_R   0.246661 0.582335 0.426937 0.009952
C58   C     C_R   0.742067 0.625337 0.588715 0.005527
C59   C     C_R   0.757924 0.125320 0.411284 0.005008
C60   C     C_R   0.253315 0.082362 0.573069 0.010025
C61   C     C_R   0.295167 0.517822 0.469253 0.408764
C62   C     C_R   0.679302 0.599259 0.553000 0.363554
C63   C     C_R   0.820692 0.099225 0.447002 0.363416
C64   C     C_R   0.204842 0.017813 0.530751 0.408644
C65   C     C_R   0.288063 0.514796 0.542845 0.057908
C66   C     C_R   0.675637 0.609070 0.478839 -0.006747
C67   C     C_R   0.824355 0.109031 0.521163 -0.006659
C68   C     C_R   0.211963 0.014789 0.457162 0.058142
C69   C     C_R   0.238859 0.592752 0.574091 -0.068745
C70   C     C_R   0.731345 0.671209 0.442346 -0.086876
C71   C     C_R   0.768644 0.171192 0.557650 -0.087010
C72   C     C_R   0.261145 0.092763 0.425918 -0.068821
C73   C     C_R   0.260572 0.636828 0.851697 0.568766
C74   C     C_R   0.739623 0.636107 0.148536 0.569721
C75   C     C_R   0.760580 0.136852 0.851707 0.575072
C76   C     C_R   0.239630 0.136084 0.148545 0.563428
C77   C     C_R   0.270595 0.045662 0.645632 0.595769
C78   C     C_R   0.731749 0.054581 0.349595 0.583247
C79   C     C_R   0.768251 0.554581 0.650404 0.583948
C80   C     C_R   0.229402 0.545659 0.354370 0.595195
C81   C     C_R   0.463330 0.822928 0.643221 0.581655
C82   C     C_R   0.526983 0.823738 0.350607 0.573682
C83   C     C_R   0.973019 0.323729 0.649395 0.575426
C84   C     C_R   0.036675 0.322925 0.356781 0.580111
C85   C     C_R   0.257261 0.636533 0.644646 0.596405
C86   C     C_R   0.726444 0.688331 0.364217 0.565861
C87   C     C_R   0.773551 0.188331 0.635777 0.566130
C88   C     C_R   0.242740 0.136540 0.355357 0.594589
C89   C     C_3   0.476686 0.928525 0.027232 0.461083
C90   C     C_3   0.533606 0.917861 0.970707 0.443850
C91   C     C_3   0.976718 0.428527 0.027214 0.459731
C92   C     C_3   0.033638 0.417858 0.970688 0.445340
C93   C     C_3   0.429621 0.836202 0.987154 -0.163549
C94   C     C_3   0.570535 0.815959 0.012988 -0.164522
C95   C     C_3   0.929652 0.336208 0.987137 -0.164462
C96   C     C_3   0.070564 0.315954 0.012972 -0.163638
C97   C     C_3   0.488308 0.825438 0.931275 0.004987
C98   C     C_3   0.511713 0.826423 0.068894 -0.004068
C99   C     C_3   0.988338 0.325439 0.931258 0.004540
C100  C     C_3   0.011741 0.326423 0.068877 -0.003636
Cr1   Cr    Cr6+3 0.229630 0.835900 0.747350 1.131856
Cr2   Cr    Cr6+3 0.770370 0.835900 0.252650 1.090963
Cr3   Cr    Cr6+3 0.729630 0.335900 0.747350 1.092143
Cr4   Cr    Cr6+3 0.270370 0.335900 0.252650 1.130850
Cr5   Cr    Cr6+3 0.387410 0.989850 0.750850 1.145731
Cr6   Cr    Cr6+3 0.612590 0.989850 0.249150 1.142998
Cr7   Cr    Cr6+3 0.887410 0.489850 0.750850 1.144638
Cr8   Cr    Cr6+3 0.112590 0.489850 0.249150 1.143945
Cr9   Cr    Cr6+3 0.385800 0.677120 0.749340 1.157656
Cr10  Cr    Cr6+3 0.614200 0.677120 0.250660 1.146028
Cr11  Cr    Cr6+3 0.885800 0.177120 0.749340 1.143989
Cr12  Cr    Cr6+3 0.114200 0.177120 0.250660 1.159849
H1    H     H_    0.371751 0.842998 0.975137 0.098274
H2    H     H_    0.628445 0.808464 0.025164 0.109545
H3    H     H_    0.871783 0.343009 0.975118 0.098650
H4    H     H_    0.128474 0.308453 0.025148 0.109198
H5    H     H_    0.158752 0.701385 0.424644 0.233554
H6    H     H_    0.830338 0.743500 0.590998 0.226321
H7    H     H_    0.669649 0.243514 0.408988 0.226138
H8    H     H_    0.341174 0.201465 0.575363 0.233432
H9    H     H_    0.543823 0.637280 0.949140 0.196741
H10   H     H_    0.437721 0.656748 0.054943 0.184913
H11   H     H_    0.043848 0.137279 0.949122 0.197816
H12   H     H_    0.937746 0.156752 0.054923 0.183633
H13   H     H_    0.317668 0.416308 0.055850 0.180926
H14   H     H_    0.677258 0.427895 0.941654 0.179090
H15   H     H_    0.817706 0.916392 0.055875 0.180851
H16   H     H_    0.177280 0.927836 0.941673 0.179353
H17   H     H_    0.152524 0.698462 0.932848 0.223744
H18   H     H_    0.853820 0.680499 0.071587 0.233951
H19   H     H_    0.652508 0.198428 0.932845 0.222550
H20   H     H_    0.353815 0.180514 0.071589 0.235445
O1    O     O_R   0.214270 0.709000 0.827470 -0.532521
O2    O     O_R   0.785730 0.709000 0.172530 -0.538981
O3    O     O_R   0.714270 0.209000 0.827470 -0.534748
O4    O     O_R   0.285730 0.209000 0.172530 -0.536787
O5    O     O_R   0.445950 0.919440 0.676520 -0.489848
O6    O     O_R   0.554050 0.919440 0.323480 -0.479517
O7    O     O_R   0.945950 0.419440 0.676520 -0.478960
O8    O     O_R   0.054050 0.419440 0.323480 -0.490751
O9    O     O_R   0.456730 0.717630 0.669840 -0.414715
O10   O     O_R   0.543270 0.717630 0.330160 -0.463641
O11   O     O_R   0.956730 0.217630 0.669840 -0.463276
O12   O     O_R   0.043270 0.217630 0.330160 -0.415390
O13   O     O_R   0.320620 0.625640 0.672920 -0.453839
O14   O     O_R   0.679380 0.625640 0.327080 -0.455996
O15   O     O_R   0.820620 0.125640 0.672920 -0.454786
O16   O     O_R   0.179380 0.125640 0.327080 -0.454408
O17   O     O_3   0.334280 0.834290 0.749180 -0.355215
O18   O     O_3   0.665720 0.834290 0.250820 -0.362073
O19   O     O_3   0.834280 0.334290 0.749180 -0.363682
O20   O     O_3   0.165720 0.334290 0.250820 -0.353600
O21   O     O_R   0.236160 0.958490 0.823130 -0.514481
O22   O     O_R   0.763840 0.958490 0.176870 -0.516131
O23   O     O_R   0.736160 0.458490 0.823130 -0.517640
O24   O     O_R   0.263840 0.458490 0.176870 -0.512913
O25   O     O_R   0.332080 0.075470 0.831280 -0.392386
O26   O     O_R   0.667920 0.075470 0.168720 -0.400765
O27   O     O_R   0.832080 0.575470 0.831280 -0.399601
O28   O     O_R   0.167920 0.575470 0.168720 -0.393509
O29   O     O_R   0.446300 0.918110 0.826620 -0.462029
O30   O     O_R   0.553700 0.918110 0.173380 -0.458859
O31   O     O_R   0.946300 0.418110 0.826620 -0.455776
O32   O     O_R   0.053700 0.418110 0.173380 -0.465151
O33   O     O_R   0.457110 0.716200 0.831760 -0.502282
O34   O     O_R   0.542890 0.716200 0.168240 -0.488296
O35   O     O_R   0.957110 0.216200 0.831760 -0.497384
O36   O     O_R   0.042890 0.216200 0.168240 -0.493185
O37   O     O_R   0.320980 0.624310 0.823030 -0.435101
O38   O     O_R   0.679020 0.624310 0.176970 -0.424426
O39   O     O_R   0.820980 0.124310 0.823030 -0.428606
O40   O     O_R   0.179020 0.124310 0.176970 -0.430815
O41   O     O_R   0.213890 0.710430 0.665540 -0.443996
O42   O     O_R   0.786110 0.710430 0.334460 -0.432658
O43   O     O_R   0.713890 0.210430 0.665540 -0.431224
O44   O     O_R   0.286110 0.210430 0.334460 -0.444761
O45   O     O_R   0.235810 0.959820 0.673020 -0.425998
O46   O     O_R   0.764190 0.959820 0.326980 -0.437121
O47   O     O_R   0.735810 0.459820 0.673020 -0.437309
O48   O     O_R   0.264190 0.459820 0.326980 -0.425965
O49   O     O_R   0.331700 0.076900 0.669350 -0.499139
O50   O     O_R   0.668300 0.076900 0.330650 -0.516589
O51   O     O_R   0.831700 0.576900 0.669350 -0.516612
O52   O     O_R   0.168300 0.576900 0.330650 -0.499146
C101  C     C_2   0.118822 0.721861 0.551478 0.709150
O53   O     O_2   0.071036 0.732297 0.506675 -0.448815
O54   O     O_R   0.105534 0.770704 0.618569 -0.542388
H21   H     H_    0.058043 0.813479 0.621142 0.359660
C102  C     C_2   0.854818 0.790188 0.458275 0.673394
O55   O     O_2   0.907102 0.796968 0.497472 -0.439337
O56   O     O_R   0.861082 0.843748 0.392055 -0.591032
H22   H     H_    0.911997 0.864526 0.380171 0.373335
C103  C     C_2   0.645166 0.290224 0.541712 0.673249
O57   O     O_2   0.592895 0.297081 0.502503 -0.439443
O58   O     O_R   0.638887 0.343735 0.607939 -0.591128
H23   H     H_    0.587973 0.364564 0.619809 0.373374
C104  C     C_2   0.381152 0.221849 0.448543 0.709114
O59   O     O_2   0.428938 0.232211 0.493348 -0.448940
O60   O     O_R   0.394438 0.270739 0.381460 -0.542660
H24   H     H_    0.441933 0.313476 0.378891 0.359749
F1    F     F_    0.349000 0.459233 0.438807 -0.536729
F2    F     F_    0.622397 0.564163 0.590544 -0.575491
F3    F     F_    0.877606 0.064140 0.409461 -0.575836
F4    F     F_    0.151038 0.959163 0.561194 -0.536798
C105  C     C_2   0.332603 0.433155 0.588035 0.636247
O61   O     O_2   0.306605 0.385000 0.639957 -0.534303
O62   O     O_R   0.404543 0.416517 0.574421 -0.506696
H25   H     H_    0.429712 0.366026 0.612258 0.347755
C106  C     C_2   0.618883 0.535437 0.443858 0.646525
O63   O     O_2   0.633863 0.461003 0.398791 -0.506167
O64   O     O_R   0.550185 0.537619 0.470059 -0.541761
H26   H     H_    0.517674 0.476679 0.445806 0.412952
C107  C     C_2   0.881111 0.035369 0.556152 0.646393
O65   O     O_2   0.866133 0.960948 0.601229 -0.505541
O66   O     O_R   0.949809 0.037516 0.529949 -0.541812
H27   H     H_    0.982320 0.976553 0.554203 0.412893
C108  C     C_2   0.167481 0.933104 0.411968 0.636162
O67   O     O_2   0.193534 0.884923 0.360084 -0.536273
O68   O     O_R   0.095533 0.916468 0.425527 -0.506604
H28   H     H_    0.070404 0.865966 0.387681 0.347743
F5    F     F_    0.457007 0.034260 0.059447 -0.547670
F6    F     F_    0.563904 0.012112 0.935028 -0.577292
F7    F     F_    0.957037 0.534267 0.059421 -0.550960
F8    F     F_    0.063938 0.512100 0.935003 -0.573624
F9    F     F_    0.350274 0.459546 0.924385 -0.555150
F10   F     F_    0.644438 0.471243 0.072741 -0.556399
F11   F     F_    0.850330 0.959670 0.924425 -0.556253
F12   F     F_    0.144476 0.971141 0.072774 -0.555570
F13   F     F_    0.118225 0.653721 0.057145 -0.498047
F14   F     F_    0.886327 0.639609 0.945379 -0.500838
F15   F     F_    0.618194 0.153641 0.057135 -0.497661
F16   F     F_    0.386311 0.139656 0.945377 -0.501527
F17   F     F_    0.419913 0.638756 0.551026 -0.545535
F18   F     F_    0.435002 0.644225 0.408832 -0.540666
F19   F     F_    0.064952 0.144116 0.591169 -0.540221
F20   F     F_    0.080019 0.138637 0.448975 -0.545238
C109  C     C_2   0.498863 0.053801 0.416044 0.644957
O69   O     O_2   0.456024 0.065353 0.366333 -0.492581
O70   O     O_R   0.554899 0.132967 0.423251 -0.615837
H29   H     H_    0.551963 0.199130 0.386114 0.349797
C110  C     C_2   0.529521 0.037445 0.574646 0.671385
O71   O     O_2   0.594140 0.044522 0.581269 -0.484337
O72   O     O_R   0.485879 0.119759 0.608784 -0.632305
H30   H     H_    0.514000 0.181040 0.637724 0.334049
C111  C     C_2   0.970521 0.537483 0.425354 0.670678
O73   O     O_2   0.905903 0.544579 0.418694 -0.485653
O74   O     O_R   0.014177 0.619798 0.391244 -0.632383
H31   H     H_    0.986066 0.681103 0.362294 0.333699
C112  C     C_2   0.001174 0.553766 0.583961 0.644831
O75   O     O_2   0.044027 0.565271 0.633661 -0.490344
O76   O     O_R   0.945119 0.632938 0.576791 -0.616035
H32   H     H_    0.948057 0.699081 0.613933 0.349780

loop_
_geom_bond_atom_site_label_1
_geom_bond_atom_site_label_2
_ccdc_geom_bond_type
C58   C62   A    
C83   O11   A    
C49   C53   A    
Cr6   O18   S    
C55   C59   A    
C34   C37   A    
C27   H19   S    
C41   C42   A    
C14   C18   A    
Cr1   O41   S    
O70   H29   S    
C40   C83   S    
C82   O10   A    
C25   H17   S    
C83   O7    A    
C5    C94   S    
C94   H2    S    
C47   C99   S    
C7    C8    S    
Cr4   O44   S    
C79   O51   A    
C55   H7    S    
C105  O61   D    
C15   C19   A    
C7    C96   S    
Cr8   O32   S    
C112  O75   D    
C50   C54   A    
C7    C99   S    
C96   C100  S    
C37   C41   A    
C64   C68   A    
C92   F8    S    
C85   O13   A    
C39   C84   S    
C90   F6    S    
C86   O42   A    
C11   F11   S    
C89   F5    S    
C5    C6    S    
C30   C74   S    
C23   F15   S    
C53   H5    S    
C87   O15   A    
C101  O54   S    
Cr3   O47   S    
C65   C105  S    
C84   O12   A    
C95   C99   S    
O72   H30   S    
Cr12  O36   S    
C109  O70   S    
C5    H9    S    
C92   C96   S    
C9    C13   A    
C3    C18   S    
C102  O56   S    
C110  O71   D    
C87   O43   A    
C104  O60   S    
C50   C102  S    
Cr3   O3    S    
Cr6   O50   S    
C45   O29   A    
C61   F1    S    
Cr8   O20   S    
C11   C15   A    
Cr10  O10   S    
Cr5   O25   S    
C35   C36   A    
C95   H3    S    
C103  O58   S    
C48   O36   A    
C85   O41   A    
Cr12  O20   S    
C23   C27   A    
C91   C100  S    
C104  O59   D    
C18   C22   A    
C46   O34   A    
Cr8   O28   S    
Cr2   O22   S    
C90   C97   S    
C67   C71   A    
C26   H18   S    
Cr3   O19   S    
Cr10  O14   S    
Cr7   O19   S    
C81   O9    A    
C46   C98   S    
C11   C31   A    
O60   H24   S    
C2    O22   A    
C49   C69   A    
C109  O69   D    
C12   C32   A    
C3    O27   A    
C56   H8    S    
C57   C80   S    
C76   O40   A    
Cr9   O33   S    
C8    C95   S    
C51   C71   A    
Cr12  O40   S    
C86   O14   A    
C59   C78   S    
Cr3   O43   S    
C72   C88   S    
Cr9   O37   S    
C90   C94   S    
C105  O62   S    
C25   C29   A    
C48   C100  S    
C63   C67   A    
C60   C77   S    
C112  O76   S    
C62   C66   A    
C27   C31   A    
O62   H25   S    
C12   C16   A    
C28   C32   A    
Cr1   O45   S    
O76   H32   S    
C51   C103  S    
C110  O72   S    
O68   H28   S    
Cr8   O8    S    
C53   C57   A    
C19   C23   A    
C8    H12   S    
C39   C43   A    
C51   C55   A    
C24   F16   S    
C108  O67   D    
C81   O5    A    
Cr5   O5    S    
C77   O45   A    
Cr12  O16   S    
Cr7   O51   S    
C68   C72   A    
C28   H20   S    
Cr4   O48   S    
Cr9   O17   S    
C43   C44   A    
Cr2   O2    S    
C52   C72   A    
C33   F17   S    
Cr11  O15   S    
C9    F9    S    
C47   O35   A    
C10   C30   A    
C93   C97   S    
C77   O49   A    
O64   H26   S    
C22   F14   S    
C107  O65   D    
C16   C20   A    
C6    C93   S    
C21   F13   S    
C3    O23   A    
C106  O63   D    
C88   O16   A    
C49   C101  S    
C93   H1    S    
C64   F4    S    
C66   C106  S    
C1    O21   A    
C16   H16   S    
C22   C26   A    
C63   F3    S    
C58   C79   S    
Cr2   O18   S    
C61   C65   A    
C71   C87   S    
C4    C17   S    
Cr10  O38   S    
Cr3   O23   S    
C4    O24   A    
Cr6   O6    S    
C5    C97   S    
C26   C30   A    
Cr1   O1    S    
C111  O74   S    
C38   C81   S    
C10   C14   A    
Cr2   O46   S    
Cr5   O29   S    
C37   C82   S    
Cr4   O24   S    
C35   F19   S    
C6    H10   S    
Cr1   O21   S    
C91   F7    S    
C34   F18   S    
C54   H6    S    
C6    C98   S    
C31   C75   S    
C91   C92   S    
C69   C85   S    
C54   C58   A    
C45   C97   S    
O56   H22   S    
C41   C109  S    
C21   C25   A    
Cr7   O31   S    
C1    C20   S    
Cr4   O4    S    
Cr9   O9    S    
C2    C19   S    
C78   O46   A    
C36   C39   A    
Cr9   O13   S    
C24   C28   A    
C80   O52   A    
C73   O1    A    
Cr10  O18   S    
Cr11  O19   S    
C32   C76   S    
Cr7   O27   S    
O74   H31   S    
C67   C107  S    
C57   C61   A    
Cr2   O42   S    
C48   O32   A    
Cr8   O52   S    
Cr11  O11   S    
C36   F20   S    
Cr5   O17   S    
C66   C70   A    
C42   C110  S    
C59   C63   A    
C33   C38   A    
C14   H14   S    
C13   C17   A    
C89   C98   S    
C60   C64   A    
Cr5   O49   S    
Cr12  O12   S    
C1    O25   A    
C68   C108  S    
C8    C100  S    
C107  O66   S    
C47   O31   A    
O54   H21   S    
C80   O48   A    
Cr6   O26   S    
C75   O39   A    
C9    C29   A    
Cr10  O34   S    
Cr4   O20   S    
C101  O53   D    
C4    O28   A    
C75   O3    A    
C45   O33   A    
C43   C111  S    
C65   C69   A    
C74   O2    A    
Cr1   O17   S    
C106  O64   S    
C33   C34   A    
C35   C40   A    
Cr11  O39   S    
Cr6   O30   S    
O66   H27   S    
C89   C93   S    
C102  O55   D    
C108  O68   S    
C17   C21   A    
C50   C70   A    
C74   O38   A    
C12   F12   S    
Cr11  O35   S    
C91   C95   S    
O58   H23   S    
C76   O4    A    
C38   C42   A    
C56   C60   A    
C88   O44   A    
C40   C44   A    
C79   O47   A    
C29   C73   S    
C2    O26   A    
C84   O8    A    
C82   O6    A    
C103  O57   D    
C46   O30   A    
C44   C112  S    
C10   F10   S    
C94   C98   S    
C96   H4    S    
C15   H15   S    
C52   C104  S    
C78   O50   A    
C89   C90   S    
C111  O73   D    
C73   O37   A    
C13   H13   S    
C20   C24   A    
Cr7   O7    S    
C62   F2    S    
C52   C56   A    
C92   C99   S    
C7    H11   S    
C70   C86   S    
