data_mof_unit_57005.cif
_audit_creation_date              2012-12-11T16:12:47-0500
_audit_creation_method            fapswitch 2.2
_symmetry_space_group_name_H-M    P1
_symmetry_Int_Tables_number       1
_space_group_crystal_system       triclinic
_cell_length_a                    7.003191
_cell_length_b                    21.182917
_cell_length_c                    23.751178
_cell_angle_alpha                 90.000163
_cell_angle_beta                  89.999482
_cell_angle_gamma                 90.000359
_cell_volume                      3523.44007883

loop_
_atom_site_label
_atom_site_type_symbol
_atom_type_description
_atom_site_fract_x
_atom_site_fract_y
_atom_site_fract_z
_atom_type_partial_charge
O1    O     O_R   0.615270 0.806540 0.192260 -0.538274
O2    O     O_R   0.384730 0.193460 0.807740 -0.538275
O3    O     O_R   0.384730 0.193460 0.692260 -0.538284
O4    O     O_R   0.615270 0.806540 0.307740 -0.538282
O5    O     O_R   0.115270 0.693460 0.307740 -0.538284
O6    O     O_R   0.884730 0.306540 0.692260 -0.538279
O7    O     O_R   0.884730 0.306540 0.807740 -0.538285
O8    O     O_R   0.115270 0.693460 0.192260 -0.538287
O9    O     O_R   0.285500 0.813970 0.307340 -0.531064
O10   O     O_R   0.714500 0.186030 0.692660 -0.531066
O11   O     O_R   0.714500 0.186030 0.807340 -0.531060
O12   O     O_R   0.285500 0.813970 0.192660 -0.531060
O13   O     O_R   0.785500 0.686030 0.192660 -0.531067
O14   O     O_R   0.214500 0.313970 0.807340 -0.531067
O15   O     O_R   0.214500 0.313970 0.692660 -0.531064
O16   O     O_R   0.785500 0.686030 0.307340 -0.531065
C1    C     C_R   0.454369 0.829099 0.326501 0.720156
C2    C     C_R   0.545631 0.170901 0.673499 0.720156
C3    C     C_R   0.545629 0.170902 0.826501 0.720144
C4    C     C_R   0.454371 0.829098 0.173499 0.720150
C5    C     C_R   0.954369 0.670901 0.173499 0.720157
C6    C     C_R   0.045631 0.329099 0.826501 0.720154
C7    C     C_R   0.045631 0.329099 0.673499 0.720143
C8    C     C_R   0.954369 0.670901 0.326501 0.720148
O17   O     O_3   0.448760 0.710460 0.250000 -0.369692
O18   O     O_3   0.551240 0.289540 0.750000 -0.369687
O19   O     O_3   0.948760 0.789540 0.250000 -0.369678
O20   O     O_3   0.051240 0.210460 0.750000 -0.369682
V1    V     V_3+5 0.173900 0.757330 0.250000 1.571609
V2    V     V_3+5 0.826100 0.242670 0.750000 1.571618
V3    V     V_3+5 0.673900 0.742670 0.250000 1.571604
V4    V     V_3+5 0.326100 0.257330 0.750000 1.571614
C9    C     C_3   0.097111 0.525979 0.542784 0.307876
C10   C     C_3   0.902907 0.474019 0.457214 0.307780
C11   C     C_3   0.902918 0.474014 0.042787 0.307928
C12   C     C_3   0.097090 0.525985 0.957214 0.307950
C13   C     C_3   0.597124 0.974029 0.957216 0.307672
C14   C     C_3   0.402883 0.025972 0.042786 0.307683
C15   C     C_3   0.402913 0.025985 0.457215 0.307920
C16   C     C_3   0.597085 0.974014 0.542786 0.307929
C17   C     C_3   0.910253 0.552450 0.517016 0.340715
C18   C     C_3   0.089760 0.447547 0.482981 0.340657
C19   C     C_3   0.089779 0.447551 0.017014 0.340659
C20   C     C_3   0.910228 0.552447 0.982986 0.340667
C21   C     C_3   0.410276 0.947547 0.982978 0.340732
C22   C     C_3   0.589731 0.052456 0.017024 0.340744
C23   C     C_3   0.589775 0.052449 0.482986 0.340677
C24   C     C_3   0.410223 0.947550 0.517014 0.340670
C25   C     C_1   0.964921 0.625068 0.371694 -0.085363
C26   C     C_1   0.035079 0.374932 0.628305 -0.085349
C27   C     C_1   0.035083 0.374934 0.871693 -0.085375
C28   C     C_1   0.964918 0.625066 0.128307 -0.085378
C29   C     C_1   0.464928 0.874929 0.128304 -0.085335
C30   C     C_1   0.535073 0.125071 0.871696 -0.085337
C31   C     C_1   0.535081 0.125067 0.628307 -0.085372
C32   C     C_1   0.464919 0.874933 0.371693 -0.085367
C33   C     C_3   0.174726 0.514739 0.482848 0.246179
C34   C     C_3   0.825292 0.485257 0.517149 0.246154
C35   C     C_3   0.825290 0.485252 0.982853 0.246205
C36   C     C_3   0.174718 0.514747 0.017149 0.246214
C37   C     C_3   0.674716 0.985266 0.017154 0.246064
C38   C     C_3   0.325292 0.014736 0.982848 0.246057
C39   C     C_3   0.325283 0.014746 0.517149 0.246208
C40   C     C_3   0.674714 0.985254 0.482851 0.246199
C41   C     C_3   0.989120 0.541334 0.456868 -0.365893
C42   C     C_3   0.010895 0.458664 0.543129 -0.365873
C43   C     C_3   0.010901 0.458667 0.956869 -0.365972
C44   C     C_3   0.989107 0.541332 0.043133 -0.365976
C45   C     C_3   0.489119 0.958661 0.043128 -0.365744
C46   C     C_3   0.510888 0.041341 0.956874 -0.365744
C47   C     C_3   0.510895 0.041333 0.543132 -0.365969
C48   C     C_3   0.489103 0.958667 0.456868 -0.365961
C49   C     C_1   0.975925 0.587142 0.409856 0.240206
C50   C     C_1   0.024079 0.412856 0.590143 0.240296
C51   C     C_1   0.024088 0.412859 0.909855 0.240187
C52   C     C_1   0.975915 0.587140 0.090146 0.240155
C53   C     C_1   0.475933 0.912852 0.090140 0.240351
C54   C     C_1   0.524070 0.087149 0.909860 0.240356
C55   C     C_1   0.524084 0.087141 0.590145 0.240177
C56   C     C_1   0.475915 0.912859 0.409855 0.240189
S1    S     S_3+6 0.793928 0.622970 0.539597 0.174992
O21   O     O_2   0.931031 0.677317 0.535130 -0.280146
O22   O     O_2   0.623988 0.635679 0.502822 -0.277201
O23   O     O_3   0.723258 0.614566 0.606793 -0.409328
H1    H     H_    0.695337 0.657967 0.619940 0.384684
S2    S     S_3+6 0.206036 0.377021 0.460397 0.174931
O24   O     O_2   0.375898 0.364274 0.497194 -0.277273
O25   O     O_2   0.068861 0.322691 0.464827 -0.280177
O26   O     O_3   0.276828 0.385442 0.393213 -0.409298
H2    H     H_    0.304684 0.342042 0.380054 0.384708
S3    S     S_3+6 0.206116 0.377034 0.039593 0.174986
O27   O     O_2   0.069017 0.322686 0.035134 -0.280170
O28   O     O_2   0.376045 0.364324 0.002812 -0.277194
O29   O     O_3   0.276811 0.385440 0.106787 -0.409306
H3    H     H_    0.304780 0.342041 0.119929 0.384711
S4    S     S_3+6 0.793873 0.622962 0.960408 0.175014
O30   O     O_2   0.623929 0.635663 0.997188 -0.277149
O31   O     O_2   0.930951 0.677314 0.964873 -0.280172
O32   O     O_3   0.723192 0.614559 0.893213 -0.409315
H4    H     H_    0.695342 0.657963 0.880061 0.384700
S5    S     S_3+6 0.294035 0.877017 0.960386 0.174908
O33   O     O_2   0.431238 0.822694 0.964806 -0.280175
O34   O     O_2   0.124184 0.864252 0.997184 -0.277312
O35   O     O_3   0.223230 0.885442 0.893204 -0.409307
H5    H     H_    0.195503 0.842038 0.880031 0.384684
S6    S     S_3+6 0.705968 0.122988 0.039614 0.174909
O36   O     O_2   0.875833 0.135745 0.002821 -0.277365
O37   O     O_2   0.568773 0.177312 0.035184 -0.280141
O38   O     O_3   0.776740 0.114568 0.106799 -0.409271
H6    H     H_    0.804886 0.157959 0.119929 0.384719
S7    S     S_3+6 0.706121 0.122966 0.460407 0.174998
O39   O     O_2   0.569028 0.177315 0.464871 -0.280165
O40   O     O_2   0.876053 0.135672 0.497187 -0.277185
O41   O     O_3   0.776809 0.114561 0.393213 -0.409302
H7    H     H_    0.804803 0.157958 0.380073 0.384709
S8    S     S_3+6 0.293881 0.877033 0.539594 0.174994
O42   O     O_2   0.123937 0.864328 0.502818 -0.277182
O43   O     O_2   0.430971 0.822684 0.535125 -0.280144
O44   O     O_3   0.223213 0.885437 0.606790 -0.409352
H8    H     H_    0.195367 0.842034 0.619944 0.384674
S9    S     S_3+6 0.222744 0.560710 0.600300 0.176116
O45   O     O_2   0.091522 0.564746 0.650235 -0.277764
O46   O     O_2   0.392320 0.520761 0.615296 -0.247347
O47   O     O_3   0.295497 0.633497 0.582078 -0.417163
H9    H     H_    0.320852 0.655372 0.618163 0.387034
S10   S     S_3+6 0.777254 0.439291 0.399701 0.176072
O48   O     O_2   0.607732 0.479259 0.384689 -0.247371
O49   O     O_2   0.908494 0.435224 0.349771 -0.277783
O50   O     O_3   0.704399 0.366519 0.417935 -0.417186
H10   H     H_    0.679276 0.344611 0.381852 0.387056
S11   S     S_3+6 0.777290 0.439278 0.100301 0.176109
O51   O     O_2   0.908512 0.435240 0.150235 -0.277785
O52   O     O_2   0.607710 0.479225 0.115299 -0.247369
O53   O     O_3   0.704539 0.366492 0.082074 -0.417173
H11   H     H_    0.679342 0.344597 0.118159 0.387030
S12   S     S_3+6 0.222713 0.560723 0.899700 0.176128
O54   O     O_2   0.392295 0.520777 0.884702 -0.247357
O55   O     O_2   0.091489 0.564760 0.849766 -0.277796
O56   O     O_3   0.295457 0.633509 0.917926 -0.417144
H12   H     H_    0.320729 0.655397 0.881842 0.387035
S13   S     S_3+6 0.722797 0.939308 0.899702 0.176063
O57   O     O_2   0.591557 0.935235 0.849773 -0.277772
O58   O     O_2   0.892301 0.979285 0.884689 -0.247336
O59   O     O_3   0.795682 0.866539 0.917934 -0.417180
H13   H     H_    0.820911 0.844645 0.881850 0.387081
S14   S     S_3+6 0.277209 0.060694 0.100299 0.176056
O60   O     O_2   0.107690 0.020723 0.115308 -0.247329
O61   O     O_2   0.408444 0.064758 0.150230 -0.277736
O62   O     O_3   0.204352 0.133466 0.082067 -0.417250
H14   H     H_    0.179314 0.155383 0.118151 0.387025
S15   S     S_3+6 0.277289 0.060720 0.399701 0.176120
O63   O     O_2   0.408512 0.064758 0.349766 -0.277779
O64   O     O_2   0.107707 0.020773 0.384701 -0.247354
O65   O     O_3   0.204541 0.133506 0.417926 -0.417173
H15   H     H_    0.179356 0.155401 0.381840 0.387022
S16   S     S_3+6 0.722709 0.939279 0.600300 0.176107
O66   O     O_2   0.892303 0.979223 0.615294 -0.247387
O67   O     O_2   0.591494 0.935246 0.650236 -0.277769
O68   O     O_3   0.795436 0.866490 0.582078 -0.417149
H16   H     H_    0.820884 0.844629 0.618163 0.387045
O69   O     O_3   0.640639 0.470605 0.534908 -0.507001
H17   H     H_    0.644516 0.425450 0.545608 0.357779
O70   O     O_3   0.359384 0.529383 0.465085 -0.506976
H18   H     H_    0.355453 0.574511 0.454295 0.357712
O71   O     O_3   0.359375 0.529395 0.034910 -0.506939
H19   H     H_    0.355396 0.574508 0.045745 0.357675
O72   O     O_3   0.640634 0.470602 0.965094 -0.506948
H20   H     H_    0.644590 0.425478 0.954291 0.357700
O73   O     O_3   0.140637 0.029383 0.965086 -0.507047
H21   H     H_    0.144456 0.074558 0.954453 0.357835
O74   O     O_3   0.859370 0.970618 0.034916 -0.507051
H22   H     H_    0.855547 0.925445 0.045554 0.357830
O75   O     O_3   0.859370 0.970604 0.465092 -0.506952
H23   H     H_    0.855412 0.925481 0.454287 0.357698
O76   O     O_3   0.140628 0.029396 0.534908 -0.506950
H24   H     H_    0.144594 0.074516 0.545721 0.357690

loop_
_geom_bond_atom_site_label_1
_geom_bond_atom_site_label_2
_ccdc_geom_bond_type
O17   V3    S    
O74   H22   S    
O18   V4    S    
O71   H19   S    
C16   C47   S    
O12   V1    S    
O19   V1    S    
O73   H21   S    
C45   C53   S    
S7    O39   D    
C10   C18   S    
S11   O53   S    
C47   C55   S    
S1    O21   D    
C12   C43   S    
O15   V4    S    
S11   O52   D    
O75   H23   S    
O16   V3    S    
O11   C3    A    
S10   O48   D    
C13   S13   S    
O8    V1    S    
C11   C35   S    
S16   O66   D    
C27   C51   T    
C17   C34   S    
S14   O60   D    
S13   O58   D    
O68   H16   S    
S2    O25   D    
C6    C27   S    
C46   C54   S    
S6    O36   D    
C20   C35   S    
C42   C50   S    
S4    O32   S    
C15   S15   S    
C21   C38   S    
O1    V3    S    
C41   C49   S    
S8    O42   D    
C10   C41   S    
O3    C2    A    
O2    V4    S    
S15   O65   S    
C14   S14   S    
S9    O47   S    
C35   C43   S    
S13   O57   D    
C34   C42   S    
O70   H18   S    
O11   V2    S    
S4    O31   D    
C9    C33   S    
C15   C48   S    
C37   O74   S    
S9    O46   D    
C11   C19   S    
S14   O61   D    
O9    V1    S    
C24   S8    S    
O15   C7    A    
C14   C45   S    
O16   C8    A    
O7    V2    S    
C13   C46   S    
C9    S9    S    
C38   C46   S    
O3    V4    S    
C24   C48   S    
S12   O56   S    
C12   S12   S    
C18   C33   S    
O35   H5    S    
S1    O22   D    
C9    C42   S    
O69   H17   S    
O5    V1    S    
O17   V1    S    
O56   H12   S    
C22   C46   S    
C22   C37   S    
O19   V3    S    
S5    O33   D    
O20   V4    S    
C18   C42   S    
O23   H1    S    
S12   O55   D    
S13   O59   S    
O14   V4    S    
O72   H20   S    
S2    O24   D    
S12   O54   D    
C7    C26   S    
C17   C41   S    
S10   O50   S    
C28   C52   T    
C21   C45   S    
C19   S3    S    
C24   C39   S    
C29   C53   T    
C19   C43   S    
C20   S4    S    
S3    O28   D    
S14   O62   S    
C31   C55   T    
O10   V2    S    
O76   H24   S    
C33   O70   S    
C10   S10   S    
C17   S1    S    
S4    O30   D    
O12   C4    A    
O8    C5    A    
O65   H15   S    
O13   C5    A    
S7    O40   D    
C1    C32   S    
C23   C47   S    
S9    O45   D    
C21   S5    S    
C19   C36   S    
C18   S2    S    
O4    C1    A    
C2    C31   S    
C3    C30   S    
O9    C1    A    
O6    V2    S    
C39   C47   S    
O18   V2    S    
S5    O35   S    
C25   C49   T    
C12   C20   S    
C43   C51   S    
C13   C21   S    
S11   O51   D    
C11   S11   S    
S3    O27   D    
S1    O23   S    
C35   O72   S    
C15   C23   S    
O50   H10   S    
C37   C45   S    
C8    C25   S    
C16   C24   S    
C38   O73   S    
S8    O44   S    
O1    C4    A    
S10   O49   D    
O2    C3    A    
O13   V3    S    
S16   O68   S    
C33   C41   S    
C4    C29   S    
C12   C36   S    
S2    O26   S    
C16   C40   S    
C13   C37   S    
O44   H8    S    
C23   C40   S    
C39   O76   S    
O53   H11   S    
C44   C52   S    
O7    C6    A    
C15   C39   S    
C36   O71   S    
C32   C56   T    
O32   H4    S    
O59   H13   S    
C9    C17   S    
O14   C6    A    
C26   C50   T    
C40   O75   S    
O20   V2    S    
C48   C56   S    
O62   H14   S    
S3    O29   S    
O5    C8    A    
S6    O37   D    
C11   C44   S    
O10   C2    A    
C23   S7    S    
O6    C7    A    
C22   S6    S    
S16   O67   D    
S8    O43   D    
S7    O41   S    
O41   H7    S    
S15   O64   D    
O29   H3    S    
C14   C22   S    
O4    V3    S    
C20   C44   S    
C36   C44   S    
S5    O34   D    
C10   C34   S    
C16   S16   S    
C30   C54   T    
O26   H2    S    
O38   H6    S    
C34   O69   S    
S15   O63   D    
C5    C28   S    
C40   C48   S    
O47   H9    S    
C14   C38   S    
S6    O38   S    
