data_mof_unit_7193.cif
_audit_creation_date              2012-10-26T17:13:11-0400
_audit_creation_method            fapswitch 2.2
_symmetry_space_group_name_H-M    P1
_symmetry_Int_Tables_number       1
_space_group_crystal_system       triclinic
_cell_length_a                    16.841331
_cell_length_b                    16.851217
_cell_length_c                    16.809145
_cell_angle_alpha                 67.158718
_cell_angle_beta                  67.103906
_cell_angle_gamma                 67.370498
_cell_volume                      3893.40454452

loop_
_atom_site_label
_atom_site_type_symbol
_atom_type_description
_atom_site_fract_x
_atom_site_fract_y
_atom_site_fract_z
_atom_type_partial_charge
C1    C     C_R   0.322238 0.954314 0.453785 -0.115102
C2    C     C_R   0.692646 0.984517 0.572953 -0.109791
C3    C     C_R   0.032503 0.428596 0.297117 -0.111890
C4    C     C_R   0.051575 0.544437 0.675708 -0.096350
C5    C     C_R   0.458065 0.326004 0.942864 -0.113021
C6    C     C_R   0.571790 0.701377 0.970442 -0.102739
C7    C     C_R   0.549195 0.033267 0.680324 -0.109061
C8    C     C_R   0.457940 0.941944 0.325944 -0.103922
C9    C     C_R   0.701827 0.571591 0.970016 -0.113930
C10   C     C_R   0.325819 0.457856 0.943724 -0.105180
C11   C     C_R   0.051729 0.676263 0.543540 -0.097212
C12   C     C_R   0.031516 0.297899 0.428724 -0.105986
C13   C     C_R   0.460855 0.964152 0.460849 0.100147
C14   C     C_R   0.552782 0.988723 0.555818 0.104202
C15   C     C_R   0.035852 0.437979 0.437402 0.102755
C16   C     C_R   0.042873 0.537077 0.536286 0.103047
C17   C     C_R   0.467073 0.466879 0.946603 0.100366
C18   C     C_R   0.565619 0.565287 0.955214 0.098641
C19   C     C_R   0.029817 0.827775 0.564112 0.845654
C20   C     C_R   0.996139 0.164278 0.427481 0.854330
C21   C     C_R   0.831414 0.568861 0.014969 0.859268
C22   C     C_R   0.172522 0.436140 0.969655 0.866146
C23   C     C_R   0.564121 0.029398 0.827797 0.865765
C24   C     C_R   0.436702 0.968137 0.172504 0.827452
C25   C     C_R   0.435983 0.172498 0.970011 0.853757
C26   C     C_R   0.568837 0.831190 0.015371 0.864007
C27   C     C_R   0.995899 0.427705 0.164228 0.837469
C28   C     C_R   0.030146 0.564144 0.827621 0.825790
C29   C     C_R   0.172322 0.969170 0.436100 0.869352
C30   C     C_R   0.830419 0.017132 0.568936 0.854977
C31   C     C_R   0.413316 0.954668 0.412717 -0.083769
C32   C     C_R   0.598183 0.002981 0.602520 -0.080203
C33   C     C_R   0.030899 0.388803 0.388402 -0.073217
C34   C     C_R   0.046683 0.586673 0.585912 -0.088493
C35   C     C_R   0.416356 0.416268 0.946120 -0.082138
C36   C     C_R   0.612121 0.611770 0.967893 -0.061838
C37   C     C_R   0.272996 0.948623 0.404054 -0.148442
C38   C     C_R   0.734825 0.017457 0.608888 -0.216372
C39   C     C_R   0.019227 0.381490 0.250917 -0.195832
C40   C     C_R   0.050773 0.596095 0.726659 -0.165525
C41   C     C_R   0.404810 0.273726 0.948487 -0.160951
C42   C     C_R   0.609441 0.738830 0.006445 -0.208837
C43   C     C_R   0.597070 0.043457 0.728061 -0.149448
C44   C     C_R   0.405981 0.944478 0.273909 -0.145483
C45   C     C_R   0.739169 0.609204 0.006191 -0.198167
C46   C     C_R   0.273711 0.404818 0.948508 -0.162406
C47   C     C_R   0.050486 0.727176 0.595558 -0.158278
C48   C     C_R   0.018989 0.251348 0.381277 -0.182696
C49   C     C_R   0.454396 0.052941 0.706732 0.737901
C50   C     C_R   0.553581 0.918174 0.299118 0.697456
C51   C     C_R   0.067991 0.707709 0.448534 0.748020
C52   C     C_R   0.055422 0.254567 0.510455 0.684935
C53   C     C_R   0.748516 0.495735 0.935793 0.666040
C54   C     C_R   0.294866 0.552932 0.926172 0.736618
C55   C     C_R   0.286261 0.953758 0.545836 0.728784
C56   C     C_R   0.739710 0.937092 0.506479 0.667666
C57   C     C_R   0.553330 0.295517 0.923515 0.678710
C58   C     C_R   0.495625 0.747878 0.936877 0.675463
C59   C     C_R   0.058034 0.509439 0.252979 0.680356
C60   C     C_R   0.066886 0.449898 0.707435 0.744711
C61   C     C_R   0.320015 0.931102 0.319451 0.229663
C62   C     C_R   0.682514 0.055430 0.681214 0.294355
C63   C     C_R   0.029164 0.288960 0.288409 0.330399
C64   C     C_R   0.065895 0.681149 0.680383 0.268706
C65   C     C_R   0.319468 0.319375 0.934467 0.300603
C66   C     C_R   0.684882 0.684438 0.037848 0.308281
C67   C     C_R   0.694856 0.931934 0.453769 -0.243658
C68   C     C_R   0.325533 0.982955 0.584372 -0.281943
C69   C     C_R   0.055759 0.402586 0.662165 -0.278460
C70   C     C_R   0.053964 0.562135 0.302153 -0.264452
C71   C     C_R   0.443740 0.700308 0.935422 -0.251107
C72   C     C_R   0.602580 0.343603 0.928424 -0.271281
C73   C     C_R   0.601519 0.922382 0.349786 -0.270687
C74   C     C_R   0.411008 0.029262 0.666971 -0.281145
C75   C     C_R   0.342854 0.601853 0.931454 -0.269215
C76   C     C_R   0.701046 0.444141 0.933466 -0.251689
C77   C     C_R   0.050557 0.304113 0.563158 -0.271834
C78   C     C_R   0.058288 0.661770 0.400742 -0.263882
C79   C     C_R   0.742087 0.899370 0.377674 0.572902
C80   C     C_R   0.278563 0.004838 0.666125 0.650480
C81   C     C_R   0.063206 0.310203 0.699259 0.650979
C82   C     C_R   0.066746 0.648033 0.258753 0.592598
C83   C     C_R   0.359420 0.744137 0.919319 0.577309
C84   C     C_R   0.696394 0.310368 0.914156 0.593877
C85   C     C_R   0.696181 0.896474 0.325302 0.594403
C86   C     C_R   0.319630 0.032010 0.704854 0.635282
C87   C     C_R   0.308967 0.695427 0.918592 0.637556
C88   C     C_R   0.745068 0.360521 0.915662 0.576283
C89   C     C_R   0.061041 0.261524 0.650050 0.593562
C90   C     C_R   0.068103 0.697659 0.307562 0.653495
C91   C     C_R   0.554170 0.950563 0.428307 -0.081878
C92   C     C_R   0.459640 0.001477 0.588418 -0.083239
C93   C     C_R   0.039931 0.396923 0.526708 -0.072492
C94   C     C_R   0.044540 0.576297 0.445006 -0.079358
C95   C     C_R   0.428265 0.557992 0.944578 -0.082325
C96   C     C_R   0.607815 0.478017 0.946835 -0.077816
C97   C     C_R   0.600657 0.958703 0.478247 -0.076592
C98   C     C_R   0.414928 0.984826 0.543474 -0.082600
C99   C     C_R   0.477974 0.607236 0.947978 -0.073841
C100  C     C_R   0.558547 0.428426 0.943153 -0.076344
C101  C     C_R   0.043120 0.446378 0.576169 -0.079840
C102  C     C_R   0.041554 0.526642 0.395575 -0.073568
Cu1   Cu    Cu3+1 0.995180 0.995180 0.424630 1.286075
Cu2   Cu    Cu3+1 0.004820 0.004820 0.575370 1.313531
Cu3   Cu    Cu3+1 0.995180 0.424630 0.995180 1.306541
Cu4   Cu    Cu3+1 0.004820 0.575370 0.004820 1.287804
Cu5   Cu    Cu3+1 0.424630 0.995180 0.995180 1.263505
Cu6   Cu    Cu3+1 0.575370 0.004820 0.004820 1.251859
O1    O     O_R   0.124540 0.978640 0.385460 -0.504831
O2    O     O_R   0.875460 0.021360 0.614540 -0.537459
O3    O     O_R   0.978640 0.385460 0.124540 -0.535395
O4    O     O_R   0.021360 0.614540 0.875460 -0.545871
O5    O     O_R   0.385460 0.124540 0.978640 -0.526352
O6    O     O_R   0.614540 0.875460 0.021360 -0.522925
O7    O     O_R   0.614540 0.021360 0.875460 -0.539025
O8    O     O_R   0.385460 0.978640 0.124540 -0.598713
O9    O     O_R   0.875460 0.614540 0.021360 -0.540655
O10   O     O_R   0.124540 0.385460 0.978640 -0.500878
O11   O     O_R   0.021360 0.875460 0.614540 -0.542439
O12   O     O_R   0.978640 0.124540 0.385460 -0.539794
O13   O     O_R   0.013780 0.867370 0.487190 -0.489429
O14   O     O_R   0.986220 0.132630 0.512810 -0.515416
O15   O     O_R   0.867370 0.487190 0.013780 -0.536734
O16   O     O_R   0.132630 0.512810 0.986220 -0.495318
O17   O     O_R   0.487190 0.013780 0.867370 -0.484209
O18   O     O_R   0.512810 0.986220 0.132630 -0.535236
O19   O     O_R   0.512810 0.132630 0.986220 -0.537643
O20   O     O_R   0.487190 0.867370 0.013780 -0.517605
O21   O     O_R   0.986220 0.512810 0.132630 -0.530067
O22   O     O_R   0.013780 0.487190 0.867370 -0.486557
O23   O     O_R   0.132630 0.986220 0.512810 -0.493830
O24   O     O_R   0.867370 0.013780 0.487190 -0.540046
S1    S     S_3+6 0.290653 0.856660 0.291270 0.111022
O25   O     O_2   0.369190 0.810462 0.227318 -0.253310
O26   O     O_2   0.264160 0.786166 0.376543 -0.184807
O27   O     O_3   0.204605 0.909980 0.245421 -0.386189
H1    H     H_    0.228992 0.948631 0.185646 0.357738
S2    S     S_3+6 0.707523 0.141358 0.695984 0.086004
O28   O     O_2   0.757519 0.102370 0.765699 -0.145304
O29   O     O_2   0.762809 0.189206 0.608789 -0.314610
O30   O     O_3   0.610234 0.215840 0.729758 -0.475077
H2    H     H_    0.624788 0.273696 0.707908 0.393694
S3    S     S_3+6 0.090605 0.217538 0.216501 0.039633
O31   O     O_2   0.027721 0.189522 0.195979 -0.210019
O32   O     O_2   0.147091 0.264806 0.130494 -0.322728
O33   O     O_3   0.160558 0.126862 0.266199 -0.568101
H3    H     H_    0.202098 0.098357 0.217914 0.365575
S4    S     S_3+6 0.148250 0.704333 0.701709 0.125225
O34   O     O_2   0.105795 0.759203 0.767469 -0.116207
O35   O     O_2   0.210013 0.616881 0.738959 -0.241713
O36   O     O_3   0.208443 0.759691 0.604278 -0.486099
H4    H     H_    0.271075 0.735722 0.607785 0.393568
S5    S     S_3+6 0.298155 0.296898 0.851692 0.129442
O37   O     O_2   0.236430 0.237579 0.894090 -0.100042
O38   O     O_2   0.256736 0.384196 0.792438 -0.250544
O39   O     O_3   0.396356 0.247217 0.788281 -0.472874
H5    H     H_    0.393985 0.276820 0.725213 0.392769
S6    S     S_3+6 0.699005 0.698285 0.131248 0.091147
O40   O     O_2   0.754798 0.762282 0.097862 -0.173698
O41   O     O_2   0.608773 0.734574 0.190668 -0.212890
O42   O     O_3   0.749762 0.599329 0.192776 -0.544266
H6    H     H_    0.763161 0.614393 0.236751 0.386633
F1    F     F_    0.271149 0.055356 0.782463 -0.465530
F2    F     F_    0.745264 0.867757 0.250759 -0.516373
F3    F     F_    0.078618 0.781255 0.263014 -0.486849
F4    F     F_    0.067163 0.172898 0.688672 -0.486507
F5    F     F_    0.835004 0.325345 0.902716 -0.525720
F6    F     F_    0.226336 0.740507 0.906237 -0.477533
F7    F     F_    0.191712 0.003348 0.706923 -0.456208
F8    F     F_    0.833157 0.873484 0.351249 -0.541115
F9    F     F_    0.741713 0.228570 0.899844 -0.510423
F10   F     F_    0.323858 0.833843 0.907458 -0.518478
F11   F     F_    0.076346 0.685196 0.169066 -0.514154
F12   F     F_    0.071928 0.266434 0.783708 -0.468242
F13   F     F_    0.402387 0.104275 0.763380 -0.556950
F14   F     F_    0.600864 0.878157 0.232123 -0.543705
F15   F     F_    0.111096 0.771953 0.399010 -0.537349
F16   F     F_    0.101764 0.166478 0.529520 -0.608617
F17   F     F_    0.837231 0.480127 0.891122 -0.615609
F18   F     F_    0.227623 0.601312 0.887426 -0.543757
F19   F     F_    0.226897 0.906648 0.604486 -0.554895
F20   F     F_    0.826164 0.887072 0.499656 -0.622960
F21   F     F_    0.600880 0.228533 0.883963 -0.559513
F22   F     F_    0.480093 0.836374 0.891734 -0.622112
F23   F     F_    0.104345 0.527852 0.164315 -0.604907
F24   F     F_    0.110641 0.400148 0.770913 -0.544349

loop_
_geom_bond_atom_site_label_1
_geom_bond_atom_site_label_2
_ccdc_geom_bond_type
C68   C80   A    
S3    O33   S    
C83   C87   A    
C9    C45   A    
C58   F22   S    
Cu4   O21   S    
C18   C96   A    
C6    C58   A    
C11   C47   A    
Cu1   O12   S    
C65   S5    S    
S4    O36   S    
C20   O12   A    
C12   C48   A    
C84   F9    S    
O42   H6    S    
C75   C95   A    
Cu4   O4    S    
C78   C90   A    
C77   C89   A    
C30   O2    A    
Cu6   O7    S    
C50   F14   S    
O39   H5    S    
C23   O7    A    
S4    O35   D    
Cu5   O20   S    
C19   C47   S    
C58   C71   A    
Cu2   O14   S    
C3    C33   A    
C95   C99   A    
Cu6   O6    S    
S3    O31   D    
S3    O32   D    
C1    C31   A    
C23   C43   S    
Cu3   O15   S    
C2    C32   A    
C29   O23   A    
C74   C92   A    
C13   C98   A    
Cu5   O5    S    
C21   O9    A    
Cu1   Cu2   S    
S6    O42   S    
C16   C34   A    
C71   C83   A    
Cu6   O19   S    
C4    C40   A    
C27   C39   S    
Cu2   O23   S    
C10   C46   A    
C9    C36   A    
C80   C86   A    
Cu5   Cu6   S    
C5    C41   A    
C10   C35   A    
C17   C95   A    
C7    C43   A    
S5    O38   D    
Cu1   O24   S    
C76   C88   A    
C20   O14   A    
C1    C37   A    
C23   O17   A    
Cu2   O11   S    
C81   C89   A    
Cu3   O3    S    
C19   O11   A    
C57   C72   A    
C13   C91   A    
S6    O41   D    
C80   F7    S    
C10   C54   A    
C53   F17   S    
C12   C52   A    
C55   C68   A    
C21   C45   S    
C89   F4    S    
C4    C34   A    
C26   C42   S    
C61   S1    S    
C8    C44   A    
C67   C79   A    
S4    O34   D    
C7    C49   A    
C46   C65   A    
C50   C73   A    
C25   C41   S    
C47   C64   A    
C3    C39   A    
C48   C63   A    
C41   C65   A    
C71   C99   A    
C74   C86   A    
C38   C62   A    
C29   C37   S    
C52   F16   S    
C21   O15   A    
Cu5   O17   S    
C92   C98   A    
C26   O6    A    
C28   C40   S    
C25   O5    A    
S1    O27   S    
C2    C38   A    
C87   F6    S    
C82   F11   S    
O36   H4    S    
C88   F5    S    
C73   C85   A    
C83   F10   S    
C4    C60   A    
C55   F19   S    
C91   C97   A    
C26   O20   A    
C62   S2    S    
S5    O39   S    
C66   S6    S    
C73   C91   A    
C72   C84   A    
S2    O29   D    
C69   C81   A    
C75   C87   A    
C22   C46   S    
C14   C92   A    
C24   O8    A    
C90   F3    S    
S6    O40   D    
C27   O21   A    
Cu3   O10   S    
C53   C76   A    
C9    C53   A    
C18   C99   A    
C93   C101  A    
C52   C77   A    
Cu1   O13   S    
C8    C50   A    
C49   F13   S    
C79   F8    S    
C14   C97   A    
S1    O26   D    
O33   H3    S    
C72   C100  A    
C29   O1    A    
C24   O18   A    
C22   O10   A    
C19   O13   A    
C60   F24   S    
C7    C32   A    
C20   C48   S    
C8    C31   A    
C13   C31   A    
C11   C34   A    
C84   C88   A    
C14   C32   A    
O27   H1    S    
C15   C33   A    
S2    O30   S    
C40   C64   A    
C15   C93   A    
C37   C61   A    
C70   C102  A    
C22   O16   A    
Cu3   O22   S    
C69   C101  A    
C44   C61   A    
C56   C67   A    
C39   C63   A    
Cu3   Cu4   S    
C96   C100  A    
C16   C94   A    
C82   C90   A    
C5    C57   A    
Cu1   O1    S    
C81   F12   S    
C6    C36   A    
C25   O19   A    
C51   C78   A    
Cu4   O9    S    
C2    C56   A    
O30   H2    S    
C76   C96   A    
Cu2   O2    S    
C57   F21   S    
S1    O25   D    
C56   F20   S    
C60   C69   A    
C78   C94   A    
C24   C44   S    
C5    C35   A    
C77   C93   A    
C79   C85   A    
C54   F18   S    
C59   F23   S    
C28   O22   A    
C15   C102  A    
C1    C55   A    
C70   C82   A    
C17   C100  A    
C68   C98   A    
Cu5   O8    S    
C11   C51   A    
S2    O28   D    
C67   C97   A    
C59   C70   A    
C27   O3    A    
C54   C75   A    
C30   O24   A    
C16   C101  A    
C94   C102  A    
C6    C42   A    
Cu4   O16   S    
C45   C66   A    
C42   C66   A    
C85   F2    S    
C63   S3    S    
C49   C74   A    
C86   F1    S    
C17   C35   A    
C30   C38   S    
Cu6   O18   S    
C12   C33   A    
C51   F15   S    
C18   C36   A    
C28   O4    A    
C64   S4    S    
C43   C62   A    
S5    O37   D    
C3    C59   A    
