data_mof_unit_58934.cif
_audit_creation_date              2012-12-10T20:28:45-0500
_audit_creation_method            fapswitch 2.2
_symmetry_space_group_name_H-M    P1
_symmetry_Int_Tables_number       1
_space_group_crystal_system       triclinic
_cell_length_a                    10.665947
_cell_length_b                    10.721906
_cell_length_c                    9.869656
_cell_angle_alpha                 90.822278
_cell_angle_beta                  91.564343
_cell_angle_gamma                 91.830057
_cell_volume                      1127.55972346

loop_
_atom_site_label
_atom_site_type_symbol
_atom_type_description
_atom_site_fract_x
_atom_site_fract_y
_atom_site_fract_z
_atom_type_partial_charge
C1    C     C_R   0.499067 0.260152 0.499208 0.899188
C2    C     C_R   0.417176 0.933228 0.393130 0.017219
C3    C     C_R   0.472961 0.870940 0.503721 -0.174176
C4    C     C_R   0.259640 0.509200 0.499334 0.874059
C5    C     C_R   0.509874 0.939095 0.620013 -0.104232
C6    C     C_3   0.623960 0.930671 0.712431 0.298582
C7    C     C_3   0.641954 0.072510 0.700713 0.406055
C8    C     C_R   0.407117 0.437484 0.067146 0.076013
C9    C     C_R   0.581890 0.576010 0.077439 0.522986
C10   C     C_R   0.585121 0.571595 0.931855 -0.150812
C11   C     C_R   0.405215 0.440485 0.924831 0.159965
C12   C     C_R   0.062154 0.522710 0.624640 0.092466
C13   C     C_3   0.367385 0.305972 0.911881 -0.487619
C14   C     C_3   0.376206 0.300496 0.065831 -0.229942
C15   C     C_R   0.493260 0.739702 0.500689 0.880344
C16   C     C_R   0.738153 0.481462 0.501865 0.879365
C17   C     C_R   0.118666 0.574961 0.745234 -0.137750
C18   C     C_R   0.068157 0.548847 0.870849 -0.141328
C19   C     C_R   0.958902 0.475256 0.876964 -0.179301
C20   C     C_R   0.892522 0.441110 0.757872 -0.132159
C21   C     C_R   0.939856 0.473515 0.630405 0.112427
C22   C     C_3   0.732950 0.132358 0.911959 -0.193649
C23   C     C_R   0.124655 0.511017 0.500210 -0.147249
C24   C     C_1   0.751631 0.113647 0.621615 0.014331
C25   C     C_3   0.777934 0.658248 0.146753 -0.245765
C26   C     C_1   0.682531 0.638208 0.862709 0.361937
C27   C     C_1   0.254969 0.268993 0.125941 0.205890
C28   C     C_1   0.873591 0.374065 0.270625 0.210336
C29   C     C_1   0.352931 0.867625 0.281235 0.200333
C30   C     C_3   0.478451 0.891769 0.889373 -0.177202
C31   C     C_R   0.059928 0.467940 0.382692 -0.246758
C32   C     C_R   0.933739 0.437350 0.386384 -0.011603
C33   C     C_R   0.870831 0.455442 0.507549 -0.179098
C34   C     C_R   0.522532 0.065908 0.615602 -0.006500
C35   C     C_R   0.486935 0.128309 0.499268 -0.126563
C36   C     C_R   0.425016 0.063091 0.391701 -0.234612
H1    H     H_    0.108434 0.453601 0.289092 0.184715
H2    H     H_    0.386304 0.112443 0.306124 0.161529
H3    H     H_    0.800245 0.211059 0.895573 0.151633
H4    H     H_    0.783204 0.043442 0.902056 0.179582
H5    H     H_    0.700631 0.139287 0.017554 0.195785
H6    H     H_    0.807645 0.566236 0.109306 0.119934
H7    H     H_    0.820230 0.673573 0.249800 0.192573
H8    H     H_    0.816492 0.733149 0.082006 0.175777
H9    H     H_    0.476814 0.868598 0.998356 0.191534
H10   H     H_    0.420795 0.818836 0.833269 0.156669
H11   H     H_    0.437361 0.985113 0.877949 0.177583
H12   H     H_    0.699460 0.878011 0.664262 0.077065
H13   H     H_    0.270861 0.293301 0.866953 0.202753
H14   H     H_    0.437916 0.249965 0.861331 0.264412
H15   H     H_    0.454544 0.243962 0.105038 0.172386
H16   H     H_    0.202925 0.633777 0.744117 0.148141
H17   H     H_    0.115690 0.582521 0.963228 0.140872
H18   H     H_    0.923707 0.447669 0.973679 0.143851
H19   H     H_    0.805966 0.387053 0.766077 0.168966
N1    N     N_R   0.499160 0.499140 0.142800 -0.152840
N2    N     N_R   0.499160 0.499180 0.857150 -0.147045
N3    N     N_1   0.837229 0.145614 0.559851 -0.199274
N4    N     N_1   0.762842 0.690658 0.808501 -0.202617
N5    N     N_1   0.159603 0.242301 0.172506 -0.219217
N6    N     N_1   0.824950 0.322148 0.179008 -0.256873
N7    N     N_1   0.301014 0.814926 0.192060 -0.239269
O1    O     O_R   0.500020 0.316790 0.614690 -0.599500
O2    O     O_3   0.646706 0.668124 0.153925 -0.573904
O3    O     O_3   0.604444 0.891741 0.848487 -0.590144
O4    O     O_R   0.500000 0.316760 0.385350 -0.632863
O5    O     O_R   0.316770 0.500020 0.614690 -0.627671
O6    O     O_R   0.316760 0.499980 0.385350 -0.618000
O7    O     O_R   0.500000 0.683240 0.614650 -0.623103
O8    O     O_R   0.499980 0.683210 0.385310 -0.558198
O9    O     O_R   0.683240 0.500020 0.614650 -0.628094
O10   O     O_R   0.683230 0.499980 0.385310 -0.587009
O11   O     O_3   0.627356 0.141016 0.822835 -0.618294
Zn1   Zn    Zn3+2 0.500010 0.500020 0.653130 0.961240
Zn2   Zn    Zn3+2 0.499990 0.499980 0.346870 1.001736

loop_
_geom_bond_atom_site_label_1
_geom_bond_atom_site_label_2
_ccdc_geom_bond_type
C9    O2    S    
C30   H9    S    
C19   C20   A    
C16   O10   A    
C25   H7    S    
C7    O11   S    
O6    Zn2   S    
C12   C23   A    
C6    H12   S    
C2    C29   S    
C18   C19   A    
C27   N5    T    
O10   Zn2   S    
C5    C6    S    
C22   H5    S    
C21   C33   A    
C22   H3    S    
C7    C24   S    
C17   H16   S    
C34   C35   A    
C18   H17   S    
C6    O3    S    
C14   H15   S    
C12   C17   A    
C14   C27   S    
C9    C10   A    
C28   N6    T    
C10   C26   S    
N1    Zn2   S    
C13   C14   S    
C8    N1    A    
C16   O9    A    
C20   H19   S    
C1    O1    A    
C25   H8    S    
C1    O4    A    
C15   O7    A    
C30   H11   S    
C28   C32   S    
C10   N2    A    
C4    O6    A    
C4    C23   S    
C12   C21   A    
C31   H1    S    
C25   O2    S    
C23   C31   A    
N2    Zn1   S    
C16   C33   S    
C4    O5    A    
C31   C32   A    
C22   H4    S    
C5    C34   A    
C17   C18   A    
O7    Zn1   S    
C9    N1    A    
C13   H13   S    
C19   H18   S    
C7    C34   S    
C3    C15   S    
C1    C35   S    
C26   N4    T    
C2    C36   A    
C15   O8    A    
C29   N7    T    
C8    C14   S    
C30   H10   S    
C3    C5    A    
C25   H6    S    
O9    Zn1   S    
C6    C7    S    
O1    Zn1   S    
C32   C33   A    
C36   H2    S    
C2    C3    A    
C11   C13   S    
C8    C11   A    
O4    Zn2   S    
O5    Zn1   S    
C30   O3    S    
C13   H14   S    
C20   C21   A    
C24   N3    T    
O8    Zn2   S    
C35   C36   A    
C22   O11   S    
C11   N2    A    
