data_mof_unit_35850.cif
_audit_creation_date              2012-12-10T16:49:25-0500
_audit_creation_method            fapswitch 2.2
_symmetry_space_group_name_H-M    P1
_symmetry_Int_Tables_number       1
_space_group_crystal_system       triclinic
_cell_length_a                    7.756853
_cell_length_b                    8.599174
_cell_length_c                    12.779904
_cell_angle_alpha                 90.313368
_cell_angle_beta                  87.065121
_cell_angle_gamma                 93.033964
_cell_volume                      850.137275545

loop_
_atom_site_label
_atom_site_type_symbol
_atom_type_description
_atom_site_fract_x
_atom_site_fract_y
_atom_site_fract_z
_atom_type_partial_charge
C1    C     C_R   0.455917 0.205633 0.497395 0.944112
C2    C     C_R   0.643956 0.368457 0.144862 -0.240381
C3    C     C_R   0.523901 0.401558 0.871335 0.330506
C4    C     C_R   0.476099 0.598443 0.128665 0.330506
C5    C     C_R   0.539313 0.433751 0.977499 0.029715
C6    C     C_R   0.460688 0.566251 0.022501 0.029715
C7    C     C_2   0.433322 0.044758 0.513399 0.121093
C8    C     C_2   0.566678 0.955241 0.486600 0.121093
C9    C     C_R   0.544082 0.794367 0.502605 0.944112
C10   C     C_R   0.463886 0.499938 0.699588 0.941650
C11   C     C_R   0.536114 0.500062 0.300412 0.941649
C12   C     C_R   0.560333 0.494063 0.189264 -0.119847
C13   C     C_R   0.439667 0.505938 0.810736 -0.119848
C14   C     C_R   0.365778 0.661535 0.960767 -0.103108
C15   C     C_R   0.634224 0.338467 0.039233 -0.103110
C16   C     C_R   0.356046 0.631545 0.855138 -0.240381
Cl1   Cl    Cl    0.391977 0.768589 0.187172 -0.581070
Cl2   Cl    Cl    0.608022 0.231411 0.812828 -0.581070
Cl3   Cl    Cl    0.245689 0.983947 0.591869 -0.526582
Cl4   Cl    Cl    0.754313 0.016053 0.408131 -0.526581
H1    H     H_    0.708649 0.288592 0.193068 0.209384
H2    H     H_    0.291354 0.711410 0.806931 0.209385
H3    H     H_    0.301990 0.761613 0.992375 0.220347
H4    H     H_    0.698015 0.238392 0.007625 0.220347
H5    H     H_    0.998833 0.615765 0.421958 0.232119
H6    H     H_    0.001167 0.384234 0.578042 0.232119
N1    N     N_2   0.054030 0.541640 0.471970 -0.142635
N2    N     N_2   0.945970 0.458360 0.528030 -0.142636
O1    O     O_R   0.609680 0.261530 0.506880 -0.575539
O2    O     O_R   0.390320 0.738470 0.493120 -0.575539
O3    O     O_R   0.323330 0.288220 0.488910 -0.597145
O4    O     O_R   0.676670 0.711780 0.511090 -0.597145
O5    O     O_R   0.619510 0.488830 0.661140 -0.582855
O6    O     O_R   0.380490 0.511170 0.338860 -0.582855
O7    O     O_R   0.333160 0.515520 0.643180 -0.626598
O8    O     O_R   0.666840 0.484480 0.356820 -0.626599
Zn1   Zn    Zn3+2 0.691200 0.482180 0.511990 1.066836
Zn2   Zn    Zn3+2 0.308800 0.517820 0.488010 1.066836

loop_
_geom_bond_atom_site_label_1
_geom_bond_atom_site_label_2
_ccdc_geom_bond_type
C14   H3    S    
C11   C12   S    
C10   O7    A    
C4    C12   A    
H6    N2    S    
C3    C13   A    
O3    Zn2   S    
C2    C12   A    
C2    H1    S    
C1    O1    A    
C7    C8    D    
C15   H4    S    
O4    Zn1   S    
C2    C15   A    
C8    Cl4   S    
N2    Zn1   S    
C4    Cl1   S    
C9    O2    A    
C11   O8    A    
C10   O5    A    
C7    Cl3   S    
C5    C6    A    
C14   C16   A    
C5    C15   A    
C6    C14   A    
N1    Zn2   S    
C1    O3    A    
O7    Zn2   S    
O2    Zn2   S    
C3    Cl2   S    
C4    C6    A    
C13   C16   A    
O1    Zn1   S    
N1    N2    D    
O8    Zn1   S    
C16   H2    S    
C9    O4    A    
C1    C7    S    
O6    Zn2   S    
C10   C13   S    
C11   O6    A    
O5    Zn1   S    
C8    C9    S    
C3    C5    A    
H5    N1    S    
