data_mof_unit_60624.cif
_audit_creation_date              2012-10-26T20:25:03-0400
_audit_creation_method            fapswitch 2.2
_symmetry_space_group_name_H-M    P1
_symmetry_Int_Tables_number       1
_space_group_crystal_system       triclinic
_cell_length_a                    19.375899
_cell_length_b                    14.656326
_cell_length_c                    15.898649
_cell_angle_alpha                 90.010915
_cell_angle_beta                  89.981251
_cell_angle_gamma                 90.019417
_cell_volume                      4514.88968825

loop_
_atom_site_label
_atom_site_type_symbol
_atom_type_description
_atom_site_fract_x
_atom_site_fract_y
_atom_site_fract_z
_atom_type_partial_charge
C1    C     C_R   0.500089 0.499994 0.339699 0.550867
C2    C     C_3   0.465975 0.411642 0.048665 -0.213937
C3    C     C_3   0.465972 0.411653 0.951183 -0.212725
C4    C     C_3   0.459139 0.583136 0.951233 -0.213907
C5    C     C_1   0.500035 0.500024 0.749764 -0.024644
C6    C     C_3   0.500005 0.500003 0.082575 0.061807
C7    C     C_3   0.500000 0.500023 0.917293 0.062413
C8    C     C_R   0.632974 0.500014 0.499890 0.536385
C9    C     C_3   0.574890 0.505268 0.951162 -0.214308
C10   C     C_3   0.574893 0.505258 0.048642 -0.214627
C11   C     C_1   0.500009 0.500029 0.825243 -0.070152
C12   C     C_R   0.930089 0.500103 0.499875 0.344459
C13   C     C_1   0.500018 0.499992 0.174626 -0.068798
C14   C     C_1   0.500047 0.499986 0.250104 -0.022127
C15   C     C_3   0.500803 0.052623 0.592311 -0.211955
C16   C     C_3   0.493194 0.946527 0.591744 -0.219592
C17   C     C_3   0.553574 0.053254 0.449069 -0.292641
C18   C     C_3   0.558158 0.947323 0.456204 -0.289973
C19   C     C_3   0.492695 0.092094 0.502137 -0.017989
C20   C     C_3   0.493160 0.907932 0.500507 -0.010507
C21   C     C_3   0.428770 0.946873 0.451679 0.187294
C22   C     C_3   0.422985 0.054767 0.464254 0.171983
C23   C     C_R   0.182897 0.582748 0.500886 -0.112299
C24   C     C_1   0.496584 0.804832 0.501174 0.197118
C25   C     C_1   0.496395 0.195167 0.501846 0.176725
C26   C     C_R   0.500076 0.500008 0.660170 0.548988
C27   C     C_R   0.367173 0.499994 0.499908 0.546965
C28   C     C_R   0.745431 0.582721 0.500028 -0.133589
C29   C     C_R   0.745417 0.417394 0.499729 -0.133530
C30   C     C_R   0.817340 0.582757 0.500030 -0.118537
C31   C     C_R   0.817324 0.417403 0.499719 -0.118571
C32   C     C_R   0.854019 0.500091 0.499874 0.033878
C33   C     C_R   0.708859 0.500045 0.499883 0.012615
C34   C     C_R   0.182815 0.417384 0.498880 -0.108952
C35   C     C_R   0.070105 0.500100 0.499881 0.347434
C36   C     C_R   0.254796 0.582692 0.500899 -0.117761
C37   C     C_R   0.254715 0.417362 0.498869 -0.116939
C38   C     C_R   0.291309 0.500009 0.499895 0.003102
C39   C     C_R   0.146172 0.500082 0.499885 0.028102
C40   C     C_3   0.459142 0.583124 0.048716 -0.211746
Cu1   Cu    Cu3+1 0.500090 0.589920 0.499910 1.028038
Cu2   Cu    Cu3+1 0.500090 0.410080 0.499910 1.017087
H1    H     H_    0.718540 0.647493 0.500146 0.130467
H2    H     H_    0.605253 0.928341 0.492261 0.136839
H3    H     H_    0.417430 0.085296 0.400498 0.086457
H4    H     H_    0.440691 0.937705 0.383636 0.082380
H5    H     H_    0.462401 0.083058 0.635943 0.191135
H6    H     H_    0.444867 0.926785 0.624471 0.219148
H7    H     H_    0.844078 0.647639 0.500143 0.139983
H8    H     H_    0.844048 0.352535 0.499603 0.140074
H9    H     H_    0.156211 0.647640 0.501692 0.152583
H10   H     H_    0.156059 0.352519 0.498064 0.159108
H11   H     H_    0.281722 0.647435 0.501743 0.174868
H12   H     H_    0.718519 0.352604 0.499611 0.130726
H13   H     H_    0.281571 0.352580 0.497991 0.189830
H14   H     H_    0.405012 0.580897 0.927877 0.126576
H15   H     H_    0.411969 0.406319 0.927826 0.127239
H16   H     H_    0.405016 0.580880 0.072119 0.129770
H17   H     H_    0.411973 0.406302 0.072067 0.126971
H18   H     H_    0.494490 0.350790 0.072015 0.121249
H19   H     H_    0.482662 0.647618 0.072104 0.124965
H20   H     H_    0.494485 0.350807 0.927773 0.122460
H21   H     H_    0.482658 0.647634 0.927860 0.122612
H22   H     H_    0.600504 0.568345 0.072026 0.120588
H23   H     H_    0.600500 0.568360 0.927789 0.120150
H24   H     H_    0.605377 0.446098 0.071991 0.120103
H25   H     H_    0.288135 0.054106 0.630622 0.373136
H26   H     H_    0.291933 0.816824 0.563030 0.358138
H27   H     H_    0.605372 0.446113 0.927754 0.120320
H28   H     H_    0.536468 0.916122 0.628206 0.101086
H29   H     H_    0.552546 0.071145 0.617468 0.109621
H30   H     H_    0.546656 0.072750 0.381956 0.115067
H31   H     H_    0.563828 0.917375 0.392244 0.121210
H32   H     H_    0.603273 0.083571 0.470339 0.135541
N1    N     N_R   0.965760 0.420434 0.499376 -0.225996
N2    N     N_R   0.965803 0.579773 0.500377 -0.226339
N3    N     N_R   0.034390 0.420433 0.499376 -0.222256
N4    N     N_R   0.034436 0.579772 0.500383 -0.222529
N5    N     N_1   0.498600 0.724970 0.501390 -0.168384
N6    N     N_1   0.498600 0.275030 0.501390 -0.173618
O1    O     O_R   0.500080 0.575970 0.379360 -0.481717
O2    O     O_2   0.285796 0.095799 0.466223 -0.221870
O3    O     O_3   0.332279 0.030940 0.607580 -0.484871
O4    O     O_2   0.290423 0.924280 0.422793 -0.204146
O5    O     O_2   0.362520 0.789182 0.417576 -0.306817
O6    O     O_3   0.334039 0.855144 0.564173 -0.495454
O7    O     O_R   0.500080 0.424030 0.379360 -0.496526
O8    O     O_R   0.599930 0.575960 0.499920 -0.510769
O9    O     O_R   0.599930 0.424040 0.499920 -0.509113
O10   O     O_R   0.500070 0.575900 0.620490 -0.494938
O11   O     O_R   0.500070 0.424100 0.620490 -0.485822
O12   O     O_R   0.400220 0.575910 0.499940 -0.471814
O13   O     O_R   0.400220 0.424090 0.499940 -0.477975
O14   O     O_2   0.359129 0.192084 0.552114 -0.313664
S1    S     S_3+6 0.347983 0.095805 0.522620 0.034862
S2    S     S_3+6 0.351255 0.878080 0.462735 0.043901

loop_
_geom_bond_atom_site_label_1
_geom_bond_atom_site_label_2
_ccdc_geom_bond_type
C1    O7    A    
H25   O3    S    
C25   N6    T    
C34   C37   A    
H26   O6    S    
Cu1   Cu2   S    
C35   C39   S    
C15   H5    S    
C16   H6    S    
C15   C19   S    
C4    H21   S    
N2    N4    A    
C5    C11   T    
C3    C7    S    
Cu2   N6    S    
O5    S2    D    
C2    H18   S    
C29   H12   S    
C27   C38   S    
C1    O1    A    
C15   C16   S    
Cu2   O13   S    
C29   C33   A    
Cu2   O11   S    
O4    S2    D    
C36   H11   S    
C20   C24   S    
C9    C10   S    
Cu1   O10   S    
Cu1   O1    S    
C13   C14   T    
C12   C32   S    
C2    C6    S    
C4    C7    S    
C10   H24   S    
C40   H16   S    
C34   C39   A    
C4    C40   S    
C19   C22   S    
C16   H28   S    
C2    H17   S    
C26   O11   A    
C35   N3    A    
C40   H19   S    
C8    O8    A    
C7    C11   S    
Cu1   N5    S    
C37   C38   A    
C18   H2    S    
C24   N5    T    
C23   H9    S    
C31   C32   A    
C16   C20   S    
O3    S1    S    
Cu1   O12   S    
C17   C18   S    
C27   O12   A    
N1    N3    A    
O6    S2    S    
C3    H15   S    
C30   H7    S    
C28   C33   A    
C18   H31   S    
C12   N2    A    
C17   H32   S    
C6    C40   S    
C27   O13   A    
C31   H8    S    
C21   H4    S    
C3    H20   S    
C7    C9    S    
Cu1   O8    S    
O2    S1    D    
C35   N4    A    
C10   H22   S    
C9    H27   S    
C6    C10   S    
C8    O9    A    
C21   S2    S    
C26   O10   A    
C15   H29   S    
C28   H1    S    
C34   H10   S    
Cu2   O9    S    
C36   C38   A    
C2    C3    S    
C29   C31   A    
C6    C13   S    
C30   C32   A    
C23   C39   A    
C28   C30   A    
C17   C19   S    
C18   C20   S    
C8    C33   S    
O14   S1    D    
C19   C25   S    
C9    H23   S    
Cu2   O7    S    
C5    C26   S    
C37   H13   S    
C22   S1    S    
C22   H3    S    
C20   C21   S    
C17   H30   S    
C23   C36   A    
C12   N1    A    
C1    C14   S    
C21   C22   S    
C4    H14   S    
