data_mof_unit_62369.cif
_audit_creation_date              2012-12-10T19:42:32-0500
_audit_creation_method            fapswitch 2.2
_symmetry_space_group_name_H-M    P1
_symmetry_Int_Tables_number       1
_space_group_crystal_system       triclinic
_cell_length_a                    10.964812
_cell_length_b                    10.996421
_cell_length_c                    9.814605
_cell_angle_alpha                 98.152063
_cell_angle_beta                  98.250913
_cell_angle_gamma                 93.012196
_cell_volume                      1156.08588845

loop_
_atom_site_label
_atom_site_type_symbol
_atom_type_description
_atom_site_fract_x
_atom_site_fract_y
_atom_site_fract_z
_atom_type_partial_charge
C1    C     C_R   0.493942 0.262097 0.501508 0.870012
C2    C     C_R   0.760013 0.914951 0.734376 0.310720
C3    C     C_R   0.366266 0.081460 0.261122 0.181652
C4    C     C_R   0.632089 0.918265 0.740105 0.144271
C5    C     C_R   0.407001 0.080539 0.131446 -0.096710
C6    C     C_R   0.586965 0.896948 0.862215 -0.066518
C7    C     C_R   0.321407 0.069772 0.009813 -0.126435
C8    C     C_R   0.668353 0.875628 0.978202 -0.184484
C9    C     C_R   0.195386 0.061091 0.016766 -0.169084
C10   C     C_R   0.794724 0.874001 0.972897 -0.222362
C11   C     C_R   0.467582 0.919654 0.373172 0.298131
C12   C     C_R   0.505323 0.738001 0.498635 0.826253
C13   C     C_R   0.529959 0.080116 0.627372 0.308296
C14   C     C_R   0.510176 0.872322 0.496661 -0.217305
C15   C     C_R   0.489560 0.127972 0.503650 -0.188657
C16   C     C_R   0.262181 0.503870 0.499876 0.774202
C17   C     C_R   0.737803 0.500336 0.499727 0.770340
C18   C     C_R   0.548250 0.954743 0.622093 -0.124271
C19   C     C_R   0.450941 0.045821 0.378572 -0.096698
C20   C     C_2   0.508366 0.512027 0.078473 -0.034770
C21   C     C_2   0.492028 0.487772 0.921572 -0.019697
C22   C     C_R   0.186839 0.560658 0.052211 -0.097069
C23   C     C_R   0.872051 0.504688 0.501161 -0.102768
C24   C     C_R   0.824712 0.322084 0.879560 -0.056731
C25   C     C_R   0.141948 0.586406 0.178954 0.346721
C26   C     C_R   0.873433 0.348508 0.761995 0.305035
C27   C     C_R   0.082889 0.490151 0.232840 0.066560
C28   C     C_R   0.912228 0.471582 0.753190 0.064866
C29   C     C_R   0.064762 0.371933 0.155283 -0.169786
C30   C     C_R   0.899232 0.565622 0.861413 -0.123615
C31   C     C_R   0.107966 0.348508 0.028310 -0.117919
C32   C     C_R   0.843476 0.538470 0.974022 -0.161375
C33   C     C_R   0.171460 0.441302 0.978655 -0.235615
C34   C     C_R   0.128076 0.511057 0.497721 -0.088612
C35   C     C_R   0.806087 0.416943 0.982889 -0.147835
C36   C     C_R   0.918226 0.509335 0.376716 -0.251325
C37   C     C_R   0.081579 0.514845 0.623302 -0.243126
C38   C     C_3   0.054979 0.770713 0.277918 -0.749905
C39   C     C_3   0.985285 0.181155 0.671897 -0.725732
C40   C     C_3   0.201665 0.015625 0.488504 -0.718263
C41   C     C_3   0.840447 0.830911 0.527979 -0.738822
C42   C     C_R   0.955032 0.503138 0.625375 0.011093
C43   C     C_R   0.044443 0.507679 0.372177 0.034459
C44   C     C_R   0.154106 0.075332 0.145812 -0.209933
C45   C     C_R   0.840352 0.892895 0.851349 -0.165268
C46   C     C_R   0.238700 0.087215 0.269492 0.313629
Cl1   Cl    Cl    0.426096 0.823260 0.209021 -0.702304
Cl2   Cl    Cl    0.551796 0.171813 0.794200 -0.722465
Cu1   Cu    Cu3+1 0.521120 0.521140 0.639640 0.981592
Cu2   Cu    Cu3+1 0.478880 0.478860 0.360360 0.970700
H1    H     H_    0.210288 0.419012 0.884209 0.131787
H2    H     H_    0.390695 0.372872 0.096507 0.216799
H3    H     H_    0.235507 0.632555 0.011836 0.180229
H4    H     H_    0.799411 0.227741 0.889648 0.181579
H5    H     H_    0.017288 0.297984 0.193625 0.125009
H6    H     H_    0.927835 0.660020 0.855485 0.137202
H7    H     H_    0.091158 0.258667 0.967140 0.143454
H8    H     H_    0.826736 0.611657 0.053171 0.112293
H9    H     H_    0.855484 0.510235 0.281337 0.152451
H10   H     H_    0.143999 0.519596 0.719211 0.156139
H11   H     H_    0.129530 0.047220 0.921827 0.126499
H12   H     H_    0.762986 0.395723 0.069967 0.147943
H13   H     H_    0.857462 0.858289 0.063169 0.144712
H14   H     H_    0.055849 0.075002 0.149410 0.120503
H15   H     H_    0.938679 0.892181 0.848664 0.137373
H16   H     H_    0.229614 0.714610 0.341589 0.270518
H17   H     H_    0.064756 0.864442 0.250241 0.262315
H18   H     H_    0.045178 0.776505 0.389285 0.225158
H19   H     H_    0.969833 0.722966 0.214494 0.215205
H20   H     H_    0.861270 0.273689 0.552938 0.247095
H21   H     H_    0.981395 0.109463 0.580249 0.253058
H22   H     H_    0.984243 0.134931 0.765068 0.234561
H23   H     H_    0.504396 0.077451 0.123743 0.162022
H24   H     H_    0.071684 0.241613 0.682508 0.231451
H25   H     H_    0.114911 0.156082 0.398656 0.243727
H26   H     H_    0.250968 0.054420 0.593697 0.248944
H27   H     H_    0.248612 0.935658 0.445700 0.254092
H28   H     H_    0.107663 0.980142 0.498553 0.218876
H29   H     H_    0.762204 0.998155 0.556740 0.273801
H30   H     H_    0.868470 0.858226 0.431920 0.226107
H31   H     H_    0.759055 0.763365 0.496776 0.226487
H32   H     H_    0.917593 0.787733 0.584799 0.242172
H33   H     H_    0.489241 0.898542 0.867878 0.155298
H34   H     H_    0.352274 0.062957 0.909479 0.175808
H35   H     H_    0.633789 0.860589 0.072587 0.189629
H36   H     H_    0.426891 0.413269 0.866619 0.179971
H37   H     H_    0.573501 0.586751 0.133298 0.172807
H38   H     H_    0.612602 0.624273 0.904008 0.207994
N1    N     N_2   0.447120 0.447110 0.150550 -0.279989
N2    N     N_2   0.552880 0.552890 0.849450 -0.277694
N3    N     N_2   0.163716 0.707287 0.254109 -0.386719
N4    N     N_2   0.878426 0.251029 0.651787 -0.440215
N5    N     N_2   0.195238 0.111108 0.400372 -0.455637
N6    N     N_2   0.809524 0.939017 0.613894 -0.446856
O1    O     O_R   0.517830 0.337490 0.617920 -0.515708
O2    O     O_R   0.482170 0.662510 0.382080 -0.527531
O3    O     O_R   0.482150 0.301790 0.382070 -0.594740
O4    O     O_R   0.517850 0.698210 0.617930 -0.587192
O5    O     O_R   0.337480 0.517860 0.617920 -0.590367
O6    O     O_R   0.662520 0.482140 0.382080 -0.594445
O7    O     O_R   0.301810 0.482160 0.382070 -0.574743
O8    O     O_R   0.698190 0.517840 0.617930 -0.562306

loop_
_geom_bond_atom_site_label_1
_geom_bond_atom_site_label_2
_ccdc_geom_bond_type
C27   C29   A    
C34   C37   A    
C14   C18   A    
C11   Cl1   S    
C10   H13   S    
C32   H8    S    
C40   N5    S    
C36   H9    S    
C41   H30   S    
C44   H14   S    
C15   C19   A    
C11   C19   A    
C17   C23   S    
C23   C42   A    
C13   C18   A    
C9    H11   S    
C24   C26   A    
C11   C14   A    
C38   H18   S    
C24   H4    S    
C20   H37   S    
C8    H35   S    
C39   H24   S    
C37   C42   A    
C16   C34   S    
Cu1   O4    S    
Cu2   O3    S    
C22   C25   A    
C39   H22   S    
C31   C33   A    
C3    C19   S    
C1    C15   S    
Cu1   N2    S    
C12   O4    A    
C4    C18   S    
C7    H34   S    
C38   H19   S    
H2    N1    S    
C44   C46   A    
C22   H3    S    
C21   N2    D    
C2    C45   A    
C25   N3    S    
C24   C35   A    
C32   C35   A    
C2    N6    S    
C38   H17   S    
H29   N6    S    
C4    C6    A    
C1    O3    A    
Cu1   O8    S    
C5    C7    A    
C6    C8    A    
C29   H5    S    
C30   H6    S    
C38   N3    S    
C40   H26   S    
C2    C4    A    
C17   O8    A    
Cu1   O5    S    
Cu2   N1    S    
C41   N6    S    
C1    O1    A    
C41   H31   S    
C10   C45   A    
Cu1   O1    S    
H38   N2    S    
Cu1   Cu2   S    
C13   C15   A    
C45   H15   S    
C40   H28   S    
C33   H1    S    
C39   N4    S    
H25   N5    S    
C7    C9    A    
C22   C33   A    
C21   H36   S    
C9    C44   A    
C6    H33   S    
Cu2   O6    S    
H20   N4    S    
C34   C43   A    
C12   C14   S    
C3    C5    A    
C13   Cl2   S    
C16   O5    A    
H16   N3    S    
C25   C27   A    
C20   N1    D    
C3    C46   A    
C26   C28   A    
C31   H7    S    
C28   C30   A    
C29   C31   A    
C30   C32   A    
Cu2   O2    S    
C46   N5    S    
C41   H32   S    
C28   C42   S    
C35   H12   S    
C5    H23   S    
C17   O6    A    
C37   H10   S    
C27   C43   S    
C16   O7    A    
C20   C21   S    
Cu2   O7    S    
C8    C10   A    
C23   C36   A    
C39   H21   S    
C40   H27   S    
C12   O2    A    
C36   C43   A    
C26   N4    S    
