data_mof_unit_68390.cif
_audit_creation_date              2012-12-11T18:21:52-0500
_audit_creation_method            fapswitch 2.2
_symmetry_space_group_name_H-M    P1
_symmetry_Int_Tables_number       1
_space_group_crystal_system       triclinic
_cell_length_a                    8.476208
_cell_length_b                    14.421361
_cell_length_c                    15.050038
_cell_angle_alpha                 95.756035
_cell_angle_beta                  97.336463
_cell_angle_gamma                 93.209039
_cell_volume                      1811.01685535

loop_
_atom_site_label
_atom_site_type_symbol
_atom_type_description
_atom_site_fract_x
_atom_site_fract_y
_atom_site_fract_z
_atom_type_partial_charge
Ba1   Ba    Ba6+2 0.833400 0.543310 0.453520 1.605063
Ba2   Ba    Ba6+2 0.356420 0.456770 0.546480 1.606063
C1    C     C_3   0.614632 0.880986 0.213651 -0.229784
C2    C     C_R   0.904694 0.447087 0.927416 -0.030100
C3    C     C_R   0.045285 0.464959 0.113816 -0.034727
C4    C     C_3   0.002769 0.763376 0.193993 0.334909
C5    C     C_R   0.895984 0.418459 0.084710 -0.060769
C6    C     C_R   0.821287 0.414956 0.996154 0.097420
C7    C     C_R   0.111169 0.476884 0.207234 0.096860
C8    C     C_R   0.263346 0.521669 0.231355 -0.252947
C9    C     C_R   0.084014 0.516051 0.793660 0.073236
C10   C     C_R   0.148508 0.526613 0.887775 -0.031719
C11   C     C_R   0.062014 0.489807 0.953723 -0.022345
C12   C     C_3   0.564681 0.785810 0.242969 0.365347
C13   C     C_R   0.297052 0.574191 0.918725 -0.024304
C14   C     C_R   0.367666 0.579124 0.008460 -0.122888
C15   C     C_R   0.286647 0.543307 0.074388 -0.036458
C16   C     C_3   0.020093 0.809691 0.104147 0.094681
C17   C     C_R   0.130910 0.499861 0.047421 0.018053
C18   C     C_R   0.354224 0.552414 0.166872 0.012239
C19   C     C_R   0.934734 0.466189 0.769479 -0.288957
C20   C     C_R   0.708598 0.948219 0.554358 0.071490
C21   C     C_R   0.514363 0.804739 0.504679 0.079107
C22   C     C_R   0.360064 0.771802 0.463585 -0.255103
C23   C     C_3   0.432542 0.301133 0.273969 0.352514
C24   C     C_R   0.248389 0.832607 0.431478 0.026356
C25   C     C_R   0.292898 0.927332 0.435103 -0.139667
C26   C     C_R   0.448152 0.962688 0.470613 -0.017859
C27   C     C_R   0.559706 0.903688 0.510660 -0.022832
C28   C     C_3   0.196980 0.773099 0.687439 0.540043
C29   C     C_R   0.647516 0.095972 0.495352 -0.056843
C30   C     C_R   0.759419 0.037989 0.534448 0.018031
C31   C     C_R   0.694771 0.191178 0.489481 0.047022
C32   C     C_R   0.854714 0.225760 0.520333 -0.233451
C33   C     C_R   0.963066 0.166814 0.560197 0.023070
C34   C     C_3   0.452976 0.292415 0.173365 -0.007434
C35   C     C_R   0.918348 0.073339 0.561540 -0.144957
C36   C     C_R   0.491301 0.057378 0.465615 -0.058548
C37   C     C_3   0.170523 0.867340 0.740322 -0.321131
C38   C     C_3   0.961343 0.236749 0.315190 0.264760
C39   C     C_3   0.949891 0.135525 0.271686 -0.096436
C40   C     C_3   0.677331 0.686211 0.738876 0.269028
C41   C     C_3   0.609413 0.726774 0.825991 0.121091
C42   C     C_3   0.849250 0.670668 0.760901 -0.286331
C43   C     C_3   0.386943 0.776222 0.247674 -0.353605
C44   C     C_3   0.587883 0.966663 0.276137 -0.483479
C45   C     C_3   0.144326 0.263418 0.793425 0.373420
C46   C     C_3   0.473958 0.191532 0.135076 -0.367885
C47   C     C_3   0.150349 0.891946 0.116498 -0.336010
C48   C     C_3   0.545644 0.074428 0.748496 -0.257454
C49   C     C_3   0.914180 0.323874 0.508028 -0.244265
C50   C     C_3   0.782451 0.921775 0.643585 -0.361398
C51   C     C_3   0.060673 0.734145 0.032369 -0.436406
C52   C     C_3   0.863150 0.849000 0.065892 -0.371177
C53   C     C_3   0.163259 0.240387 0.890433 -0.415287
C54   C     C_3   0.709356 0.222730 0.813195 0.325500
C55   C     C_3   0.664911 0.120207 0.828236 0.252352
C56   C     C_R   0.840153 0.437120 0.833888 -0.018129
H1    H     H_    0.632543 0.781072 0.310497 0.096335
H2    H     H_    0.744349 0.882461 0.215763 0.163984
H3    H     H_    0.478425 0.722253 0.810228 0.118106
H4    H     H_    0.307443 0.281618 0.282059 0.035913
H5    H     H_    0.462594 0.375307 0.302019 0.010951
H6    H     H_    0.562757 0.335573 0.166376 0.100227
H7    H     H_    0.558126 0.887788 0.144028 0.124398
H8    H     H_    0.228359 0.324747 0.790582 0.105287
H9    H     H_    0.020233 0.281553 0.774176 -0.071021
H10   H     H_    0.291265 0.245227 0.917717 0.120297
H11   H     H_    0.102750 0.291025 0.932472 0.075994
H12   H     H_    0.257766 0.880540 0.802687 0.101939
H13   H     H_    0.111860 0.168948 0.894794 0.120217
H14   H     H_    0.804835 0.251745 0.868012 -0.028979
H15   H     H_    0.755712 0.222852 0.747141 -0.051296
H16   H     H_    0.889128 0.720140 0.185192 0.091736
H17   H     H_    0.829834 0.385424 0.130593 0.116934
H18   H     H_    0.484469 0.614747 0.026339 0.130397
H19   H     H_    0.361093 0.608164 0.873473 0.128289
H20   H     H_    0.315425 0.528466 0.301364 0.064504
H21   H     H_    0.882848 0.459677 0.699689 0.058636
H22   H     H_    0.324579 0.698001 0.458773 0.057967
H23   H     H_    0.186382 0.925994 0.698913 0.075203
H24   H     H_    0.207368 0.973056 0.406536 0.082901
H25   H     H_    0.007900 0.029001 0.588228 0.073642
H26   H     H_    0.093444 0.712571 0.206801 -0.039924
H27   H     H_    0.402861 0.098872 0.433904 0.093381
H28   H     H_    0.133444 0.146104 0.196632 0.196360
H29   H     H_    0.190315 0.121206 0.303268 0.171400
H30   H     H_    0.920149 0.737347 0.781565 0.128222
H31   H     H_    0.869590 0.628146 0.817055 0.015426
H32   H     H_    0.883061 0.636589 0.698182 0.109130
H33   H     H_    0.764196 0.846627 0.828132 0.197789
H34   H     H_    0.050090 0.867913 0.761031 0.090369
H35   H     H_    0.572829 0.868846 0.837185 0.178346
H36   H     H_    0.639914 0.601391 0.879527 0.174923
H37   H     H_    0.761212 0.691131 0.933450 0.193122
H38   H     H_    0.337239 0.841691 0.270742 0.092603
H39   H     H_    0.329060 0.750049 0.179811 0.094819
H40   H     H_    0.359144 0.723031 0.292370 0.040731
H41   H     H_    0.459909 0.977149 0.277751 0.139875
H42   H     H_    0.650971 0.960759 0.344149 0.152913
H43   H     H_    0.639597 0.029800 0.251263 0.135820
H44   H     H_    0.594051 0.170713 0.160445 0.123886
H45   H     H_    0.839663 0.251176 0.328641 0.014544
H46   H     H_    0.382974 0.141828 0.154181 0.125281
H47   H     H_    0.462602 0.186339 0.060677 0.104635
H48   H     H_    0.218328 0.281118 0.114017 0.187956
H49   H     H_    0.345903 0.338820 0.057759 0.181489
H50   H     H_    0.270737 0.868969 0.110084 0.100503
H51   H     H_    0.128107 0.939241 0.062902 0.110166
H52   H     H_    0.153115 0.934754 0.182087 0.164889
H53   H     H_    0.870209 0.079713 0.899850 0.172979
H54   H     H_    0.886113 0.091147 0.792112 0.153441
H55   H     H_    0.596318 0.076774 0.684457 0.086729
H56   H     H_    0.051725 0.241384 0.375389 -0.000772
H57   H     H_    0.512792 0.000933 0.757926 0.088789
H58   H     H_    0.434957 0.111604 0.742973 0.174164
H59   H     H_    0.485847 0.148582 0.905970 0.192204
H60   H     H_    0.668750 0.151439 0.965503 0.152163
H61   H     H_    0.592293 0.424263 0.017875 0.188236
H62   H     H_    0.648097 0.313939 0.001284 0.151375
H63   H     H_    0.038678 0.327636 0.495618 0.138079
H64   H     H_    0.867439 0.347274 0.444147 0.100090
H65   H     H_    0.893311 0.374226 0.565062 0.119349
H66   H     H_    0.687463 0.910722 0.685810 0.143475
H67   H     H_    0.860195 0.127116 0.210316 0.097532
H68   H     H_    0.858513 0.863989 0.635262 0.174057
H69   H     H_    0.861443 0.977482 0.684244 0.089720
H70   H     H_    0.052746 0.759136 0.964512 0.135720
H71   H     H_    0.183671 0.714565 0.048836 0.121116
H72   H     H_    0.979553 0.670455 0.028969 0.107128
H73   H     H_    0.867698 0.864228 0.995507 0.142445
H74   H     H_    0.759058 0.799024 0.066129 0.155237
H75   H     H_    0.846839 0.917725 0.102354 0.120390
H76   H     H_    0.387791 0.711981 0.650657 0.176275
H77   H     H_    0.432143 0.822671 0.704162 0.160789
H78   H     H_    0.909664 0.088841 0.320062 0.072497
H79   H     H_    0.077761 0.815502 0.575698 0.152391
H80   H     H_    0.115648 0.704663 0.562693 0.191512
H81   H     H_    0.611791 0.619231 0.710047 0.078799
N1    N     N_3   0.102542 0.106946 0.247295 -0.505257
N2    N     N_3   0.662826 0.825204 0.855423 -0.484235
N3    N     N_3   0.645688 0.672330 0.902103 -0.513682
N4    N     N_3   0.317326 0.329348 0.121879 -0.544243
N5    N     N_3   0.808204 0.067190 0.834660 -0.504407
N6    N     N_3   0.592465 0.115611 0.911312 -0.480176
N7    N     N_3   0.657720 0.380269 0.979429 -0.461904
N8    N     N_3   0.351704 0.779621 0.657852 -0.539712
N9    N     N_3   0.078545 0.755161 0.608700 -0.431138
O1    O     O_2   0.841230 0.444160 0.280430 -0.469051
O2    O     O_2   0.300693 0.175438 0.585623 -0.476463
O3    O     O_3   0.178734 0.186033 0.736389 -0.612280
O4    O     O_3   0.112860 0.447350 0.393710 -0.514633
O5    O     O_3   0.560610 0.613730 0.540770 -0.488163
O6    O     O_2   0.387460 0.270290 0.467210 -0.471915
O7    O     O_3   0.531612 0.240369 0.317493 -0.675690
O8    O     O_2   0.504248 0.449508 0.824299 -0.477646
O9    O     O_3   0.576028 0.276468 0.813753 -0.577750
O10   O     O_3   0.597940 0.615700 0.327690 -0.480899
O11   O     O_2   0.689724 0.544365 0.174622 -0.491643
O12   O     O_3   0.670959 0.752949 0.677750 -0.663657
O13   O     O_3   0.009878 0.296799 0.255559 -0.657343
O14   O     O_3   0.604023 0.715430 0.178345 -0.626039
O15   O     O_2   0.802240 0.729740 0.532850 -0.441479
O16   O     O_3   0.017180 0.664790 0.371080 -0.481319
O17   O     O_2   0.921659 0.830186 0.427303 -0.487645
O18   O     O_3   0.005201 0.831390 0.268515 -0.624428
O19   O     O_2   0.348480 0.555870 0.719620 -0.496051
O20   O     O_3   0.076830 0.552730 0.606300 -0.506735
O21   O     O_3   0.591760 0.384380 0.672320 -0.454751
O22   O     O_3   0.187795 0.703569 0.746823 -0.651627
O23   O     O_3   0.629090 0.386350 0.459240 -0.473244
O24   O     O_3   0.172520 0.335290 0.628920 -0.496587
P1    P     P_3+3 0.018600 0.416790 0.295970 0.948011
P2    P     P_3+3 0.635660 0.716530 0.560900 0.975978
P3    P     P_3+3 0.048830 0.786976 0.373969 0.929500
P4    P     P_3+3 0.171090 0.583290 0.704030 0.944111
P5    P     P_3+3 0.155004 0.214219 0.625001 0.951538
P6    P     P_3+3 0.560793 0.603878 0.210220 0.934732
P7    P     P_3+3 0.557074 0.269667 0.433993 0.929937
P8    P     P_3+3 0.631586 0.388722 0.788412 0.983894

loop_
_geom_bond_atom_site_label_1
_geom_bond_atom_site_label_2
_ccdc_geom_bond_type
O24   P5    S    
C33   P5    S    
C44   H41   S    
C4    O18   S    
H62   N7    S    
C20   C27   A    
C55   N6    S    
C31   P7    S    
C49   H65   S    
H79   N9    S    
C34   H6    S    
H29   N1    S    
C2    C6    A    
C53   H10   S    
C8    H20   S    
H35   N2    S    
H48   N4    S    
C21   P2    S    
O22   P4    S    
H61   N7    S    
C52   H73   S    
Ba1   P1    S    
C32   C49   S    
C20   C30   A    
Ba1   O4    S    
C21   C27   A    
C45   C53   S    
C26   C27   A    
C33   C35   A    
C34   N4    S    
C22   C24   A    
C32   C33   A    
C43   H40   S    
O3    P5    S    
C23   O7    S    
C13   C14   A    
C46   H46   S    
C15   C18   A    
C54   C55   S    
O16   P3    S    
H59   N6    S    
C48   H57   S    
C23   H5    S    
C2    C11   A    
C28   O22   S    
C39   N1    S    
C16   C51   S    
Ba2   P4    S    
C22   H22   S    
C38   H56   S    
C29   C30   A    
Ba1   O16   S    
C8    C18   A    
C14   C15   A    
C54   H14   S    
C21   C22   A    
C29   C31   A    
C7    P1    S    
C47   H50   S    
C7    C8    A    
O21   P8    S    
O1    P1    D    
H28   N1    S    
Ba2   O23   S    
C50   H66   S    
O15   P2    D    
C1    H2    S    
Ba2   O6    S    
O6    P7    D    
O23   P7    S    
C1    H7    S    
C40   C42   S    
C45   H9    S    
C50   H69   S    
O7    P7    S    
C4    H16   S    
C12   C43   S    
H60   N6    S    
Ba2   O4    S    
C4    C16   S    
C44   H43   S    
C6    N7    S    
Ba1   P2    S    
C4    H26   S    
C11   C17   A    
C36   H27   S    
H36   N3    S    
C39   H67   S    
C28   N8    S    
C37   H23   S    
H80   N9    S    
C3    C5    A    
C50   H68   S    
C18   P6    S    
Ba2   O21   S    
Ba1   O20   S    
C52   H75   S    
O5    P2    S    
C9    C19   A    
O9    P8    S    
C12   O14   S    
O19   P4    D    
C3    C7    A    
C54   O9    S    
H76   N8    S    
C51   H70   S    
O13   P1    S    
C46   H47   S    
C10   C13   A    
C26   C36   A    
C46   H44   S    
C19   H21   S    
C31   C32   A    
O18   P3    S    
C30   C35   A    
Ba1   O5    S    
C53   H11   S    
C1    C12   S    
H53   N5    S    
O2    P5    D    
O4    P1    S    
C38   C39   S    
C45   O3    S    
Ba2   O5    S    
H77   N8    S    
C24   C25   A    
C49   H63   S    
C41   N2    S    
C51   H71   S    
C40   C41   S    
O11   P6    D    
H49   N4    S    
Ba2   O20   S    
C37   H34   S    
C42   H32   S    
C41   H3    S    
C47   H51   S    
O20   P4    S    
C44   H42   S    
Ba1   O10   S    
C54   H15   S    
C45   H8    S    
C55   N5    S    
C40   H81   S    
C14   H18   S    
C48   C55   S    
O12   P2    S    
C25   H24   S    
C40   O12   S    
Ba1   O1    S    
C5    H17   S    
C9    C10   A    
C28   N9    S    
C3    C17   A    
O17   P3    D    
C52   H74   S    
C1    C44   S    
C29   C36   A    
C48   H55   S    
H54   N5    S    
O10   P6    S    
C19   C56   A    
C43   H39   S    
C38   H45   S    
O8    P8    D    
C13   H19   S    
C24   P3    S    
C9    P4    S    
Ba1   Ba2   S    
C15   C17   A    
C37   H12   S    
Ba1   O23   S    
C28   C37   S    
C34   C46   S    
C20   C50   S    
C48   H58   S    
C23   H4    S    
O14   P6    S    
C5    C6    A    
C16   C52   S    
C23   C34   S    
C38   O13   S    
C10   C11   A    
Ba1   O15   S    
H37   N3    S    
C2    C56   A    
C25   C26   A    
C49   H64   S    
C35   H25   S    
C41   N3    S    
C56   P8    S    
C51   H72   S    
C12   H1    S    
C42   H30   S    
C43   H38   S    
Ba2   O19   S    
C39   H78   S    
C53   H13   S    
C42   H31   S    
C16   C47   S    
Ba2   O24   S    
C47   H52   S    
H33   N2    S    
