data_mof_unit_26387.cif
_audit_creation_date              2012-12-10T19:42:56-0500
_audit_creation_method            fapswitch 2.2
_symmetry_space_group_name_H-M    P1
_symmetry_Int_Tables_number       1
_space_group_crystal_system       triclinic
_cell_length_a                    10.840066
_cell_length_b                    13.018719
_cell_length_c                    11.723503
_cell_angle_alpha                 100.324417
_cell_angle_beta                  94.517635
_cell_angle_gamma                 91.577044
_cell_volume                      1621.15717883

loop_
_atom_site_label
_atom_site_type_symbol
_atom_type_description
_atom_site_fract_x
_atom_site_fract_y
_atom_site_fract_z
_atom_type_partial_charge
C1    C     C_R   0.499249 0.299026 0.478047 0.901982
C2    C     C_R   0.500751 0.700974 0.521953 0.901982
C3    C     C_R   0.871736 0.497239 0.501812 -0.069123
C4    C     C_R   0.128264 0.502762 0.498188 -0.069123
C5    C     C_R   0.946024 0.467027 0.593930 0.155855
C6    C     C_R   0.053976 0.532973 0.406070 0.155855
C7    C     C_R   0.498694 0.814624 0.535286 -0.201636
C8    C     C_R   0.501306 0.185376 0.464714 -0.201637
C9    C     C_R   0.525860 0.014487 0.347773 0.114902
C10   C     C_R   0.474139 0.985512 0.652227 0.114901
C11   C     C_R   0.521520 0.122824 0.357610 0.579200
C12   C     C_R   0.478479 0.877176 0.642389 0.579202
C13   C     C_R   0.484946 0.139324 0.561655 -0.151578
C14   C     C_R   0.515054 0.860676 0.438345 -0.151578
C15   C     C_R   0.489666 0.031495 0.553973 0.040206
C16   C     C_R   0.510334 0.968505 0.446027 0.040208
C17   C     C_R   0.425429 0.374320 0.017995 0.142180
C18   C     C_R   0.574571 0.625680 0.982005 0.142185
C19   C     C_R   0.416294 0.394439 0.140732 0.253173
C20   C     C_R   0.583705 0.605561 0.859268 0.253175
C21   C     C_R   0.536449 0.552496 0.159301 0.754824
C22   C     C_R   0.463552 0.447503 0.840699 0.754827
C23   C     C_R   0.262264 0.501706 0.499508 0.831287
C24   C     C_R   0.737736 0.498294 0.500492 0.831285
C25   C     C_R   0.527803 0.545333 0.035825 -0.213528
C26   C     C_R   0.472197 0.454667 0.964175 -0.213526
C27   C     C_R   0.224254 0.701638 0.232404 0.534910
C28   C     C_R   0.775747 0.298363 0.767597 0.534910
C29   C     C_R   0.169831 0.667995 0.324229 0.536636
C30   C     C_R   0.830170 0.332005 0.675771 0.536637
C31   C     C_R   0.105885 0.570143 0.306370 -0.178527
C32   C     C_R   0.894115 0.429858 0.693631 -0.178527
C33   C     C_R   0.095101 0.506631 0.194435 0.044909
C34   C     C_R   0.904898 0.493371 0.805564 0.044912
C35   C     C_R   0.151965 0.541206 0.103154 0.574291
C36   C     C_R   0.848034 0.458796 0.896846 0.574291
C37   C     C_R   0.215880 0.638181 0.122515 -0.447618
C38   C     C_R   0.784119 0.361821 0.877485 -0.447619
C39   C     C_R   0.926391 0.529847 0.409374 -0.196258
C40   C     C_R   0.073609 0.470154 0.590627 -0.196258
Cu1   Cu    Cu3+1 0.509250 0.507730 0.615930 1.045287
Cu2   Cu    Cu3+1 0.490750 0.492270 0.384070 1.045288
H1    H     H_    0.259460 0.664082 0.052027 0.212302
H2    H     H_    0.740539 0.335920 0.947974 0.212301
H3    H     H_    0.869581 0.555087 0.339977 0.202790
H4    H     H_    0.130419 0.444913 0.660023 0.202789
H5    H     H_    0.531510 0.811910 0.356381 0.253614
H6    H     H_    0.468490 0.188090 0.643619 0.253616
N1    N     N_R   0.523180 0.519350 0.790130 -0.268627
N2    N     N_R   0.476820 0.480650 0.209870 -0.268624
O1    O     O_R   0.506570 0.354460 0.582000 -0.555340
O2    O     O_R   0.493430 0.645540 0.418000 -0.555341
O3    O     O_R   0.490940 0.341410 0.386200 -0.510422
O4    O     O_R   0.509060 0.658590 0.613800 -0.510423
O5    O     O_R   0.327460 0.506540 0.597900 -0.542734
O6    O     O_R   0.672540 0.493460 0.402100 -0.542733
O7    O     O_R   0.311830 0.493480 0.402100 -0.627471
O8    O     O_R   0.688170 0.506520 0.597900 -0.627473
F1    F     F_    0.389627 0.372160 0.771047 -0.643691
F2    F     F_    0.610375 0.627838 0.228953 -0.643694
N3    N     N_3   0.655492 0.675777 0.806125 -0.468488
H7    H     H_    0.704988 0.733028 0.867511 0.225410
H8    H     H_    0.725307 0.633204 0.766805 0.238721
N4    N     N_3   0.344505 0.324225 0.193876 -0.468486
H9    H     H_    0.295011 0.266971 0.132490 0.225407
H10   H     H_    0.274689 0.366800 0.233191 0.238720
N5    N     N_3   0.395085 0.271303 0.950528 -0.482080
H11   H     H_    0.416724 0.215511 0.002026 0.223656
H12   H     H_    0.459912 0.254865 0.889050 0.267795
N6    N     N_3   0.604916 0.728698 0.049471 -0.482091
H13   H     H_    0.583267 0.784488 0.997974 0.223659
H14   H     H_    0.540097 0.745135 0.110955 0.267800
F3    F     F_    0.285898 0.795911 0.249956 -0.629087
F4    F     F_    0.714103 0.204090 0.750045 -0.629086
F5    F     F_    0.180419 0.730112 0.431011 -0.628893
F6    F     F_    0.819583 0.269888 0.568990 -0.628893
N7    N     N_3   0.031043 0.406031 0.176199 -0.548226
H15   H     H_    0.936257 0.418516 0.176416 0.274472
H16   H     H_    0.044617 0.362806 0.094385 0.283413
N8    N     N_3   0.968955 0.593971 0.823801 -0.548226
H17   H     H_    0.063741 0.581487 0.823583 0.274471
H18   H     H_    0.955381 0.637196 0.905614 0.283413
F7    F     F_    0.146960 0.480706 0.995717 -0.659590
F8    F     F_    0.853038 0.519297 0.004282 -0.659590
F9    F     F_    0.460545 0.833771 0.737242 -0.651003
F10   F     F_    0.539454 0.166229 0.262758 -0.651004
N9    N     N_3   0.546566 0.951373 0.238042 -0.552171
H19   H     H_    0.476263 0.964123 0.176425 0.270098
H20   H     H_    0.630966 0.976236 0.212487 0.264173
N10   N     N_3   0.453432 0.048627 0.761958 -0.552170
H21   H     H_    0.369032 0.023763 0.787512 0.264174
H22   H     H_    0.523735 0.035878 0.823575 0.270098

loop_
_geom_bond_atom_site_label_1
_geom_bond_atom_site_label_2
_ccdc_geom_bond_type
C18   N6    S    
N9    H19   S    
C8    C13   A    
C27   C29   A    
C1    C8    S    
Cu1   Cu2   S    
C2    C7    S    
C28   F4    S    
N7    H15   S    
C40   H4    S    
C12   F9    S    
C17   C26   A    
C35   C37   A    
C9    C16   A    
C36   F8    S    
Cu1   O8    S    
C10   C15   A    
Cu2   O3    S    
C11   F10   S    
C15   C16   A    
C20   N3    S    
N3    H8    S    
C1    O3    A    
Cu1   O5    S    
Cu2   O6    S    
C7    C14   A    
C4    C40   A    
C31   C33   A    
N6    H13   S    
C34   C36   A    
C39   H3    S    
C5    C32   S    
C34   N8    S    
C6    C31   S    
C3    C39   A    
C9    C11   A    
C3    C24   S    
C18   C25   A    
C10   C12   A    
Cu2   O7    S    
Cu1   N1    S    
C21   N2    A    
N7    H16   S    
C7    C12   A    
C17   N5    S    
N5    H11   S    
C21   F2    S    
C4    C6    A    
C2    O4    A    
C22   F1    S    
C4    C23   S    
C35   F7    S    
C17   C19   A    
C25   C26   A    
N5    H12   S    
N4    H10   S    
C37   H1    S    
C38   H2    S    
C20   N1    A    
C30   F6    S    
N10   H22   S    
C28   C38   A    
C19   N4    S    
C1    O1    A    
C2    O2    A    
Cu2   N2    S    
C22   N1    A    
N8    H18   S    
C13   C15   A    
C14   C16   A    
C23   O7    A    
C21   C25   A    
N8    H17   S    
C3    C5    A    
C13   H6    S    
C23   O5    A    
C14   H5    S    
C29   F5    S    
C24   O6    A    
N4    H9    S    
C36   C38   A    
C29   C31   A    
C9    N9    S    
C30   C32   A    
C19   N2    A    
C33   N7    S    
N10   H21   S    
C27   C37   A    
C8    C11   A    
C28   C30   A    
C33   C35   A    
C18   C20   A    
N3    H7    S    
Cu1   O4    S    
C10   N10   S    
C24   O8    A    
C22   C26   A    
C5    C40   A    
Cu2   O2    S    
N9    H20   S    
C6    C39   A    
N6    H14   S    
C27   F3    S    
Cu1   O1    S    
C32   C34   A    
