data_mof_unit_13638.cif
_audit_creation_date              2012-10-26T21:02:36-0400
_audit_creation_method            fapswitch 2.2
_symmetry_space_group_name_H-M    P1
_symmetry_Int_Tables_number       1
_space_group_crystal_system       triclinic
_cell_length_a                    12.4983
_cell_length_b                    13.389299
_cell_length_c                    15.093398
_cell_angle_alpha                 73.331887
_cell_angle_beta                  100.75306
_cell_angle_gamma                 118.458845
_cell_volume                      2123.52585666

loop_
_atom_site_label
_atom_site_type_symbol
_atom_type_description
_atom_site_fract_x
_atom_site_fract_y
_atom_site_fract_z
_atom_type_partial_charge
C1    C     C_R   0.855726 0.285872 0.508874 0.546023
C2    C     C_R   0.890465 0.437584 0.814945 0.257175
C3    C     C_R   0.999084 0.499610 0.767727 0.000126
C4    C     C_R   0.998732 0.498039 0.671027 0.562580
C5    C     C_R   0.108820 0.564743 0.812698 -0.196502
C6    C     C_R   0.304738 0.019628 0.346418 -0.136475
C7    C     C_R   0.231953 0.837614 0.460884 -0.017103
C8    C     C_R   0.817859 0.076494 0.571684 0.210057
C9    C     C_R   0.734290 0.957825 0.590462 0.253461
C10   C     C_R   0.609226 0.923711 0.569602 0.245640
C11   C     C_R   0.571259 0.002686 0.502219 -0.040129
C12   C     C_R   0.115127 0.580794 0.088245 0.026601
C13   C     C_R   0.662757 0.116866 0.467608 -0.122810
C14   C     C_R   0.448650 0.973852 0.465056 -0.002452
C15   C     C_R   0.424921 0.050174 0.385092 0.044865
C16   C     C_R   0.145583 0.713841 0.484990 0.530884
C17   C     C_R   0.521095 0.155576 0.344734 0.244564
C18   C     C_R   0.638859 0.187115 0.385406 -0.110871
C19   C     C_R   0.348039 0.872336 0.504661 -0.099136
C20   C     C_R   0.209157 0.913114 0.383386 -0.174392
C21   C     C_R   0.778099 0.158608 0.515213 -0.047007
C22   C     C_R   0.359254 0.363625 0.675631 -0.182474
C23   C     C_R   0.782917 0.405348 0.040016 -0.142139
C24   C     C_R   0.751160 0.629754 0.360422 0.412450
C25   C     C_R   0.640620 0.634410 0.324198 -0.166224
C26   C     C_R   0.541293 0.578179 0.377251 -0.155276
C27   C     C_R   0.551435 0.529035 0.471737 -0.047576
C28   C     C_R   0.004745 0.507825 0.328113 0.556588
C29   C     C_R   0.656096 0.510356 0.504158 0.099260
C30   C     C_R   0.454048 0.485586 0.531338 -0.014679
C31   C     C_R   0.461628 0.422712 0.622243 -0.050086
C32   C     C_R   0.567399 0.411091 0.655650 -0.129511
C33   C     C_R   0.648882 0.431656 0.592193 0.333722
C34   C     C_R   0.780756 0.401006 0.948595 -0.137749
C35   C     C_R   0.351347 0.507626 0.505679 0.198501
C36   C     C_R   0.250508 0.368205 0.637667 0.030566
C37   C     C_R   0.116281 0.586658 0.179931 0.262865
C38   C     C_R   0.007919 0.517836 0.228824 -0.012152
C39   C     C_R   0.897216 0.460592 0.180786 -0.187638
C40   C     C_R   0.893961 0.462284 0.087591 -0.003020
C41   C     C_R   0.003516 0.519522 0.041796 0.015894
C42   C     C_3   0.223560 0.762528 0.223006 0.017343
C43   C     C_3   0.240594 0.848042 0.128373 -0.430317
C44   C     C_3   0.506009 0.325237 0.283167 -0.023024
C45   C     C_R   0.889997 0.451804 0.903724 0.012224
C46   C     C_3   0.473168 0.397264 0.194782 -0.371874
C47   C     C_3   0.966468 0.084422 0.691210 0.021307
C48   C     C_3   0.067607 0.046877 0.712412 -0.365350
C49   C     C_3   0.518046 0.782655 0.696758 -0.010639
C50   C     C_3   0.438359 0.652489 0.730223 -0.359465
C51   C     C_3   0.804398 0.839491 0.567230 0.009898
C52   C     C_3   0.838278 0.740900 0.614805 -0.357200
C53   C     C_2   0.372118 0.622897 0.446372 0.602832
C54   C     C_3   0.838169 0.742258 0.217040 -0.031024
C55   C     C_3   0.951834 0.793214 0.164752 -0.383684
C56   C     C_R   0.001487 0.514760 0.949526 0.021287
C57   C     C_3   0.562213 0.245071 0.573437 -0.000501
C58   C     C_3   0.532183 0.131375 0.646009 -0.384466
C59   C     C_3   0.766160 0.243685 0.820919 -0.003780
C60   C     C_3   0.836511 0.204705 0.778132 -0.375743
C61   C     C_R   0.111233 0.570695 0.903939 0.001190
C62   C     C_R   0.221633 0.631852 0.950294 -0.150013
C63   C     C_R   0.223739 0.636490 0.041670 -0.122433
Cu1   Cu    Cu3+1 0.098270 0.475420 0.521130 1.010055
Cu2   Cu    Cu3+1 0.901730 0.524580 0.478870 1.017451
H1    H     H_    0.284831 0.076125 0.285574 0.155407
H2    H     H_    0.697864 0.362679 0.073947 0.131583
H3    H     H_    0.693468 0.355573 0.913784 0.133302
H4    H     H_    0.192219 0.611103 0.776357 0.110630
H5    H     H_    0.306573 0.675327 0.916137 0.099853
H6    H     H_    0.311042 0.683150 0.075852 0.152520
H7    H     H_    0.119071 0.887380 0.349041 0.143144
H8    H     H_    0.302139 0.807478 0.269070 0.188652
H9    H     H_    0.141611 0.744900 0.255106 0.133469
H10   H     H_    0.162254 0.812045 0.079010 0.139628
H11   H     H_    0.247376 0.930923 0.136103 0.112741
H12   H     H_    0.354902 0.816280 0.569595 0.171827
H13   H     H_    0.325868 0.867295 0.099922 0.151841
H14   H     H_    0.599446 0.381063 0.309020 0.143887
H15   H     H_    0.439826 0.299326 0.335589 0.127078
H16   H     H_    0.380993 0.343409 0.166272 0.159858
H17   H     H_    0.473009 0.473709 0.209561 0.102447
H18   H     H_    0.540777 0.428642 0.142479 0.146764
H19   H     H_    0.887280 0.015913 0.732098 0.142839
H20   H     H_    0.999042 0.164646 0.716061 0.112477
H21   H     H_    0.149399 0.115037 0.674694 0.152709
H22   H     H_    0.092631 0.032862 0.787950 0.081860
H23   H     H_    0.711810 0.268294 0.352872 0.132676
H24   H     H_    0.036527 0.964404 0.690716 0.168548
H25   H     H_    0.473737 0.831187 0.710868 0.084186
H26   H     H_    0.606958 0.805588 0.737603 0.164823
H27   H     H_    0.484700 0.602956 0.721825 0.176455
H28   H     H_    0.421704 0.632017 0.804532 0.076458
H29   H     H_    0.349650 0.625153 0.689241 0.176115
H30   H     H_    0.884152 0.913445 0.529887 0.153346
H31   H     H_    0.726198 0.806954 0.516271 0.186456
H32   H     H_    0.758424 0.663851 0.649053 0.167351
H33   H     H_    0.914333 0.768758 0.667762 0.143650
H34   H     H_    0.172811 0.324753 0.679432 0.126321
H35   H     H_    0.867617 0.716277 0.562834 0.142917
H36   H     H_    0.488179 0.793711 0.406431 0.329258
H37   H     H_    0.817540 0.815329 0.214418 0.123050
H38   H     H_    0.764271 0.677257 0.180068 0.120586
H39   H     H_    0.969447 0.721668 0.159249 0.154313
H40   H     H_    0.937821 0.840610 0.093535 0.095673
H41   H     H_    0.030682 0.855589 0.200087 0.139261
H42   H     H_    0.574454 0.235727 0.507201 0.155474
H43   H     H_    0.478573 0.258592 0.559196 0.098479
H44   H     H_    0.610927 0.111168 0.661919 0.141274
H45   H     H_    0.568189 0.354981 0.723525 0.151530
H46   H     H_    0.505953 0.137657 0.709686 0.127155
H47   H     H_    0.453203 0.058969 0.619966 0.103114
H48   H     H_    0.667712 0.185279 0.813127 0.137193
H49   H     H_    0.788908 0.230377 0.897027 0.111089
H50   H     H_    0.935251 0.250958 0.797378 0.123172
H51   H     H_    0.805012 0.109328 0.804548 0.063674
H52   H     H_    0.822046 0.224534 0.701660 0.188173
H53   H     H_    0.362212 0.311820 0.745081 0.090025
H54   H     H_    0.813259 0.412971 0.216584 0.130672
H55   H     H_    0.456358 0.574061 0.342012 0.153503
H56   H     H_    0.626917 0.678749 0.254249 0.081423
N1    N     N_R   0.246280 0.438190 0.553160 -0.256167
N2    N     N_R   0.754320 0.561190 0.447410 -0.237868
O1    O     O_R   0.972510 0.318130 0.526570 -0.456729
O2    O     O_3   0.500723 0.226085 0.263208 -0.577782
O3    O     O_3   0.941262 0.109826 0.594146 -0.527794
O4    O     O_3   0.530809 0.807233 0.600586 -0.509514
O5    O     O_3   0.773522 0.874110 0.634739 -0.561720
O6    O     O_2   0.297404 0.631698 0.385567 -0.471366
O7    O     O_R   0.482880 0.720940 0.454305 -0.681204
O8    O     O_3   0.856526 0.688243 0.310387 -0.519144
O9    O     O_3   0.671366 0.338110 0.600806 -0.483281
O10   O     O_3   0.786581 0.359375 0.775454 -0.542505
O11   O     O_R   0.806530 0.359650 0.490890 -0.471678
O12   O     O_R   0.082980 0.479210 0.647590 -0.546291
O13   O     O_R   0.917000 0.520730 0.611900 -0.457339
O14   O     O_R   0.193470 0.640350 0.509110 -0.475993
O15   O     O_R   0.027490 0.681870 0.473430 -0.487070
O16   O     O_R   0.083000 0.479270 0.388100 -0.435763
O17   O     O_R   0.917020 0.520790 0.352410 -0.483143
O18   O     O_3   0.224834 0.658162 0.220004 -0.530059

loop_
_geom_bond_atom_site_label_1
_geom_bond_atom_site_label_2
_ccdc_geom_bond_type
C1    C21   S    
C35   C53   S    
C58   H44   S    
C57   O9    S    
C16   O14   A    
C28   O17   A    
C49   H25   S    
C43   H13   S    
C54   O8    S    
C26   C27   A    
C62   C63   A    
C32   H45   S    
C13   C18   A    
C55   H40   S    
C58   H47   S    
C51   O5    S    
C47   H20   S    
C26   H55   S    
C30   C31   A    
C11   C14   A    
C39   H54   S    
C27   C29   A    
C23   C40   A    
C29   C33   A    
C52   H32   S    
C62   H5    S    
C15   C17   A    
C23   H2    S    
C12   C37   A    
C19   H12   S    
C5    H4    S    
C6    C15   A    
C46   H17   S    
Cu2   O17   S    
C47   C48   S    
C45   C56   A    
C8    C9    A    
C9    C10   A    
Cu2   O11   S    
C51   H31   S    
C4    O13   A    
H36   O7    S    
Cu1   O12   S    
C59   C60   S    
C27   C30   A    
C28   O16   A    
C49   H26   S    
C44   C46   S    
C8    C21   A    
Cu1   O14   S    
C35   N1    A    
C2    C45   A    
C43   H10   S    
C49   O4    S    
C44   O2    S    
C42   H9    S    
C9    O5    S    
C22   C31   A    
C55   H41   S    
C5    C61   A    
C58   H46   S    
C2    O10   S    
C54   H38   S    
C44   H15   S    
C24   C25   A    
C34   H3    S    
C39   C40   A    
C12   C63   A    
C50   H29   S    
C25   C26   A    
Cu1   O1    S    
C55   H39   S    
C59   O10   S    
C24   N2    A    
C18   H23   S    
C3    C4    S    
C51   C52   S    
C36   N1    A    
C41   C56   A    
C37   C38   A    
C46   H16   S    
C31   C32   A    
C28   C38   S    
C59   H48   S    
C23   C34   A    
C42   O18   S    
C17   C18   A    
C48   H22   S    
C13   C21   A    
C60   H52   S    
C34   C45   A    
C47   H19   S    
C37   O18   S    
C4    O12   A    
Cu2   O15   S    
C30   C35   A    
C33   O9    S    
C50   H27   S    
C40   C41   A    
C57   H42   S    
C63   H6    S    
C49   C50   S    
C7    C19   A    
C48   H24   S    
C48   H21   S    
C60   H51   S    
C53   O6    D    
C42   C43   S    
C10   O4    S    
C6    C20   A    
C47   O3    S    
C8    O3    S    
C43   H11   S    
C22   H53   S    
C54   C55   S    
C7    C16   S    
C42   H8    S    
C14   C15   A    
C14   C19   A    
C54   H37   S    
C44   H14   S    
C16   O15   A    
C3    C5    A    
C50   H28   S    
C12   C41   A    
C22   C36   A    
Cu1   Cu2   S    
C2    C3    A    
C1    O1    A    
C32   C33   A    
C11   C13   A    
C24   O8    S    
C17   O2    S    
C57   C58   S    
C38   C39   A    
C59   H49   S    
Cu1   N1    S    
C29   N2    A    
C52   H33   S    
C52   H35   S    
C36   H34   S    
Cu2   N2    S    
C61   C62   A    
Cu2   O13   S    
C10   C11   A    
C46   H18   S    
C6    H1    S    
C57   H43   S    
C7    C20   A    
C56   C61   A    
C20   H7    S    
C60   H50   S    
C53   O7    S    
C25   H56   S    
C1    O11   A    
C51   H30   S    
Cu1   O16   S    
