data_mof_unit_50967.cif
_audit_creation_date              2012-12-11T15:44:58-0500
_audit_creation_method            fapswitch 2.2
_symmetry_space_group_name_H-M    P1
_symmetry_Int_Tables_number       1
_space_group_crystal_system       triclinic
_cell_length_a                    19.093836
_cell_length_b                    10.919009
_cell_length_c                    18.736836
_cell_angle_alpha                 89.611084
_cell_angle_beta                  90.243515
_cell_angle_gamma                 90.26356
_cell_volume                      3906.19753992

loop_
_atom_site_label
_atom_site_type_symbol
_atom_type_description
_atom_site_fract_x
_atom_site_fract_y
_atom_site_fract_z
_atom_type_partial_charge
C1    C     C_R   0.760860 0.534947 0.646821 0.533861
C2    C     C_R   0.282027 0.010366 0.520386 -0.125941
C3    C     C_R   0.518977 0.951458 0.958186 0.024034
C4    C     C_R   0.010803 0.231444 0.958687 -0.183284
C5    C     C_R   0.011578 0.232026 0.033224 -0.176943
C6    C     C_R   0.510803 0.731444 0.958687 -0.183284
C7    C     C_R   0.511578 0.732027 0.033224 -0.176944
C8    C     C_3   0.984089 0.568103 0.038701 -0.283877
C9    C     C_3   0.978897 0.569389 0.958412 -0.275066
C10   C     C_3   0.484090 0.068103 0.038700 -0.283877
C11   C     C_3   0.478899 0.069390 0.958411 -0.275066
C12   C     C_R   0.760868 0.530678 0.852957 0.542863
C13   C     C_R   0.325820 0.588728 0.447923 -0.161888
C14   C     C_R   0.237358 0.525411 0.145110 0.545002
C15   C     C_R   0.260868 0.030678 0.852957 0.542863
C16   C     C_R   0.737358 0.025412 0.145111 0.545001
C17   C     C_R   0.771938 0.122864 0.851966 0.556400
C18   C     C_R   0.227711 0.125684 0.147024 0.559231
C19   C     C_R   0.271938 0.622864 0.851966 0.556400
C20   C     C_R   0.727711 0.625684 0.147024 0.559230
C21   C     C_R   0.971471 0.347158 0.852738 0.545815
C22   C     C_R   0.031490 0.347176 0.145149 0.541849
C23   C     C_R   0.471471 0.847158 0.852738 0.545813
C24   C     C_R   0.782012 0.510342 0.520385 -0.125934
C25   C     C_R   0.531490 0.847176 0.145149 0.541850
C26   C     C_R   0.759292 0.107002 0.416554 0.003802
C27   C     C_R   0.252396 0.079375 0.575434 0.034552
C28   C     C_R   0.259290 0.607000 0.416555 0.003804
C29   C     C_R   0.752395 0.579370 0.575433 0.034557
C30   C     C_R   0.710821 0.176281 0.454556 0.012586
C31   C     C_R   0.202458 0.167720 0.559405 0.010499
C32   C     C_R   0.210816 0.676270 0.454559 0.012589
C33   C     C_R   0.702470 0.667741 0.559407 0.010486
C34   C     C_R   0.722326 0.202261 0.526035 0.026198
C35   C     C_3   0.634090 0.158959 0.465369 -0.255741
C36   C     C_R   0.188905 0.198136 0.488921 0.014488
C37   C     C_R   0.222322 0.702252 0.526037 0.026210
C38   C     C_R   0.688914 0.698156 0.488922 0.014473
C39   C     C_3   0.948960 0.917817 0.136854 -0.288233
C40   C     C_3   0.065449 0.868554 0.869515 -0.285946
C41   C     C_3   0.448960 0.417817 0.136854 -0.288234
C42   C     C_3   0.565450 0.368554 0.869515 -0.285944
C43   C     C_3   0.201063 0.298556 0.581994 -0.280677
C44   C     C_3   0.134086 0.658931 0.465374 -0.255739
C45   C     C_3   0.701103 0.798584 0.581992 -0.280664
C46   C     C_3   0.647008 0.184142 0.543975 -0.262989
C47   C     C_3   0.186501 0.331494 0.504700 -0.280915
C48   C     C_3   0.147005 0.684120 0.543979 -0.262993
C49   C     C_R   0.239943 0.535404 0.353400 0.529541
C50   C     C_3   0.686536 0.831519 0.504699 -0.280903
C51   C     C_R   0.782722 0.161618 0.561551 0.000555
C52   C     C_R   0.223445 0.138564 0.433856 0.033359
C53   C     C_R   0.282721 0.661619 0.561551 0.000556
C54   C     C_R   0.723443 0.638563 0.433856 0.033358
C55   C     C_R   0.989889 0.329330 0.420908 -0.042420
C56   C     C_R   0.996258 0.347016 0.571003 -0.045448
C57   C     C_R   0.489896 0.829334 0.420913 -0.042414
C58   C     C_R   0.496268 0.847019 0.571008 -0.045443
C59   C     C_R   0.006982 0.104879 0.432500 -0.083774
C60   C     C_R   0.260860 0.034948 0.646821 0.533861
C61   C     C_R   0.031487 0.130321 0.578124 -0.086541
C62   C     C_R   0.506991 0.604882 0.432507 -0.083779
C63   C     C_R   0.531499 0.630328 0.578130 -0.086536
C64   C     C_R   0.024963 0.003146 0.473826 -0.130512
C65   C     C_R   0.038593 0.016428 0.546228 -0.120259
C66   C     C_R   0.524973 0.503151 0.473833 -0.130511
C67   C     C_R   0.538605 0.516435 0.546235 -0.120255
C68   C     C_R   0.009687 0.233564 0.537987 -0.007595
C69   C     C_R   0.002263 0.222759 0.463056 0.007889
C70   C     C_R   0.509699 0.733570 0.537992 -0.007590
C71   C     C_R   0.739944 0.035406 0.353400 0.529539
C72   C     C_R   0.502273 0.722764 0.463061 0.007888
C73   C     C_R   0.983454 0.453157 0.527241 0.004583
C74   C     C_R   0.969070 0.437799 0.454273 0.000083
C75   C     C_R   0.483466 0.953161 0.527246 0.004581
C76   C     C_R   0.469081 0.937805 0.454278 0.000080
C77   C     C_R   0.791647 0.172675 0.638941 0.563944
C78   C     C_R   0.208559 0.170900 0.361123 0.563942
C79   C     C_R   0.291647 0.672676 0.638941 0.563945
C80   C     C_R   0.708559 0.670900 0.361123 0.563941
C81   C     C_R   0.983976 0.575294 0.553279 -0.075911
C82   C     C_R   0.837125 0.114780 0.519976 -0.166330
C83   C     C_R   0.939522 0.535470 0.414457 -0.084144
C84   C     C_R   0.483988 0.075297 0.553286 -0.075916
C85   C     C_R   0.439534 0.035478 0.414464 -0.084152
C86   C     C_R   0.957576 0.672203 0.512621 -0.131606
C87   C     C_R   0.932944 0.651366 0.444011 -0.118389
C88   C     C_R   0.457590 0.172208 0.512629 -0.131600
C89   C     C_R   0.432958 0.151374 0.444019 -0.118393
C90   C     C_R   0.741715 0.048726 0.069000 -0.003366
C91   C     C_R   0.252930 0.062189 0.927565 -0.001854
C92   C     C_R   0.241714 0.548724 0.069000 -0.003366
C93   C     C_R   0.266957 0.039097 0.449545 -0.128335
C94   C     C_R   0.752930 0.562190 0.927565 -0.001854
C95   C     C_R   0.797426 0.995994 0.032944 0.074886
C96   C     C_R   0.210187 0.985043 0.968528 0.093970
C97   C     C_R   0.297426 0.495994 0.032944 0.074885
C98   C     C_R   0.710187 0.485044 0.968528 0.093971
C99   C     C_R   0.802739 0.007384 0.960229 -0.009223
C100  C     C_R   0.209041 0.992820 0.042054 -0.010510
C101  C     C_R   0.302739 0.507384 0.960229 -0.009223
C102  C     C_R   0.709041 0.492821 0.042054 -0.010511
C103  C     C_R   0.688956 0.099591 0.953920 -0.146325
C104  C     C_R   0.337126 0.614791 0.519974 -0.166330
C105  C     C_R   0.297280 0.151393 0.036877 -0.171920
C106  C     C_R   0.188955 0.599590 0.953920 -0.146325
C107  C     C_R   0.797279 0.651394 0.036876 -0.171920
C108  C     C_R   0.684324 0.091973 0.028666 -0.155192
C109  C     C_R   0.298835 0.142561 0.962440 -0.182966
C110  C     C_R   0.184324 0.591971 0.028666 -0.155193
C111  C     C_R   0.798835 0.642562 0.962439 -0.182967
C112  C     C_3   0.873857 0.016265 0.045513 0.009726
C113  C     C_3   0.132249 0.972882 0.963537 0.015828
C114  C     C_3   0.373857 0.516265 0.045514 0.009726
C115  C     C_R   0.766942 0.539075 0.449544 -0.128328
C116  C     C_3   0.632248 0.472884 0.963537 0.015828
C117  C     C_3   0.879478 0.032457 0.965383 -0.244044
C118  C     C_3   0.131672 0.972305 0.044267 -0.249774
C119  C     C_3   0.379478 0.532458 0.965383 -0.244043
C120  C     C_3   0.631672 0.472306 0.044267 -0.249773
C121  C     C_R   0.751763 0.069320 0.920295 0.004670
C122  C     C_R   0.248982 0.082037 0.077084 -0.000625
C123  C     C_R   0.251763 0.569320 0.920295 0.004671
C124  C     C_R   0.748982 0.582038 0.077083 -0.000625
C125  C     C_R   0.970861 0.347883 0.645873 0.521501
C126  C     C_R   0.825820 0.088719 0.447924 -0.161897
C127  C     C_R   0.026265 0.343901 0.351629 0.522884
C128  C     C_R   0.470863 0.847884 0.645875 0.521500
C129  C     C_R   0.526267 0.843901 0.351631 0.522887
C130  C     C_R   0.014389 0.343038 0.070121 0.019949
C131  C     C_R   0.006785 0.342265 0.921115 0.015721
C132  C     C_R   0.514389 0.843038 0.070121 0.019949
C133  C     C_R   0.506785 0.842265 0.921115 0.015720
C134  C     C_R   0.023033 0.450990 0.031190 0.043231
C135  C     C_R   0.018977 0.451458 0.958186 0.024034
C136  C     C_R   0.523033 0.950990 0.031190 0.043231
Cr1   Cr    Cr6+3 0.885860 0.491680 0.749630 0.996126
Cr2   Cr    Cr6+3 0.112430 0.179310 0.249850 0.987719
Cr3   Cr    Cr6+3 0.387570 0.679310 0.750150 0.987918
Cr4   Cr    Cr6+3 0.612430 0.679310 0.249850 0.987718
Cr5   Cr    Cr6+3 0.114140 0.491680 0.250370 1.001617
Cr6   Cr    Cr6+3 0.385860 0.991680 0.749630 0.996127
Cr7   Cr    Cr6+3 0.614140 0.991680 0.250370 1.001616
Cr8   Cr    Cr6+3 0.730490 0.332970 0.748720 1.002396
Cr9   Cr    Cr6+3 0.269510 0.332970 0.251280 0.999032
Cr10  Cr    Cr6+3 0.230490 0.832970 0.748720 1.002399
Cr11  Cr    Cr6+3 0.769510 0.832970 0.251280 0.999029
Cr12  Cr    Cr6+3 0.887570 0.179310 0.750150 0.987916
H1    H     H_    0.886231 0.088552 0.544377 0.158029
H2    H     H_    0.329490 0.219633 0.062328 0.176091
H3    H     H_    0.146053 0.635450 0.922805 0.147628
H4    H     H_    0.829489 0.719634 0.062327 0.176092
H5    H     H_    0.637359 0.122614 0.054795 0.131789
H6    H     H_    0.334405 0.200323 0.932265 0.125949
H7    H     H_    0.137358 0.622611 0.054794 0.131790
H8    H     H_    0.834404 0.700324 0.932265 0.125949
H9    H     H_    0.885027 0.100589 0.076756 0.128390
H10   H     H_    0.108530 0.055385 0.938800 0.128554
H11   H     H_    0.385026 0.600589 0.076757 0.128390
H12   H     H_    0.290221 0.986021 0.407233 0.128852
H13   H     H_    0.608529 0.555387 0.938800 0.128554
H14   H     H_    0.889946 0.128751 0.949982 0.148877
H15   H     H_    0.103306 0.051202 0.065407 0.148555
H16   H     H_    0.389946 0.628752 0.949982 0.148877
H17   H     H_    0.603307 0.551203 0.065407 0.148555
H18   H     H_    0.910597 0.962616 0.937077 0.125076
H19   H     H_    0.118512 0.883480 0.070427 0.121581
H20   H     H_    0.410597 0.462618 0.937077 0.125077
H21   H     H_    0.618511 0.383481 0.070427 0.121581
H22   H     H_    0.004611 0.145560 0.931049 0.118809
H23   H     H_    0.386234 0.588573 0.544374 0.158026
H24   H     H_    0.006585 0.147012 0.062018 0.122396
H25   H     H_    0.504611 0.645560 0.931049 0.118810
H26   H     H_    0.506584 0.647012 0.062018 0.122396
H27   H     H_    0.016882 0.643654 0.060186 0.125470
H28   H     H_    0.924436 0.557681 0.939460 0.177795
H29   H     H_    0.516884 0.143654 0.060186 0.125470
H30   H     H_    0.424438 0.057682 0.939459 0.177795
H31   H     H_    0.932859 0.555314 0.065737 0.144591
H32   H     H_    0.008230 0.645475 0.932869 0.122278
H33   H     H_    0.432860 0.055315 0.065737 0.144591
H34   H     H_    0.790198 0.485986 0.407232 0.128854
H35   H     H_    0.508232 0.145475 0.932868 0.122278
H36   H     H_    0.866493 0.040760 0.419623 0.139653
H37   H     H_    0.316523 0.934295 0.532338 0.123369
H38   H     H_    0.366495 0.540778 0.419620 0.139650
H39   H     H_    0.816499 0.434256 0.532336 0.123358
H40   H     H_    0.115800 0.564401 0.454482 0.159589
H41   H     H_    0.752855 0.832055 0.601405 0.154583
H42   H     H_    0.615797 0.064434 0.454474 0.159599
H43   H     H_    0.252804 0.332057 0.601417 0.154582
H44   H     H_    0.603186 0.231709 0.438270 0.142412
H45   H     H_    0.956565 0.763697 0.534428 0.106681
H46   H     H_    0.156273 0.318044 0.617818 0.133708
H47   H     H_    0.103176 0.731674 0.438276 0.142418
H48   H     H_    0.656320 0.818106 0.617822 0.133712
H49   H     H_    0.622417 0.269754 0.562626 0.138193
H50   H     H_    0.133527 0.369722 0.495878 0.135549
H51   H     H_    0.122408 0.769728 0.562631 0.138187
H52   H     H_    0.633566 0.869775 0.495885 0.135543
H53   H     H_    0.638273 0.102542 0.578720 0.139729
H54   H     H_    0.230061 0.382855 0.479288 0.148219
H55   H     H_    0.138275 0.602519 0.578726 0.139734
H56   H     H_    0.911285 0.725926 0.412724 0.121904
H57   H     H_    0.730103 0.882854 0.479278 0.148232
H58   H     H_    0.028247 0.913834 0.449491 0.103139
H59   H     H_    0.053572 0.938209 0.578290 0.103994
H60   H     H_    0.528255 0.413839 0.449499 0.103137
H61   H     H_    0.553582 0.438217 0.578298 0.103994
H62   H     H_    0.993673 0.088873 0.377212 0.127772
H63   H     H_    0.044684 0.137170 0.634152 0.127258
H64   H     H_    0.493681 0.588874 0.377219 0.127774
H65   H     H_    0.544696 0.637180 0.634158 0.127254
H66   H     H_    0.922508 0.522364 0.359787 0.125466
H67   H     H_    0.456579 0.263700 0.534438 0.106686
H68   H     H_    0.007285 0.599234 0.603923 0.136647
H69   H     H_    0.422518 0.022374 0.359795 0.125469
H70   H     H_    0.507297 0.099233 0.603930 0.136644
H71   H     H_    0.929644 0.848381 0.035088 0.240366
H72   H     H_    0.959459 0.825391 0.159409 0.130518
H73   H     H_    0.920627 0.971843 0.177465 0.172488
H74   H     H_    0.999691 0.962831 0.124968 0.120492
H75   H     H_    0.089565 0.795509 0.968297 0.231168
H76   H     H_    0.063800 0.779411 0.841426 0.133476
H77   H     H_    0.085554 0.939079 0.831868 0.173776
H78   H     H_    0.411299 0.225935 0.412733 0.121902
H79   H     H_    0.011548 0.893474 0.885274 0.102254
H80   H     H_    0.429644 0.348381 0.035087 0.240366
H81   H     H_    0.459459 0.325391 0.159409 0.130517
H82   H     H_    0.420627 0.471841 0.177465 0.172488
H83   H     H_    0.499691 0.462831 0.124968 0.120492
H84   H     H_    0.589564 0.295511 0.968297 0.231168
H85   H     H_    0.563806 0.279415 0.841422 0.133481
H86   H     H_    0.585551 0.439087 0.831870 0.173770
H87   H     H_    0.511546 0.393463 0.885273 0.102253
H88   H     H_    0.646054 0.135453 0.922806 0.147628
N1    N     N_2   0.907819 0.905889 0.072292 -0.509549
N2    N     N_2   0.109568 0.858019 0.932282 -0.489390
N3    N     N_2   0.407819 0.405889 0.072291 -0.509549
N4    N     N_2   0.609568 0.358020 0.932282 -0.489392
O1    O     O_R   0.957020 0.451640 0.669920 -0.527130
O2    O     O_R   0.168040 0.093290 0.169870 -0.525493
O3    O     O_R   0.331960 0.593290 0.830130 -0.523338
O4    O     O_R   0.668040 0.593290 0.169870 -0.525493
O5    O     O_R   0.945600 0.250580 0.824860 -0.511746
O6    O     O_R   0.054400 0.250580 0.175140 -0.515182
O7    O     O_R   0.445600 0.750580 0.824860 -0.511747
O8    O     O_R   0.554400 0.750580 0.175140 -0.515181
O9    O     O_3   0.834640 0.334650 0.749500 -0.260822
O10   O     O_3   0.165360 0.334650 0.250500 -0.260532
O11   O     O_3   0.334640 0.834650 0.749500 -0.260823
O12   O     O_R   0.042980 0.451640 0.330080 -0.518717
O13   O     O_3   0.665360 0.834650 0.250500 -0.260531
O14   O     O_R   0.821450 0.543440 0.674610 -0.500314
O15   O     O_R   0.178550 0.543440 0.325390 -0.496958
O16   O     O_R   0.321450 0.043440 0.674610 -0.500314
O17   O     O_R   0.678550 0.043440 0.325390 -0.496959
O18   O     O_R   0.715320 0.458650 0.668100 -0.531908
O19   O     O_R   0.284680 0.458650 0.331900 -0.540746
O20   O     O_R   0.215320 0.958650 0.668100 -0.531904
O21   O     O_R   0.784680 0.958650 0.331900 -0.540752
O22   O     O_R   0.737170 0.209590 0.674530 -0.504285
O23   O     O_R   0.457020 0.951640 0.669920 -0.527131
O24   O     O_R   0.262830 0.209590 0.325470 -0.510547
O25   O     O_R   0.237170 0.709590 0.674530 -0.504284
O26   O     O_R   0.762830 0.709590 0.325470 -0.510548
O27   O     O_R   0.832710 0.092740 0.669580 -0.522451
O28   O     O_R   0.167290 0.092740 0.330420 -0.512413
O29   O     O_R   0.332710 0.592740 0.669580 -0.522446
O30   O     O_R   0.667290 0.592740 0.330420 -0.512417
O31   O     O_R   0.946290 0.250060 0.676040 -0.519589
O32   O     O_R   0.053710 0.250060 0.323960 -0.521722
O33   O     O_R   0.446290 0.750060 0.676040 -0.519588
O34   O     O_R   0.542980 0.951640 0.330080 -0.518719
O35   O     O_R   0.553710 0.750060 0.323960 -0.521723
O36   O     O_R   0.956270 0.452200 0.830470 -0.525367
O37   O     O_R   0.043730 0.452200 0.169530 -0.519294
O38   O     O_R   0.456270 0.952200 0.830470 -0.525368
O39   O     O_R   0.543730 0.952200 0.169530 -0.519294
O40   O     O_R   0.820760 0.543950 0.823440 -0.509776
O41   O     O_R   0.179240 0.543950 0.176560 -0.505927
O42   O     O_R   0.320760 0.043950 0.823440 -0.509775
O43   O     O_R   0.679240 0.043950 0.176560 -0.505928
O44   O     O_R   0.714570 0.459210 0.828640 -0.502839
O45   O     O_R   0.736470 0.210100 0.823360 -0.482440
O46   O     O_R   0.285430 0.459210 0.171360 -0.503360
O47   O     O_R   0.214570 0.959210 0.828640 -0.502841
O48   O     O_R   0.785430 0.959210 0.171360 -0.503360
O49   O     O_R   0.263530 0.210100 0.176640 -0.494972
O50   O     O_R   0.236470 0.710100 0.823360 -0.482439
O51   O     O_R   0.763530 0.710100 0.176640 -0.494972
O52   O     O_R   0.831960 0.093290 0.830130 -0.523338

loop_
_geom_bond_atom_site_label_1
_geom_bond_atom_site_label_2
_ccdc_geom_bond_type
Cr1   O40   S    
C103  H88   S    
C33   C45   S    
C74   C83   A    
C25   O39   A    
Cr3   O7    S    
C22   O37   A    
C90   C95   A    
Cr2   O32   S    
Cr3   O29   S    
C48   H55   S    
C35   H44   S    
C125  O31   A    
C43   H46   S    
C57   C76   A    
C86   H45   S    
C49   O15   A    
C95   C99   A    
C81   H68   S    
C29   C33   A    
C94   C111  A    
C36   C47   S    
C26   C126  A    
C91   C96   A    
C55   C74   A    
C108  H5    S    
C41   H83   S    
C47   H50   S    
C15   O47   A    
Cr6   O11   S    
C12   O40   A    
C81   C86   A    
C59   H62   S    
C19   O3    A    
C99   C121  A    
Cr1   O1    S    
C22   C130  S    
C26   C71   S    
C129  O34   A    
C130  C134  A    
C107  C124  A    
C73   C81   A    
C23   O38   A    
C8    H27   S    
C48   H51   S    
C27   C31   A    
C28   C32   A    
C42   N4    S    
C58   C70   A    
Cr11  O51   S    
C98   C102  A    
Cr4   O4    S    
C101  C119  S    
C75   C76   A    
Cr2   O6    S    
Cr9   O10   S    
C117  H18   S    
Cr9   O24   S    
C1    C29   S    
C109  H6    S    
C7    C132  A    
C84   H70   S    
C12   O44   A    
C104  H23   S    
C5    C130  A    
C17   O52   A    
C35   H42   S    
Cr6   O23   S    
C103  C121  A    
C21   O36   A    
C87   H56   S    
C1    O14   A    
C1    O18   A    
C56   C73   A    
C78   O24   A    
C84   C88   A    
C4    C5    A    
C6    C7    A    
Cr7   O43   S    
C33   C38   A    
Cr10  O11   S    
C95   C112  S    
C60   O20   A    
Cr6   O42   S    
C83   H66   S    
H71   N1    S    
C45   C50   S    
Cr12  O5    S    
C67   H61   S    
C128  O33   A    
C3    C11   S    
C15   C91   S    
C61   C65   A    
C88   C89   A    
C62   H64   S    
C31   C36   A    
Cr4   O13   S    
C43   C47   S    
C76   C85   A    
C44   C48   S    
Cr8   O9    S    
C58   C128  S    
Cr9   O19   S    
Cr10  O20   S    
C89   H78   S    
C30   C34   A    
C19   C123  S    
C34   C51   A    
C79   O29   A    
C4    H22   S    
C9    H28   S    
C24   H39   S    
C80   O26   A    
Cr12  O27   S    
C120  H21   S    
C53   C104  A    
C118  H19   S    
C60   O16   A    
Cr6   O16   S    
C3    C136  A    
C28   C49   S    
C128  O23   A    
C40   N2    S    
C110  H7    S    
C46   H53   S    
C82   C126  A    
C19   O50   A    
Cr7   O34   S    
C39   H74   S    
C34   C46   S    
Cr11  O21   S    
Cr3   O3    S    
C114  C119  S    
C36   C52   A    
C37   C53   A    
C45   H48   S    
C66   C67   A    
C92   C97   A    
C14   O41   A    
C62   C66   A    
C8    C134  S    
C116  H13   S    
C22   O6    A    
C56   C68   A    
Cr11  O13   S    
C116  C120  S    
C47   H54   S    
Cr10  O25   S    
C99   C117  S    
C42   H87   S    
C132  C136  A    
C52   C93   A    
C32   C37   A    
C55   C69   A    
C9    C135  S    
C113  N2    S    
C55   C127  S    
C26   C30   A    
C107  H4    S    
C39   N1    S    
C115  H34   S    
C10   H33   S    
C105  C109  A    
Cr4   O8    S    
C10   H29   S    
C107  C111  A    
C41   H81   S    
Cr2   O10   S    
C119  H16   S    
C134  C135  A    
C65   H59   S    
C117  H14   S    
C71   O17   A    
C2    H37   S    
C90   C108  A    
C49   O19   A    
C92   C110  A    
C14   O46   A    
C96   C100  A    
C5    H24   S    
C105  C122  A    
C23   O7    A    
C20   C124  S    
C82   H1    S    
C10   C11   S    
C25   O8    A    
C41   H82   S    
Cr7   O13   S    
Cr3   O33   S    
C15   O42   A    
C97   C114  S    
C25   C132  S    
C83   C87   A    
C16   C90   S    
C88   H67   S    
C73   C74   A    
Cr7   O17   S    
Cr8   O22   S    
Cr6   O38   S    
C105  H2    S    
Cr12  O9    S    
Cr4   O35   S    
C6    C133  A    
C27   C60   S    
C112  C117  S    
C42   H85   S    
C102  C124  A    
C94   C98   A    
Cr12  O52   S    
C7    H26   S    
C127  O12   A    
C24   C29   A    
C21   C131  S    
C68   C69   A    
C13   C28   A    
C2    C27   A    
Cr1   O14   S    
C18   O2    A    
Cr5   O10   S    
Cr12  O31   S    
C12   C94   S    
Cr11  O26   S    
C52   C78   S    
C120  H17   S    
C54   C80   S    
C118  H15   S    
C112  H9    S    
C77   O22   A    
C85   C89   A    
C86   C87   A    
C46   H49   S    
C64   H58   S    
C93   H12   S    
C51   C77   S    
C66   H60   S    
C38   C54   A    
C54   C115  A    
C56   C125  S    
C13   C104  A    
Cr5   O41   S    
Cr9   O49   S    
C17   C121  S    
C59   C69   A    
C96   C113  S    
C129  O35   A    
C100  C118  S    
C102  C120  S    
C41   N3    S    
C20   O4    A    
C44   H47   S    
C13   H38   S    
Cr1   O9    S    
C6    H25   S    
Cr1   O36   S    
C64   C65   A    
C16   O43   A    
C8    H31   S    
Cr2   O28   S    
Cr4   O30   S    
C57   C72   A    
C75   C84   A    
C106  H3    S    
C112  N1    S    
Cr5   O12   S    
C39   H73   S    
C35   C46   S    
C119  H20   S    
C114  N3    S    
C71   O21   A    
Cr10  O50   S    
C31   C43   S    
C126  H36   S    
C59   C64   A    
C101  C123  A    
C30   C35   S    
C40   H76   S    
C57   C129  S    
C53   C79   S    
C10   C136  S    
C131  C135  A    
C61   H63   S    
C40   H77   S    
C85   H69   S    
C8    C9    S    
C106  C123  A    
Cr8   O44   S    
C125  O1    A    
C103  C108  A    
Cr10  O47   S    
C113  H10   S    
C16   O48   A    
Cr8   O18   S    
C111  H8    S    
C100  C122  A    
Cr2   O2    S    
C43   H43   S    
C58   C75   A    
C4    C131  A    
C18   O49   A    
C63   C67   A    
C23   C133  S    
Cr5   O15   S    
C39   H72   S    
C11   H35   S    
H80   N3    S    
C50   H52   S    
C21   O5    A    
C77   O27   A    
C3    C133  A    
C78   O28   A    
Cr9   O46   S    
C17   O45   A    
C98   C116  S    
C63   C70   A    
Cr7   O39   S    
C32   C44   S    
C62   C72   A    
C11   H30   S    
C63   H65   S    
C37   C48   S    
C51   C82   A    
C14   C92   S    
C9    H32   S    
C44   H40   S    
Cr11  O48   S    
C45   H41   S    
C18   C122  S    
C127  O32   A    
C106  C110  A    
Cr8   O45   S    
C20   O51   A    
C2    C93   A    
Cr3   O11   S    
H75   N2    S    
C38   C50   S    
C116  N4    S    
C91   C109  A    
C40   H79   S    
Cr5   O37   S    
C42   H86   S    
C61   C68   A    
C79   O25   A    
C80   O30   A    
C114  H11   S    
C113  C118  S    
C50   H57   S    
C24   C115  A    
H84   N4    S    
C70   C72   A    
C97   C101  A    
