data_mof_unit_39085.cif
_audit_creation_date              2012-12-11T14:44:20-0500
_audit_creation_method            fapswitch 2.2
_symmetry_space_group_name_H-M    P1
_symmetry_Int_Tables_number       1
_space_group_crystal_system       triclinic
_cell_length_a                    24.990193
_cell_length_b                    16.863403
_cell_length_c                    15.612283
_cell_angle_alpha                 90.146442
_cell_angle_beta                  49.861
_cell_angle_gamma                 89.779153
_cell_volume                      5029.63287396

loop_
_atom_site_label
_atom_site_type_symbol
_atom_type_description
_atom_site_fract_x
_atom_site_fract_y
_atom_site_fract_z
_atom_type_partial_charge
C1    C     C_R   0.351999 0.146407 0.758349 -0.049213
C2    C     C_3   0.780492 0.744728 0.475015 -0.117942
C3    C     C_2   0.844069 0.071872 0.368216 1.045251
C4    C     C_2   0.264221 0.374542 0.460761 1.081940
C5    C     C_2   0.644212 0.640867 0.716392 0.997190
C6    C     C_2   0.698108 0.344951 0.634696 1.050026
C7    C     C_2   0.354594 0.639938 0.327105 1.022999
C8    C     C_2   0.230845 0.152155 0.323680 1.056509
C9    C     C_2   0.840101 0.790862 0.451440 1.034258
C10   C     C_2   0.828728 0.125062 0.585294 1.054059
C11   C     C_2   0.161800 0.793409 0.458379 1.064610
C12   C     C_2   0.612480 0.621670 0.544663 1.043952
C13   C     C_3   0.798514 0.168757 0.541647 -0.111111
C14   C     C_2   0.221649 0.276898 0.670367 1.019190
C15   C     C_2   0.342303 0.694252 0.539174 1.043119
C16   C     C_2   0.719769 0.298359 0.417056 1.063978
C17   C     C_2   0.344948 0.751005 0.982233 1.073744
C18   C     C_2   0.579411 0.339067 0.217693 1.061554
C19   C     C_2   0.662528 0.771990 0.992195 1.074454
C20   C     C_2   0.368313 0.274147 0.942413 1.032527
C21   C     C_2   0.843703 0.285936 0.010980 1.054898
C22   C     C_2   0.163128 0.726306 0.990642 1.054064
C23   C     C_2   0.163864 0.271724 0.993709 1.085026
C24   C     C_3   0.208863 0.768418 0.482329 -0.126128
C25   C     C_2   0.881608 0.788685 0.915413 1.050322
C26   C     C_3   0.672964 0.665512 0.520353 -0.109849
C27   C     C_3   0.223751 0.241571 0.580167 -0.105643
C28   C     C_3   0.293769 0.720516 0.519089 -0.072863
C29   C     C_3   0.748951 0.250483 0.459730 -0.136702
C30   C     C_2   0.629425 0.272105 0.179805 -0.154371
C31   C     C_2   0.344794 0.754222 0.887004 -0.171685
C32   C     C_2   0.356076 0.260044 0.861907 -0.085188
C33   C     C_R   0.664628 0.883999 0.199563 -0.108504
C34   C     C_2   0.690450 0.832390 0.023415 -0.133477
C35   C     C_2   0.190767 0.669845 0.027176 -0.157506
C36   C     C_2   0.811641 0.336525 0.975596 -0.177579
C37   C     C_2   0.860785 0.766276 0.848154 -0.105937
C38   C     C_2   0.191533 0.334005 0.022956 -0.140210
C39   C     C_2   0.699323 0.275937 0.101813 -0.144169
C40   C     C_2   0.313497 0.699135 0.869791 -0.132239
C41   C     C_2   0.313810 0.307019 0.858259 -0.102977
C42   C     C_2   0.758447 0.853742 0.954956 -0.199218
C43   C     C_2   0.258873 0.648042 0.960725 -0.146499
C44   C     C_R   0.639575 0.151838 0.261621 -0.116276
C45   C     C_2   0.742002 0.344037 0.037518 -0.071109
C46   C     C_2   0.812549 0.808350 0.853650 -0.087311
C47   C     C_2   0.259438 0.355231 0.955174 -0.221208
C48   C     C_R   0.613651 0.108138 0.593530 -0.064400
C49   C     C_R   0.386909 0.887843 0.407678 -0.018019
C50   C     C_R   0.387547 0.113740 0.407221 -0.070596
C51   C     C_R   0.594646 0.855791 0.590453 -0.105789
C52   C     C_R   0.115273 0.605366 0.591860 -0.027048
C53   C     C_R   0.910741 0.353795 0.405925 -0.062667
C54   C     C_R   0.883678 0.602236 0.408479 -0.068832
C55   C     C_R   0.347200 0.859525 0.769250 -0.099266
C56   C     C_R   0.086546 0.350847 0.592091 -0.075227
C57   C     C_R   0.689164 0.106309 0.407178 -0.138370
C58   C     C_R   0.312129 0.889637 0.594251 -0.154978
C59   C     C_R   0.312186 0.112438 0.593796 -0.148670
C60   C     C_R   0.667096 0.856137 0.403614 -0.066519
C61   C     C_R   0.189624 0.604531 0.405988 -0.123950
C62   C     C_R   0.836459 0.353715 0.593195 -0.109071
C63   C     C_R   0.809393 0.601692 0.594387 -0.120326
C64   C     C_R   0.161896 0.352081 0.405489 -0.095556
C65   C     C_R   0.553274 0.147437 0.254474 -0.068344
C66   C     C_R   0.853716 0.648105 0.753425 -0.070963
C67   C     C_R   0.433291 0.866210 0.776844 -0.043295
C68   C     C_R   0.440190 0.141601 0.761522 -0.050243
C69   C     C_R   0.574865 0.886168 0.201414 -0.060497
C70   C     C_R   0.075039 0.615142 0.202284 -0.048538
C71   C     C_R   0.924392 0.390599 0.800581 -0.065486
C72   C     C_R   0.942138 0.644201 0.755919 -0.041534
C73   C     C_R   0.076093 0.388351 0.199402 -0.109388
C74   C     C_R   0.382734 0.186486 0.794701 0.057184
C75   C     C_R   0.643950 0.862605 0.139070 0.051129
C76   C     C_R   0.605031 0.195132 0.235078 0.075134
C77   C     C_R   0.165034 0.384918 0.199287 -0.085894
C78   C     C_R   0.374587 0.823517 0.813228 0.070613
C79   C     C_R   0.885673 0.690143 0.786170 0.063389
C80   C     C_R   0.144982 0.364839 0.137783 0.060586
C81   C     C_R   0.143436 0.640589 0.142895 0.071062
C82   C     C_R   0.856001 0.367634 0.862133 0.072911
C83   C     C_R   0.680551 0.124852 0.500723 0.107903
C84   C     C_R   0.320537 0.868214 0.501811 0.082338
C85   C     C_R   0.322042 0.136173 0.500642 0.109078
C86   C     C_R   0.646879 0.814225 0.494933 0.140661
C87   C     C_R   0.182476 0.621549 0.498443 0.043951
C88   C     C_R   0.163613 0.619081 0.203982 -0.110843
C89   C     C_R   0.859267 0.311369 0.499342 0.084923
C90   C     C_R   0.815505 0.614518 0.502404 0.090790
C91   C     C_R   0.136607 0.306850 0.497869 0.117265
C92   C     C_3   0.291253 0.221485 0.398133 -0.186205
C93   C     C_3   0.703381 0.763615 0.573340 -0.201563
C94   C     C_3   0.719917 0.187369 0.607459 -0.169227
C95   C     C_3   0.288620 0.782134 0.400863 -0.202753
C96   C     C_3   0.751189 0.645548 0.421548 -0.166299
C97   C     C_3   0.160671 0.204447 0.598428 -0.189078
C98   C     C_3   0.213968 0.706832 0.600808 -0.182282
C99   C     C_R   0.835372 0.386000 0.800770 -0.111486
C100  C     C_3   0.827027 0.231489 0.393692 -0.182479
C101  C     C_3   0.766109 0.734979 0.394229 -0.138024
C102  C     C_3   0.209066 0.136585 0.516011 -0.112660
C103  C     C_3   0.201925 0.793349 0.583840 -0.155781
C104  C     C_3   0.807906 0.145301 0.437033 -0.118405
C105  C     C_3   0.243592 0.288787 0.480238 -0.137501
C106  C     C_3   0.688318 0.674799 0.600809 -0.109581
C107  C     C_3   0.738779 0.273143 0.564027 -0.136878
C108  C     C_3   0.300318 0.695675 0.418122 -0.122734
C109  C     C_3   0.688664 0.753683 0.491819 -0.000887
C110  C     C_3   0.228269 0.184692 0.415763 -0.132209
C111  C     C_3   0.270797 0.174033 0.499630 0.017204
C112  C     C_3   0.281146 0.806574 0.503244 0.000825
C113  C     C_3   0.730612 0.164966 0.501499 0.000931
C114  C     C_3   0.181111 0.252042 0.497091 0.004040
C115  C     C_3   0.765502 0.656332 0.503075 0.031574
C116  C     C_3   0.816568 0.254211 0.499561 0.010072
C117  C     C_3   0.221505 0.682522 0.498485 0.012837
C118  C     C_2   0.813408 0.766465 0.276958 1.033419
C119  C     C_2   0.192042 0.050486 0.533425 1.024775
C120  C     C_2   0.144672 0.845496 0.678395 1.043961
H1    H     H_    0.306384 0.163175 0.769046 0.138514
H2    H     H_    0.410371 0.880588 0.320867 0.113145
H3    H     H_    0.407898 0.113065 0.321580 0.109899
H4    H     H_    0.572760 0.842846 0.674956 0.108617
H5    H     H_    0.092817 0.609584 0.678476 0.097185
H6    H     H_    0.937405 0.340023 0.319203 0.110427
H7    H     H_    0.905319 0.603060 0.322111 0.129546
H8    H     H_    0.060150 0.335981 0.678257 0.129699
H9    H     H_    0.737382 0.105897 0.321064 0.109794
H10   H     H_    0.266531 0.883765 0.681318 0.165944
H11   H     H_    0.263702 0.112028 0.679599 0.110486
H12   H     H_    0.717547 0.884003 0.169402 0.110537
H13   H     H_    0.707614 0.841883 0.316411 0.106514
H14   H     H_    0.235939 0.609585 0.318771 0.113355
H15   H     H_    0.793912 0.339208 0.679646 0.102418
H16   H     H_    0.762318 0.601394 0.681278 0.115006
H17   H     H_    0.205891 0.338476 0.319106 0.124733
H18   H     H_    0.517535 0.163084 0.240583 0.124925
H19   H     H_    0.462678 0.858228 0.804770 0.118005
H20   H     H_    0.475877 0.155346 0.776182 0.126968
H21   H     H_    0.545036 0.887800 0.173369 0.139559
H22   H     H_    0.046237 0.613900 0.172363 0.118688
H23   H     H_    0.682388 0.171268 0.257295 0.146461
H24   H     H_    0.953270 0.394869 0.830182 0.126524
H25   H     H_    0.978941 0.659338 0.767728 0.135618
H26   H     H_    0.047444 0.391748 0.169370 0.138956
H27   H     H_    0.344881 0.228634 0.316634 0.169742
H28   H     H_    0.684596 0.812453 0.634926 0.187844
H29   H     H_    0.675975 0.168703 0.694489 0.175643
H30   H     H_    0.318663 0.814514 0.320297 0.197762
H31   H     H_    0.771073 0.595734 0.361018 0.179156
H32   H     H_    0.106840 0.197392 0.679521 0.193795
H33   H     H_    0.184034 0.674389 0.681312 0.171518
H34   H     H_    0.299299 0.845093 0.785644 0.134715
H35   H     H_    0.870679 0.248854 0.305862 0.174994
H36   H     H_    0.317779 0.702564 0.796167 0.220806
H37   H     H_    0.729104 0.220929 0.077982 0.146457
H38   H     H_    0.775591 0.899039 0.981793 0.192084
H39   H     H_    0.307159 0.295265 0.797449 0.141605
H40   H     H_    0.720433 0.387764 0.016257 0.178555
H41   H     H_    0.275733 0.602213 0.987587 0.186884
H42   H     H_    0.276194 0.402266 0.980569 0.197988
H43   H     H_    0.801143 0.793552 0.799245 0.152151
H44   H     H_    0.863624 0.860744 0.176107 0.333874
H45   H     H_    0.808736 0.664780 0.762191 0.134769
H46   H     H_    0.222201 0.940229 0.469357 0.322795
H47   H     H_    0.102238 0.899446 0.825313 0.350861
H48   H     H_    0.849172 0.952735 0.364527 0.365850
H49   H     H_    0.239897 0.485873 0.522998 0.348973
H50   H     H_    0.603660 0.543189 0.812492 0.326407
H51   H     H_    0.617486 0.388522 0.787145 0.344814
H52   H     H_    0.401178 0.532700 0.286373 0.360814
H53   H     H_    0.191063 0.153502 0.245132 0.348341
H54   H     H_    0.943881 0.811641 0.345798 0.349909
H55   H     H_    0.915451 0.084108 0.554909 0.345919
H56   H     H_    0.217752 0.384640 0.170012 0.113136
H57   H     H_    0.064505 0.794253 0.508672 0.336818
H58   H     H_    0.524369 0.626310 0.564615 0.335039
H59   H     H_    0.270219 0.344782 0.707674 0.324090
H60   H     H_    0.440969 0.690986 0.482982 0.335997
H61   H     H_    0.634000 0.337144 0.442752 0.346898
H62   H     H_    0.345268 0.684133 0.088924 0.345956
H63   H     H_    0.563345 0.456227 0.215888 0.344662
H64   H     H_    0.670108 0.661331 0.935887 0.336343
H65   H     H_    0.381148 0.352998 0.025240 0.334269
H66   H     H_    0.833121 0.233963 0.137447 0.334235
H67   H     H_    0.215533 0.621419 0.177634 0.136569
H68   H     H_    0.170980 0.771908 0.863804 0.354284
H69   H     H_    0.171275 0.159512 0.942118 0.336607
H70   H     H_    0.905239 0.876003 0.974525 0.332022
H71   H     H_    0.782853 0.385101 0.829346 0.101185
H72   H     H_    0.591979 0.108386 0.679863 0.100056
N1    N     N_R   0.389620 0.081040 0.705440 -0.055803
N2    N     N_R   0.417680 0.920160 0.443370 -0.049690
N3    N     N_R   0.417680 0.079840 0.443370 -0.053765
N4    N     N_R   0.582320 0.920160 0.556630 -0.054144
N5    N     N_R   0.082320 0.579840 0.556630 -0.045968
N6    N     N_R   0.917680 0.420160 0.443370 -0.051720
N7    N     N_R   0.917680 0.579840 0.443370 -0.050963
N8    N     N_R   0.082320 0.420160 0.556630 -0.047956
N9    N     N_R   0.627920 0.078930 0.443400 -0.043644
N10   N     N_R   0.372080 0.921070 0.556600 -0.047781
N11   N     N_R   0.372080 0.078930 0.556600 -0.045133
N12   N     N_R   0.610380 0.918960 0.294560 -0.047863
N13   N     N_R   0.627920 0.921070 0.443400 -0.050000
N14   N     N_R   0.127920 0.578930 0.443400 -0.041245
N15   N     N_R   0.872080 0.421070 0.556600 -0.038293
N16   N     N_R   0.872080 0.578930 0.556600 -0.053458
N17   N     N_R   0.127920 0.421070 0.443400 -0.053738
N18   N     N_R   0.555090 0.077730 0.294590 -0.058249
N19   N     N_R   0.444910 0.922270 0.705410 -0.053330
N20   N     N_R   0.444910 0.077730 0.705410 -0.056978
N21   N     N_R   0.555090 0.922270 0.294590 -0.053052
N22   N     N_R   0.055090 0.577730 0.294590 -0.056311
N23   N     N_R   0.610380 0.081040 0.294560 -0.052312
N24   N     N_R   0.944910 0.422270 0.705410 -0.057244
N25   N     N_R   0.944910 0.577730 0.705410 -0.061910
N26   N     N_R   0.055090 0.422270 0.294590 -0.053049
N27   N     N_R   0.389620 0.918960 0.705440 -0.048756
N28   N     N_R   0.889620 0.581040 0.705440 -0.056700
N29   N     N_R   0.110380 0.418960 0.294560 -0.046539
N30   N     N_R   0.110380 0.581040 0.294560 -0.051363
N31   N     N_R   0.889620 0.418960 0.705440 -0.046656
N32   N     N_R   0.582320 0.079840 0.556630 -0.052071
Ni1   Ni    Ni4+2 0.382970 0.000000 0.629840 0.242644
Ni2   Ni    Ni4+2 0.617030 0.000000 0.370160 0.236805
Ni3   Ni    Ni4+2 0.882970 0.500000 0.629840 0.239382
Ni4   Ni    Ni4+2 0.117030 0.500000 0.370160 0.229543
Ni5   Ni    Ni4+2 0.514540 0.000000 0.629840 0.245870
Ni6   Ni    Ni4+2 0.485460 0.000000 0.370160 0.232961
Ni7   Ni    Ni4+2 0.014540 0.500000 0.629840 0.241547
Ni8   Ni    Ni4+2 0.985460 0.500000 0.370160 0.227823
O1    O     O_2   0.836796 0.721691 0.198054 -0.587736
O2    O     O_R   0.219703 0.430509 0.544655 -0.800484
O3    O     O_2   0.617421 0.684810 0.797280 -0.614545
O4    O     O_R   0.634115 0.559050 0.730870 -0.741549
O5    O     O_2   0.715343 0.410743 0.592328 -0.590103
O6    O     O_R   0.640678 0.336028 0.748350 -0.791155
O7    O     O_2   0.392268 0.660936 0.229368 -0.611551
O8    O     O_R   0.362250 0.564514 0.354734 -0.774166
O9    O     O_2   0.274358 0.101456 0.260375 -0.562409
O10   O     O_R   0.183631 0.179564 0.310711 -0.801071
O11   O     O_2   0.828604 0.840235 0.519087 -0.605262
O12   O     O_R   0.831288 0.846626 0.258498 -0.810392
O13   O     O_R   0.908341 0.777186 0.352109 -0.788091
O14   O     O_2   0.790085 0.099078 0.680618 -0.618445
O15   O     O_R   0.901134 0.114404 0.516410 -0.775331
O16   O     O_2   0.186095 0.828969 0.372157 -0.604611
O17   O     O_R   0.090613 0.775119 0.534379 -0.775505
O18   O     O_2   0.607068 0.550405 0.562284 -0.565857
O19   O     O_R   0.562724 0.662293 0.546977 -0.809751
O20   O     O_2   0.168360 0.272558 0.768268 -0.605115
O21   O     O_R   0.280111 0.316893 0.641215 -0.777173
O22   O     O_2   0.319299 0.658178 0.624435 -0.616732
O23   O     O_2   0.135342 0.028434 0.618521 -0.590626
O24   O     O_R   0.413637 0.711068 0.459879 -0.794598
O25   O     O_2   0.759275 0.334372 0.329064 -0.592334
O26   O     O_R   0.647381 0.303136 0.479918 -0.782372
O27   O     O_2   0.346649 0.812543 0.022029 -0.600117
O28   O     O_R   0.345112 0.678086 0.024445 -0.808067
O29   O     O_2   0.516494 0.326158 0.282229 -0.618452
O30   O     O_R   0.603026 0.416706 0.183093 -0.796853
O31   O     O_2   0.610092 0.786714 0.004223 -0.600423
O32   O     O_R   0.694334 0.697369 0.953506 -0.814088
O33   O     O_2   0.375379 0.217884 0.983718 -0.623132
O34   O     O_R   0.240882 0.996132 0.451000 -0.773904
O35   O     O_R   0.372970 0.351466 0.969529 -0.799852
O36   O     O_2   0.902675 0.258470 0.941001 -0.633265
O37   O     O_R   0.806252 0.269624 0.124368 -0.769364
O38   O     O_2   0.110832 0.766000 0.060334 -0.609276
O39   O     O_R   0.195257 0.732233 0.877379 -0.802500
O40   O     O_2   0.111061 0.284800 0.006186 -0.599322
O41   O     O_R   0.195640 0.197001 0.957970 -0.813171
O42   O     O_2   0.892172 0.737291 0.958172 -0.604667
O43   O     O_R   0.890532 0.868480 0.927841 -0.779878
O44   O     O_2   0.097747 0.869068 0.680024 -0.561983
O45   O     O_R   0.143674 0.864630 0.766361 -0.833547
O46   O     O_2   0.894339 0.077054 0.268344 -0.608310
O47   O     O_R   0.819950 0.997782 0.419042 -0.764775
O48   O     O_2   0.319997 0.394767 0.372200 -0.610668

loop_
_geom_bond_atom_site_label_1
_geom_bond_atom_site_label_2
_ccdc_geom_bond_type
C22   O39   S    
C3    C104  S    
C55   H34   S    
N20   Ni5   S    
C44   N23   A    
C82   C99   A    
N2    Ni6   S    
C103  C120  S    
C100  C116  S    
C13   C116  S    
N22   Ni8   S    
C26   C106  S    
H60   O24   S    
C21   O37   S    
N19   N27   A    
C21   C36   S    
C28   C112  S    
N25   N28   A    
C72   N25   A    
C6    O6    S    
N29   Ni4   S    
C59   H11   S    
C24   C117  S    
C84   C112  S    
C65   C76   A    
N5    Ni7   S    
C31   C78   S    
C97   H32   S    
C101  C118  S    
C49   C84   A    
C57   H9    S    
C28   C108  S    
C18   O30   S    
C72   C79   A    
C8    C110  S    
C95   C112  S    
N16   Ni3   S    
C32   C74   S    
C29   C100  S    
N31   Ni3   S    
C60   N13   A    
C2    C115  S    
N3    N11   A    
C49   N2    A    
C27   C105  S    
C101  C109  S    
N18   N23   A    
N2    N10   A    
C62   C89   A    
C11   C24   S    
C100  C104  S    
N24   Ni7   S    
C12   O18   D    
C31   C40   D    
C20   O35   S    
C93   H28   S    
C42   C46   S    
N4    N13   A    
C44   C76   A    
C70   C81   A    
C83   C113  S    
C66   N28   A    
C61   C87   A    
C50   C85   A    
C25   C37   S    
C19   O32   S    
C41   H39   S    
C47   H42   S    
H53   O10   S    
C33   C75   A    
C40   C43   S    
H58   O19   S    
N3    Ni6   S    
C36   C82   S    
C37   C79   S    
C5    O4    S    
C34   C42   D    
C30   C39   D    
C119  O34   S    
C6    C107  S    
C57   C83   A    
C96   C115  S    
C67   N19   A    
C18   C30   S    
N8    Ni7   S    
C8    O10   S    
C14   C27   S    
C17   O27   D    
C35   C43   D    
H47   O45   S    
C97   C102  S    
C21   O36   D    
C23   C38   S    
C61   N14   A    
C39   C45   S    
C71   C82   A    
C22   O38   D    
H55   O15   S    
C71   N24   A    
C98   H33   S    
C27   C111  S    
C5    C106  S    
C1    C74   A    
C96   C101  S    
C39   H37   S    
C92   H27   S    
C51   H4    S    
C88   H67   S    
C102  C111  S    
C42   H38   S    
C45   H40   S    
C89   C116  S    
H70   O43   S    
C51   C86   A    
C73   H26   S    
C41   C47   S    
C94   C113  S    
C118  O12   S    
C61   H14   S    
C120  O44   D    
N10   Ni1   S    
N25   Ni7   S    
C15   O24   S    
C56   C91   A    
H66   O37   S    
C26   C96   S    
N9    Ni2   S    
C94   C107  S    
C6    O5    D    
C99   N31   A    
C23   O40   D    
C70   H22   S    
C98   C117  S    
H49   O2    S    
C70   N22   A    
C105  C114  S    
N13   Ni2   S    
C86   C109  S    
C69   N21   A    
C67   H19   S    
C18   O29   D    
H54   O13   S    
C95   C108  S    
C24   C95   S    
C55   C78   A    
C60   C86   A    
N1    N20   A    
C55   N27   A    
H61   O26   S    
C48   N32   A    
C2    C101  S    
C16   C29   S    
C96   H31   S    
H50   O4    S    
N12   N21   A    
C19   C34   S    
C54   N7    A    
N28   Ni3   S    
C12   C26   S    
C103  C112  S    
C94   H29   S    
H59   O21   S    
C62   H15   S    
C1    N1    A    
N7    Ni8   S    
C59   C85   A    
C25   O42   D    
C66   C79   A    
C58   C84   A    
C93   C106  S    
C10   O15   S    
C16   O26   S    
C50   N3    A    
C3    O47   S    
C4    C105  S    
N30   Ni4   S    
C32   C41   D    
H57   O17   S    
C38   C47   D    
H46   O34   S    
C36   C45   D    
C95   H30   S    
C11   O17   S    
C90   C115  S    
N27   Ni1   S    
C13   C104  S    
C12   O19   S    
C26   C109  S    
N26   Ni8   S    
C65   N18   A    
N18   Ni6   S    
C10   O14   D    
C65   H18   S    
C43   H41   S    
C100  H35   S    
N15   Ni3   S    
N17   Ni4   S    
C7    O7    D    
C77   H56   S    
C46   H43   S    
H68   O39   S    
C53   C89   A    
C17   C31   S    
C88   N30   A    
C64   N17   A    
C68   H20   S    
N22   N30   A    
C30   C76   S    
C53   N6    A    
N12   Ni2   S    
C9    O11   D    
H52   O8    S    
C62   N15   A    
N11   Ni1   S    
C9    O13   S    
H65   O35   S    
N26   N29   A    
C20   C32   S    
C77   C80   A    
C77   N29   A    
C29   C113  S    
C33   H12   S    
C27   C97   S    
N5    N14   A    
N19   Ni5   S    
C66   H45   S    
N6    N15   A    
C64   C91   A    
C4    O2    S    
C108  C117  S    
C52   C87   A    
C29   C107  S    
C50   H3    S    
C85   C111  S    
C10   C13   S    
C119  O23   D    
C20   O33   D    
H48   O47   S    
C28   C98   S    
C52   H5    S    
C48   C83   A    
C92   C111  S    
C54   C90   A    
C63   N16   A    
C7    O8    S    
H51   O6    S    
C22   C35   S    
H63   O30   S    
H62   O28   S    
C54   H7    S    
C13   C94   S    
C33   N12   A    
N8    N17   A    
C35   C81   S    
C91   C114  S    
C67   C78   A    
C106  C115  S    
C51   N4    A    
N23   Ni2   S    
C110  C114  S    
C24   C103  S    
C2    C93   S    
C37   C46   D    
N24   N31   A    
N1    Ni1   S    
C25   O43   S    
N32   Ni5   S    
C3    O46   D    
C99   H71   S    
C16   O25   D    
C23   O41   S    
C118  O1    D    
C92   C110  S    
C120  O45   S    
C14   O21   S    
C38   C80   S    
C8    O9    D    
C58   H10   S    
C44   H23   S    
C4    O48   D    
C49   H2    S    
C63   C90   A    
N7    N16   A    
H64   O32   S    
C73   C80   A    
C73   N26   A    
C69   C75   A    
C68   N20   A    
N6    Ni8   S    
C56   H8    S    
C87   C117  S    
H69   O41   S    
C1    H1    S    
C107  C116  S    
C48   H72   S    
C81   C88   A    
C102  C110  S    
C53   H6    S    
N21   Ni6   S    
N14   Ni4   S    
C19   O31   D    
C104  C113  S    
C15   C28   S    
C59   N11   A    
C92   C105  S    
C34   C75   S    
C14   O20   D    
N4    Ni5   S    
C58   N10   A    
C5    O3    D    
C69   H21   S    
C57   N9    A    
C64   H17   S    
C72   H25   S    
C7    C108  S    
C40   H36   S    
C63   H16   S    
C52   N5    A    
N9    N32   A    
C97   C114  S    
C2    C9    S    
C68   C74   A    
C60   H13   S    
C11   O16   D    
C102  C119  S    
C98   C103  S    
C17   O28   S    
C93   C109  S    
C71   H24   S    
C56   N8    A    
C15   O22   D    
H44   O12   S    
