data_mof_unit_41941.cif
_audit_creation_date              2012-12-11T16:17:46-0500
_audit_creation_method            fapswitch 2.2
_symmetry_space_group_name_H-M    P1
_symmetry_Int_Tables_number       1
_space_group_crystal_system       triclinic
_cell_length_a                    6.920627
_cell_length_b                    28.793321
_cell_length_c                    32.052895
_cell_angle_alpha                 101.181284
_cell_angle_beta                  89.493265
_cell_angle_gamma                 90.545632
_cell_volume                      6265.43083513

loop_
_atom_site_label
_atom_site_type_symbol
_atom_type_description
_atom_site_fract_x
_atom_site_fract_y
_atom_site_fract_z
_atom_type_partial_charge
O1    O     O_R   0.494350 0.453160 0.452490 -0.540599
O2    O     O_R   0.820990 0.455850 0.538220 -0.548437
O3    O     O_R   0.994300 0.546840 0.547510 -0.541609
C1    C     C_R   0.651000 0.446289 0.552263 0.743013
O4    O     O_R   0.823860 0.447580 0.452250 -0.539342
O5    O     O_R   0.997190 0.538510 0.460920 -0.517132
C2    C     C_R   0.654807 0.434708 0.436312 0.709558
O6    O     O_R   0.491450 0.461490 0.539080 -0.513869
O7    O     O_3   0.661790 0.529840 0.502950 -0.368324
V1    V     V_3+5 0.935470 0.494460 0.499450 1.440925
O8    O     O_R   0.327090 0.544150 0.461780 -0.547633
C3    C     C_R   0.159188 0.553782 0.447907 0.751820
O9    O     O_R   0.324210 0.552420 0.547750 -0.540607
C4    C     C_R   0.154916 0.565003 0.563801 0.713796
V2    V     V_3+5 0.435840 0.505540 0.500550 1.440076
O10   O     O_3   0.159650 0.470160 0.497050 -0.366061
C5    C     C_R   0.969455 0.607863 0.626939 -0.180328
H1    H     H_    0.848073 0.584414 0.616966 0.121088
C6    C     C_R   0.952081 0.642496 0.664377 0.219180
C7    C     C_R   0.109834 0.673498 0.678056 0.005467
C8    C     C_R   0.281878 0.667675 0.653670 -0.171645
H2    H     H_    0.405726 0.690460 0.662974 0.176243
C9    C     C_R   0.298054 0.632491 0.616922 -0.174938
H3    H     H_    0.432887 0.629201 0.599219 0.133476
C10   C     C_R   0.141463 0.602436 0.602912 -0.078826
N1    N     N_R   0.249095 0.742939 0.727283 -0.273406
N2    N     N_R   0.239689 0.777790 0.761355 -0.271811
C11   C     C_R   0.079698 0.783578 0.786701 0.523850
N3    N     N_R   0.929702 0.752859 0.776409 -0.270558
N4    N     N_R   0.939198 0.718106 0.742278 -0.234745
C12   C     C_R   0.098872 0.712213 0.716823 0.536963
C13   C     C_R   0.912866 0.826066 0.853310 -0.101215
H4    H     H_    0.799002 0.799554 0.848827 0.146414
C14   C     C_R   0.902943 0.863127 0.888678 -0.101024
H5    H     H_    0.782683 0.863741 0.910639 0.129872
C15   C     C_R   0.047266 0.898450 0.896206 -0.122387
C16   C     C_R   0.202054 0.896512 0.866330 -0.025290
C17   C     C_R   0.212085 0.858304 0.831474 -0.100676
H6    H     H_    0.330011 0.856988 0.808832 0.180738
C18   C     C_R   0.068433 0.822927 0.824476 -0.028564
C19   C     C_R   0.272932 0.678818 0.298490 0.588829
N5    N     N_R   0.127732 0.679249 0.327804 -0.542374
C20   C     C_R   0.975331 0.709819 0.329826 0.558275
C21   C     C_R   0.962734 0.741817 0.301118 -0.097268
C22   C     C_R   0.109457 0.739940 0.269614 0.018964
C23   C     C_R   0.266670 0.708868 0.268823 0.013594
C24   C     C_R   0.808393 0.774626 0.301617 -0.026070
C25   C     C_R   0.799106 0.801871 0.269690 -0.121459
C26   C     C_R   0.943356 0.799673 0.238436 -0.076046
C27   C     C_R   0.100126 0.769147 0.238678 -0.009200
C28   C     C_R   0.247541 0.767617 0.207761 -0.037571
C29   C     C_R   0.404883 0.737293 0.208185 -0.138275
C30   C     C_R   0.414175 0.708271 0.238259 -0.132134
C31   C     C_R   0.936110 0.828256 0.207317 0.592830
N6    N     N_R   0.080097 0.826306 0.177301 -0.543702
C32   C     C_R   0.233644 0.796378 0.176952 0.648104
O11   O     O_2   0.421996 0.648790 0.297631 -0.530992
O12   O     O_2   0.835624 0.708277 0.359050 -0.545440
H7    H     H_    0.680483 0.826294 0.270162 0.203002
O13   O     O_2   0.786911 0.858092 0.207369 -0.515872
O14   O     O_2   0.371569 0.793967 0.146607 -0.498910
H8    H     H_    0.521328 0.735728 0.185162 0.166390
H9    H     H_    0.537576 0.685230 0.237384 0.160978
C33   C     C_R   0.916892 0.848622 0.115885 -0.131354
H10   H     H_    0.812916 0.820582 0.117315 0.192664
C34   C     C_R   0.901749 0.876088 0.084072 -0.073020
C35   C     C_R   0.040751 0.912422 0.082260 -0.154068
C36   C     C_R   0.192337 0.919009 0.111933 -0.215017
H11   H     H_    0.299517 0.946580 0.111375 0.129448
C37   C     C_R   0.206405 0.891245 0.143290 0.249915
C38   C     C_R   0.068080 0.855663 0.145387 0.340994
C39   C     C_R   0.269627 0.654518 0.390336 -0.101988
H12   H     H_    0.367240 0.684626 0.393875 0.163930
C40   C     C_R   0.278752 0.623818 0.419179 -0.270040
H13   H     H_    0.383362 0.630940 0.444609 0.153173
C41   C     C_R   0.151134 0.585082 0.416058 -0.103484
C42   C     C_R   0.017416 0.576429 0.382254 0.178070
C43   C     C_R   0.011421 0.606786 0.352492 0.178383
C44   C     C_R   0.135397 0.646780 0.357119 0.308169
C45   C     C_R   0.578210 0.225035 0.838420 0.565219
N7    N     N_R   0.571204 0.176786 0.825334 -0.566920
C46   C     C_R   0.581558 0.156547 0.782937 0.594391
C47   C     C_R   0.592352 0.185057 0.751856 -0.061962
C48   C     C_R   0.599390 0.234564 0.764767 -0.017451
C49   C     C_R   0.594524 0.254815 0.808486 -0.019729
C50   C     C_R   0.596341 0.165120 0.708318 -0.196889
C51   C     C_R   0.604685 0.193713 0.677484 0.201537
C52   C     C_R   0.611350 0.243762 0.690097 -0.029350
C53   C     C_R   0.611165 0.263914 0.734015 -0.070621
C54   C     C_R   0.622282 0.313485 0.747413 -0.028910
C55   C     C_R   0.620578 0.333194 0.791120 -0.126464
C56   C     C_R   0.605605 0.304250 0.821263 -0.136968
C57   C     C_R   0.616243 0.274608 0.660525 0.594190
N8    N     N_R   0.625301 0.322761 0.674279 -0.577650
C58   C     C_R   0.633067 0.342330 0.716762 0.583338
O15   O     O_2   0.568529 0.244189 0.880272 -0.514510
O16   O     O_2   0.581650 0.108974 0.770873 -0.499670
H14   H     H_    0.591479 0.127020 0.697806 0.177975
O17   O     O_2   0.609524 0.256909 0.618409 -0.487549
O18   O     O_2   0.649705 0.389709 0.729313 -0.498083
H15   H     H_    0.628796 0.371157 0.802225 0.176382
H16   H     H_    0.603025 0.320783 0.854627 0.175367
C59   C     C_R   0.464116 0.382991 0.640239 -0.034949
C60   C     C_R   0.473720 0.414635 0.611058 0.152399
C61   C     C_R   0.637889 0.414761 0.584149 -0.078372
C62   C     C_R   0.791899 0.384449 0.587709 -0.252528
H17   H     H_    0.917973 0.383469 0.567333 0.139992
C63   C     C_R   0.785705 0.354681 0.617168 -0.023464
H18   H     H_    0.907917 0.332146 0.619545 0.134145
C64   C     C_R   0.624007 0.353515 0.643490 0.268484
C65   C     C_R   0.393184 0.119069 0.860781 0.013715
C66   C     C_R   0.391756 0.089330 0.890871 -0.175689
H19   H     H_    0.265362 0.067590 0.893534 0.160356
C67   C     C_R   0.551056 0.087000 0.917408 -0.131346
C68   C     C_R   0.715408 0.115852 0.913540 0.169421
C69   C     C_R   0.716895 0.145198 0.883478 0.023116
H20   H     H_    0.843315 0.166895 0.880646 0.147132
C70   C     C_R   0.559114 0.146903 0.856749 0.224876
C71   C     C_R   0.472339 0.390566 0.373242 -0.227027
H21   H     H_    0.352658 0.414493 0.382489 0.114680
C72   C     C_R   0.452757 0.354027 0.337280 0.007184
C73   C     C_R   0.609075 0.322497 0.324641 -0.001955
C74   C     C_R   0.775951 0.327700 0.349999 -0.142540
H22   H     H_    0.895328 0.303594 0.341782 0.178566
C75   C     C_R   0.793141 0.364302 0.385718 -0.167406
H23   H     H_    0.924748 0.367303 0.404115 0.126250
C76   C     C_R   0.641440 0.396205 0.397813 -0.043326
N9    N     N_R   0.681898 0.241694 0.284483 -0.265471
N10   N     N_R   0.674663 0.208037 0.249388 -0.275975
C77   C     C_R   0.591169 0.216362 0.213286 0.525677
N11   N     N_R   0.519420 0.260229 0.213649 -0.266862
N12   N     N_R   0.527569 0.293912 0.248627 -0.230724
C78   C     C_R   0.605566 0.285170 0.285078 0.584595
C79   C     C_R   0.455361 0.183741 0.140624 -0.197717
H24   H     H_    0.372862 0.215962 0.142956 0.140089
C80   C     C_R   0.441149 0.148567 0.103410 -0.018023
C81   C     C_R   0.548103 0.106046 0.100132 -0.065220
C82   C     C_R   0.670223 0.101105 0.133838 -0.192504
H25   H     H_    0.754042 0.069183 0.132100 0.119736
C83   C     C_R   0.683765 0.136549 0.170431 -0.119604
H26   H     H_    0.779147 0.131196 0.195645 0.145922
C84   C     C_R   0.576639 0.178361 0.174359 0.017302
O19   O     O_R   0.699050 0.038480 0.960880 -0.545351
O20   O     O_R   0.366680 0.052470 0.047720 -0.520775
O21   O     O_R   0.193410 0.961530 0.039110 -0.530766
C85   C     C_R   0.535919 0.066270 0.062757 0.747678
O22   O     O_R   0.369510 0.044100 0.961740 -0.532076
O23   O     O_R   0.196260 0.953110 0.952520 -0.549927
C86   C     C_R   0.539723 0.054743 0.948623 0.756691
O24   O     O_R   0.696210 0.046900 0.047470 -0.543913
O25   O     O_3   0.528780 0.970170 0.997070 -0.372433
V3    V     V_3+5 0.255080 0.005530 0.000540 1.469109
O26   O     O_R   0.866350 0.947520 0.952280 -0.532864
C87   C     C_R   0.035497 0.935869 0.935554 0.669937
O27   O     O_R   0.863520 0.955880 0.038260 -0.553155
C88   C     C_R   0.031626 0.944734 0.050981 0.692579
V4    V     V_3+5 0.754720 0.994440 0.999470 1.431971
O28   O     O_3   0.030880 0.029830 0.002930 -0.361892
C89   C     C_2   0.746275 0.864182 0.052024 0.411619
H27   H     H_    0.758461 0.874321 0.021270 0.049299
O29   O     O_2   0.602816 0.841983 0.059382 -0.510462
N13   N     N_3   0.359749 0.899783 0.173577 -0.597654
H28   H     H_    0.351111 0.934958 0.189650 0.224116
H29   H     H_    0.490847 0.895824 0.156836 0.276883
N14   N     N_3   0.891313 0.535940 0.377521 -0.656447
H30   H     H_    0.917788 0.514510 0.347796 0.247037
H31   H     H_    0.748625 0.547701 0.378170 0.254163
N15   N     N_3   0.774884 0.645648 0.688419 -0.632935
H32   H     H_    0.798971 0.629990 0.714720 0.251222
H33   H     H_    0.665720 0.625702 0.670802 0.222510
N16   N     N_3   0.882936 0.595579 0.317043 -0.653184
H34   H     H_    0.783160 0.622833 0.318796 0.297210
H35   H     H_    0.963786 0.593553 0.289048 0.240710
N17   N     N_3   0.607073 0.171288 0.633478 -0.575750
H36   H     H_    0.726520 0.148887 0.628154 0.237476
H37   H     H_    0.482352 0.150373 0.627355 0.238413
C90   C     C_2   0.288398 0.378544 0.666591 0.415729
H38   H     H_    0.266278 0.347012 0.679924 0.051148
O30   O     O_2   0.167919 0.409735 0.674489 -0.518691
N18   N     N_3   0.320045 0.447098 0.608628 -0.637887
H39   H     H_    0.191557 0.428128 0.601179 0.250739
H40   H     H_    0.306301 0.470323 0.637883 0.270968
C91   C     C_2   0.220120 0.121459 0.834294 0.453523
H41   H     H_    0.209822 0.148306 0.814920 0.046535
O31   O     O_2   0.086457 0.093345 0.833695 -0.520437
N19   N     N_3   0.881413 0.117251 0.940168 -0.629698
H42   H     H_    0.836735 0.124353 0.972000 0.249821
H43   H     H_    0.949633 0.084423 0.933274 0.252410
C92   C     C_2   0.262452 0.349387 0.315808 0.372705
H44   H     H_    0.168015 0.379830 0.319412 0.048729
O32   O     O_2   0.203881 0.311452 0.295954 -0.512542
C93   C     C_2   0.319822 0.159340 0.068565 0.369161
H45   H     H_    0.207842 0.185905 0.075790 0.062708
O33   O     O_2   0.348392 0.140779 0.031475 -0.525581
C94   C     C_2   0.348193 0.935137 0.869024 0.411046
H46   H     H_    0.317029 0.970529 0.886253 0.040461
O34   O     O_2   0.504889 0.928056 0.851202 -0.522295
C95   C     C_2   0.659743 0.784109 0.335876 0.432027
H47   H     H_    0.695453 0.783019 0.368485 0.110411
O35   O     O_2   0.495900 0.795299 0.328244 -0.533519

loop_
_geom_bond_atom_site_label_1
_geom_bond_atom_site_label_2
_ccdc_geom_bond_type
C17   C18   A    
N6    C32   A    
V4    O28   S    
O24   V4    S    
O27   V4    S    
C19   N5    A    
C61   C62   A    
C65   C66   A    
C1    O6    A    
N9    N10   A    
C26   C27   A    
C66   C67   A    
C67   C68   A    
C15   C87   S    
C54   C58   A    
C73   C78   S    
C31   O13   S    
C42   C43   A    
C69   H20   S    
N16   H35   S    
N1    N2    A    
N14   H30   S    
C40   C41   A    
C80   C93   S    
C59   C64   A    
O25   V4    S    
C48   C53   A    
C15   C16   A    
O22   C86   A    
C16   C17   A    
C83   C84   A    
C28   C32   A    
C39   C44   A    
C91   O31   D    
O5    C3    A    
N4    C12   A    
C74   C75   A    
C62   H17   S    
C11   C18   S    
C42   N14   S    
C68   C69   A    
C63   H18   S    
C5    H1    S    
C14   H5    S    
C33   C38   A    
C92   O32   D    
N17   H36   S    
C66   H19   S    
C20   O12   S    
C13   C14   A    
C85   O24   A    
O21   C88   A    
O8    V2    S    
C24   C25   A    
C63   C64   A    
N12   C78   A    
C90   O30   D    
C19   C23   A    
C89   O29   D    
C24   C95   S    
C95   H47   S    
O1    V2    S    
C93   H45   S    
C45   O15   S    
N3    N4    A    
O7    V1    S    
C57   O17   S    
C21   C24   A    
C56   H16   S    
C52   C53   A    
N15   H33   S    
C34   C35   A    
C34   C89   S    
N1    C12   A    
N14   H31   S    
C26   C31   A    
O1    C2    A    
O9    C4    A    
O26   V4    S    
N8    C58   A    
O23   C87   A    
C55   H15   S    
C77   C84   S    
C37   N13   S    
C60   C61   A    
C49   C56   A    
N18   H40   S    
O19   V4    S    
N13   H29   S    
C41   C42   A    
C71   C72   A    
C8    C9    A    
V3    O28   S    
C40   H13   S    
N5    C44   S    
C35   C36   A    
C81   C85   S    
C74   H22   S    
C48   C49   A    
C39   C40   A    
C55   C56   A    
O4    C2    A    
C68   N19   S    
C52   C57   A    
C43   C44   A    
C39   H12   S    
C79   C80   A    
C22   C23   A    
N7    C70   S    
N8    C64   S    
N7    C46   A    
C28   C29   A    
C35   C88   S    
C59   C90   S    
C93   O33   D    
C60   N18   S    
O2    C1    A    
C20   C21   A    
C91   H41   S    
C45   C49   A    
C79   C84   A    
C89   H27   S    
O25   V3    S    
C65   C91   S    
C27   C28   A    
C57   N8    A    
C83   H26   S    
C71   H21   S    
N16   H34   S    
C72   C73   A    
C37   C38   A    
O3    C4    A    
C82   C83   A    
N19   H42   S    
O20   C85   A    
N15   H32   S    
C46   C47   A    
O6    V2    S    
C65   C70   A    
C3    C41   S    
C75   H23   S    
C46   O16   S    
C94   O34   D    
C47   C48   A    
N5    C20   A    
N19   H43   S    
N11   N12   A    
O2    V1    S    
C16   C94   S    
O27   C88   A    
C13   C18   A    
C29   C30   A    
C50   C51   A    
C25   H7    S    
N13   H28   S    
C1    C61   S    
C51   N17   S    
C31   N6    A    
C11   N3    A    
C58   O18   S    
C36   H11   S    
C21   C22   A    
O23   V3    S    
C45   N7    A    
O5    V1    S    
O8    C3    A    
C73   C74   A    
C79   H24   S    
C81   C82   A    
N10   C77   A    
C5    C10   A    
C13   H4    S    
C6    C7    A    
O9    V2    S    
C77   N11   A    
C53   C54   A    
C19   O11   S    
O4    V1    S    
O20   V3    S    
O3    V1    S    
C29   H8    S    
N9    C78   A    
C33   H10   S    
C72   C92   S    
C30   H9    S    
C54   C55   A    
C17   H6    S    
V1    O10   S    
C62   C63   A    
C22   C27   A    
C25   C26   A    
C23   C30   A    
C43   N16   S    
C5    C6    A    
C69   C70   A    
O22   V3    S    
C14   C15   A    
C9    C10   A    
C4    C10   S    
O7    V2    S    
C92   H44   S    
C50   H14   S    
N17   H37   S    
O21   V3    S    
C82   H25   S    
C9    H3    S    
C94   H46   S    
O19   C86   A    
C47   C50   A    
C7    C8    A    
C51   C52   A    
C36   C37   A    
C90   H38   S    
C6    N15   S    
C59   C60   A    
C75   C76   A    
C32   O14   S    
C80   C81   A    
C95   O35   D    
C67   C86   S    
C2    C76   S    
O26   C87   A    
C8    H2    S    
N6    C38   S    
N18   H39   S    
V2    O10   S    
C33   C34   A    
N2    C11   A    
C7    C12   S    
C71   C76   A    
