data_mof_unit_7256.cif
_audit_creation_date              2012-12-10T17:08:36-0500
_audit_creation_method            fapswitch 2.2
_symmetry_space_group_name_H-M    P1
_symmetry_Int_Tables_number       1
_space_group_crystal_system       triclinic
_cell_length_a                    15.704205
_cell_length_b                    10.616714
_cell_length_c                    10.130843
_cell_angle_alpha                 93.682267
_cell_angle_beta                  89.529234
_cell_angle_gamma                 89.940259
_cell_volume                      1685.53957066

loop_
_atom_site_label
_atom_site_type_symbol
_atom_type_description
_atom_site_fract_x
_atom_site_fract_y
_atom_site_fract_z
_atom_type_partial_charge
C1    C     C_R   0.498605 0.262828 0.495420 0.878760
C2    C     C_2   0.475664 0.871034 0.519805 0.344290
C3    C     C_2   0.434586 0.063474 0.422779 0.238992
C4    C     C_R   0.338694 0.499263 0.500550 0.873271
C5    C     C_2   0.498417 0.129901 0.481218 -0.282283
C6    C     C_2   0.554279 0.563326 0.930449 0.289535
C7    C     C_2   0.533658 0.586977 0.076953 0.065777
C8    C     C_R   0.495541 0.738071 0.504864 0.798158
C9    C     C_R   0.661307 0.499978 0.499434 0.883054
C10   C     C_3   0.049064 0.437762 0.642605 0.524587
C11   C     C_3   0.050559 0.415506 0.385125 0.161073
C12   C     C_3   0.947309 0.436235 0.633613 0.215773
C13   C     C_3   0.952614 0.430979 0.375748 -0.102996
C14   C     C_1   0.750047 0.500603 0.498719 -0.236966
C15   C     C_3   0.082626 0.494872 0.509906 -0.141307
C16   C     C_3   0.851908 0.296308 0.729030 -0.361639
C17   C     C_3   0.036971 0.531403 0.868097 -0.219004
C18   C     C_3   0.941383 0.834251 0.405566 -0.334305
C19   C     C_3   0.550024 0.922613 0.714111 -0.303330
C20   C     C_3   0.355309 0.120417 0.365357 -0.400462
C21   C     C_3   0.276296 0.089469 0.445700 -0.881306
C22   C     C_3   0.639146 0.606300 0.877213 -0.459245
C23   C     C_3   0.917212 0.501469 0.506881 -0.140656
C24   C     C_3   0.694298 0.681283 0.978337 -0.986480
C25   C     C_3   0.374139 0.399955 0.865054 -0.122831
C26   C     C_3   0.087785 0.300610 0.653935 -0.327640
C27   C     C_3   0.083590 0.246989 0.790365 -0.831132
C28   C     C_3   0.515898 0.368076 0.104076 -0.139974
C29   C     C_3   0.608317 0.326834 0.123654 -0.872994
C30   C     C_3   0.116832 0.357999 0.182124 -0.318450
C31   C     C_3   0.907424 0.303747 0.331099 -0.327780
C32   C     C_3   0.850597 0.316772 0.210644 -0.946184
C33   C     C_3   0.147198 0.801615 0.546875 -0.265508
C34   C     C_3   0.951148 0.642548 0.515396 0.801094
C35   C     C_3   0.845361 0.740283 0.662315 -0.338005
C36   C     C_3   0.050993 0.634823 0.500847 0.293998
C37   C     C_1   0.825380 0.501368 0.501308 0.101796
C38   C     C_1   0.174665 0.495727 0.505589 0.137841
C39   C     C_1   0.249969 0.497084 0.502331 -0.193554
C40   C     C_2   0.444112 0.926982 0.415854 -0.300376
H1    H     H_    0.919001 0.494839 0.717248 0.124242
H2    H     H_    0.830618 0.196551 0.723192 0.194029
H3    H     H_    0.994376 0.614890 0.868386 0.201904
H4    H     H_    0.082604 0.549702 0.949960 0.192667
H5    H     H_    0.999862 0.446713 0.890286 0.123196
H6    H     H_    0.995787 0.841333 0.335909 0.158604
H7    H     H_    0.958112 0.879676 0.503787 0.216724
H8    H     H_    0.888070 0.889291 0.366826 0.185607
H9    H     H_    0.606144 0.898649 0.649044 0.108987
H10   H     H_    0.542173 0.851578 0.788870 0.202020
H11   H     H_    0.563990 0.014147 0.768620 0.175616
H12   H     H_    0.430342 0.874729 0.322699 0.140017
H13   H     H_    0.266435 0.985833 0.442943 0.261682
H14   H     H_    0.283253 0.126794 0.550053 0.265606
H15   H     H_    0.219352 0.133615 0.403465 0.227465
H16   H     H_    0.358828 0.224394 0.362794 0.210388
H17   H     H_    0.347611 0.081843 0.261575 0.194462
H18   H     H_    0.662417 0.771278 0.011845 0.259876
H19   H     H_    0.707528 0.624980 0.064613 0.279505
H20   H     H_    0.756139 0.704552 0.932279 0.264764
H21   H     H_    0.676030 0.521432 0.841303 0.222944
H22   H     H_    0.627979 0.666708 0.793805 0.236768
H23   H     H_    0.555305 0.084805 0.516030 0.125086
H24   H     H_    0.410513 0.327118 0.804992 0.164178
H25   H     H_    0.314875 0.423778 0.813363 0.189357
H26   H     H_    0.353352 0.357215 0.957081 0.100306
H27   H     H_    0.121551 0.305413 0.862912 0.250301
H28   H     H_    0.017089 0.238450 0.825415 0.268382
H29   H     H_    0.111721 0.150717 0.783834 0.236499
H30   H     H_    0.056916 0.230421 0.584114 0.201483
H31   H     H_    0.156283 0.298972 0.626482 0.171526
H32   H     H_    0.653664 0.394042 0.081820 0.244295
H33   H     H_    0.622791 0.317729 0.229075 0.291349
H34   H     H_    0.548085 0.678374 0.125339 0.111260
H35   H     H_    0.618807 0.232602 0.071907 0.212961
H36   H     H_    0.472175 0.307905 0.158456 0.188233
H37   H     H_    0.500852 0.342809 0.000797 0.154824
H38   H     H_    0.061835 0.299668 0.146829 0.167895
H39   H     H_    0.165122 0.299096 0.229306 0.160701
H40   H     H_    0.147717 0.396820 0.094794 0.187652
H41   H     H_    0.801171 0.390219 0.232288 0.280889
H42   H     H_    0.889517 0.342610 0.124396 0.258441
H43   H     H_    0.818374 0.225587 0.184596 0.253277
H44   H     H_    0.954145 0.227648 0.304108 0.189477
H45   H     H_    0.067159 0.315343 0.398264 0.094034
H46   H     H_    0.867138 0.268191 0.410719 0.266690
H47   H     H_    0.112687 0.871897 0.490965 0.130122
H48   H     H_    0.196186 0.752721 0.482446 0.149667
H49   H     H_    0.180839 0.853776 0.629221 0.203943
H50   H     H_    0.810692 0.762046 0.571508 0.201509
H51   H     H_    0.842728 0.826428 0.730202 0.183367
H52   H     H_    0.811748 0.664827 0.712524 0.158739
H53   H     H_    0.941579 0.496223 0.295663 0.243114
H54   H     H_    0.067950 0.662550 0.399344 0.116416
H55   H     H_    0.795563 0.356166 0.712012 0.174145
H56   H     H_    0.876648 0.318720 0.830219 0.153773
N1    N     N_2   0.500900 0.501330 0.852150 0.040113
N2    N     N_2   0.500920 0.501360 0.147810 -0.067148
O1    O     O_R   0.499990 0.319060 0.613040 -0.619677
O2    O     O_3   0.083502 0.519167 0.747771 -0.545950
O3    O     O_3   0.915413 0.706690 0.408543 -0.661880
O4    O     O_3   0.472890 0.934955 0.644868 -0.581299
O5    O     O_3   0.419924 0.511478 0.899847 -0.537556
O6    O     O_3   0.089857 0.459444 0.269305 -0.595767
O7    O     O_3   0.090049 0.715656 0.600847 -0.510311
O8    O     O_3   0.931906 0.706494 0.641463 -0.592992
O9    O     O_R   0.500010 0.319100 0.386900 -0.641243
O10   O     O_R   0.377130 0.499990 0.613120 -0.583572
O11   O     O_R   0.377160 0.500030 0.386980 -0.606225
O12   O     O_R   0.499990 0.680900 0.613100 -0.586428
O13   O     O_R   0.500010 0.680940 0.386960 -0.641335
O14   O     O_R   0.622840 0.499970 0.613020 -0.651783
O15   O     O_R   0.622870 0.500010 0.386880 -0.601320
O16   O     O_3   0.915722 0.310341 0.631767 -0.618182
Zn1   Zn    Zn3+2 0.499980 0.499970 0.650990 0.967171
Zn2   Zn    Zn3+2 0.500020 0.500030 0.349010 0.930829

loop_
_geom_bond_atom_site_label_1
_geom_bond_atom_site_label_2
_ccdc_geom_bond_type
C4    O11   A    
C7    N2    D    
C20   H16   S    
C18   H7    S    
C1    O1    A    
C32   H41   S    
C4    O10   A    
C12   C23   S    
C13   C23   S    
C26   C27   S    
C1    C5    S    
O10   Zn1   S    
C28   C29   S    
C33   H48   S    
C17   H5    S    
C8    O12   A    
C10   C15   S    
O1    Zn1   S    
C38   C39   T    
C19   O4    S    
C29   H33   S    
C2    O4    S    
C6    C22   S    
C5    H23   S    
C27   H28   S    
O11   Zn2   S    
C11   C15   S    
O13   Zn2   S    
N1    Zn1   S    
C27   H29   S    
C29   H32   S    
C30   H40   S    
C35   H52   S    
C10   C26   S    
C9    O14   A    
C31   H46   S    
C26   H31   S    
C18   H6    S    
C7    H34   S    
C12   O16   S    
C16   H56   S    
C34   O3    S    
C34   O8    S    
C6    N1    D    
C25   H25   S    
C8    O13   A    
C21   H15   S    
C36   H54   S    
C25   O5    S    
C23   C37   S    
C31   H44   S    
C13   H53   S    
C25   H24   S    
C9    C14   S    
C17   H3    S    
C15   C38   S    
C12   H1    S    
C33   H49   S    
C22   H22   S    
C19   H9    S    
N2    Zn2   S    
C31   C32   S    
C4    C39   S    
C24   H20   S    
C23   C34   S    
C33   O7    S    
C3    C20   S    
N1    O5    S    
C10   O2    S    
C28   H37   S    
C11   O6    S    
C10   C12   S    
C1    O9    A    
C30   H39   S    
C3    C40   S    
C26   H30   S    
C22   C24   S    
C28   H36   S    
C16   H2    S    
C15   C36   S    
C28   N2    S    
C32   H43   S    
C16   H55   S    
C36   O7    S    
C13   C31   S    
C2    C8    S    
C25   H26   S    
C3    C5    D    
C16   O16   S    
C18   H8    S    
C6    C7    S    
C29   H35   S    
C32   H42   S    
C9    O15   A    
O15   Zn2   S    
C33   H47   S    
C17   H4    S    
C35   O8    S    
C40   H12   S    
C22   H21   S    
C21   H13   S    
C11   C13   S    
C19   H10   S    
C21   H14   S    
C11   H45   S    
C24   H19   S    
C19   H11   S    
C34   C36   S    
C17   O2    S    
O9    Zn2   S    
C27   H27   S    
C30   H38   S    
C35   H50   S    
C2    C40   D    
C20   C21   S    
C24   H18   S    
C30   O6    S    
C20   H17   S    
O12   Zn1   S    
C18   O3    S    
O14   Zn1   S    
C14   C37   T    
C35   H51   S    
