data_mof_unit_66681.cif
_audit_creation_date              2012-12-11T18:15:38-0500
_audit_creation_method            fapswitch 2.2
_symmetry_space_group_name_H-M    P1
_symmetry_Int_Tables_number       1
_space_group_crystal_system       triclinic
_cell_length_a                    20.162803
_cell_length_b                    19.916077
_cell_length_c                    8.337659
_cell_angle_alpha                 90.000113
_cell_angle_beta                  91.714561
_cell_angle_gamma                 89.988818
_cell_volume                      3346.60412618

loop_
_atom_site_label
_atom_site_type_symbol
_atom_type_description
_atom_site_fract_x
_atom_site_fract_y
_atom_site_fract_z
_atom_type_partial_charge
Ba1   Ba    Ba6+2 0.999980 0.452130 0.155200 1.632264
Ba2   Ba    Ba6+2 0.999980 0.547870 0.655200 1.634260
Ba3   Ba    Ba6+2 0.499980 0.952130 0.155200 1.633054
Ba4   Ba    Ba6+2 0.499980 0.047870 0.655200 1.636053
C1    C     C_3   0.967010 0.132385 0.479467 -0.023784
C2    C     C_R   0.110959 0.663913 0.182569 -0.266309
C3    C     C_R   0.612789 0.837471 0.679304 -0.290087
C4    C     C_R   0.610958 0.163915 0.182575 -0.254639
C5    C     C_R   0.126439 0.284921 0.575132 -0.000033
C6    C     C_R   0.123843 0.717093 0.079523 0.011968
C7    C     C_R   0.626447 0.784927 0.575126 -0.000038
C8    C     C_R   0.623842 0.217094 0.079529 0.020953
C9    C     C_R   0.174218 0.236960 0.618769 -0.089636
C10   C     C_R   0.171664 0.764999 0.122993 -0.148082
C11   C     C_R   0.674226 0.736966 0.618760 -0.089883
C12   C     C_3   0.988397 0.880844 0.953101 -0.055168
C13   C     C_R   0.671663 0.265000 0.122999 -0.144867
C14   C     C_R   0.211000 0.243178 0.764225 0.047198
C15   C     C_R   0.209481 0.757981 0.266671 -0.005823
C16   C     C_R   0.711008 0.743185 0.764216 0.047473
C17   C     C_R   0.709482 0.257981 0.266676 -0.006846
C18   C     C_R   0.200980 0.299584 0.864745 -0.030972
C19   C     C_R   0.200646 0.700654 0.365043 -0.036045
C20   C     C_R   0.700985 0.799588 0.864741 -0.030788
C21   C     C_R   0.700647 0.200653 0.365046 -0.036918
C22   C     C_R   0.799356 0.700941 0.947227 -0.032643
C23   C     C_3   0.467029 0.632388 0.479665 -0.023636
C24   C     C_R   0.799449 0.298963 0.446557 -0.031476
C25   C     C_R   0.299352 0.200938 0.947231 -0.032837
C26   C     C_R   0.299445 0.798966 0.446555 -0.031624
C27   C     C_R   0.789384 0.757373 0.047753 0.006944
C28   C     C_R   0.790614 0.241656 0.545021 -0.004358
C29   C     C_R   0.289382 0.257371 0.047753 0.006192
C30   C     C_R   0.290609 0.741660 0.545022 -0.004438
C31   C     C_R   0.849905 0.653493 0.990638 0.044369
C32   C     C_R   0.849972 0.346442 0.489958 0.045478
C33   C     C_R   0.349904 0.153492 0.990637 0.042542
C34   C     C_3   0.488399 0.380841 0.953119 -0.052783
C35   C     C_R   0.349969 0.846444 0.489956 0.045455
C36   C     C_R   0.888169 0.663501 0.131521 -0.275098
C37   C     C_R   0.888403 0.336366 0.630351 -0.274966
C38   C     C_R   0.388169 0.163501 0.131518 -0.274429
C39   C     C_R   0.388398 0.836370 0.630352 -0.275051
C40   C     C_3   0.020082 0.203193 0.923473 0.375329
C41   C     C_3   0.022268 0.793909 0.401723 0.537493
C42   C     C_3   0.520124 0.703241 0.923778 0.375373
C43   C     C_3   0.522263 0.293913 0.401705 0.631200
C44   C     C_R   0.874794 0.716315 0.235754 0.010639
C45   C     C_R   0.150602 0.347135 0.820674 0.045288
C46   C     C_R   0.875689 0.283027 0.733312 0.011912
C47   C     C_R   0.374794 0.216315 0.235751 0.018517
C48   C     C_R   0.375679 0.783035 0.733316 0.011980
C49   C     C_R   0.826427 0.763788 0.192807 -0.151581
C50   C     C_R   0.828245 0.234830 0.689087 -0.149611
C51   C     C_R   0.326426 0.263788 0.192805 -0.153514
C52   C     C_R   0.328236 0.734837 0.689092 -0.149446
C53   C     C_R   0.758581 0.694194 0.807549 0.012250
C54   C     C_R   0.757458 0.306665 0.309279 -0.040490
C55   C     C_R   0.258573 0.194187 0.807560 0.012442
C56   C     C_R   0.149865 0.653393 0.321903 0.043262
C57   C     C_R   0.257456 0.806666 0.309273 -0.040109
C58   C     C_3   0.049323 0.133311 0.948692 0.160758
C59   C     C_3   0.051853 0.864453 0.398059 0.217841
C60   C     C_3   0.549359 0.633352 0.948912 0.160857
C61   C     C_3   0.551848 0.364457 0.398061 0.217080
C62   C     C_3   0.810916 0.457812 0.818010 0.308913
C63   C     C_3   0.810591 0.542039 0.317524 0.300499
C64   C     C_3   0.310912 0.957813 0.818005 0.309031
C65   C     C_3   0.310592 0.042040 0.317530 0.300487
C66   C     C_3   0.748347 0.415154 0.805091 -0.392981
C67   C     C_R   0.650605 0.847137 0.820673 0.045217
C68   C     C_3   0.747814 0.584395 0.303758 -0.376521
C69   C     C_3   0.248342 0.915158 0.805086 -0.393077
C70   C     C_3   0.247816 0.084398 0.303770 -0.376519
C71   C     C_3   0.187603 0.543502 0.987873 0.309451
C72   C     C_3   0.190185 0.457991 0.493685 0.307159
C73   C     C_3   0.687600 0.043503 0.987874 0.309267
C74   C     C_3   0.690186 0.957991 0.493672 0.306994
C75   C     C_3   0.248988 0.587759 0.989582 -0.401421
C76   C     C_3   0.253219 0.415964 0.505363 -0.392512
C77   C     C_3   0.748988 0.087758 0.989614 -0.401416
C78   C     C_R   0.649865 0.153393 0.321906 0.041825
C79   C     C_3   0.753221 0.915965 0.505353 -0.392265
C80   C     C_3   0.982065 0.203930 0.425055 0.444512
C81   C     C_3   0.989338 0.806670 0.905055 0.340184
C82   C     C_3   0.482085 0.703936 0.425282 0.444535
C83   C     C_3   0.489335 0.306668 0.905040 0.324137
C84   C     C_R   0.241444 0.306110 0.004980 -0.047349
C85   C     C_R   0.242782 0.692832 0.502068 -0.043804
C86   C     C_R   0.741446 0.806112 0.004981 -0.047760
C87   C     C_R   0.742785 0.192829 0.502068 -0.043560
C88   C     C_3   0.904228 0.081913 0.253471 -0.231014
C89   C     C_R   0.112784 0.337467 0.679307 -0.290121
C90   C     C_3   0.871152 0.915218 0.935388 -0.249128
C91   C     C_3   0.404160 0.581993 0.253702 -0.231115
C92   C     C_3   0.371153 0.415219 0.935390 -0.250243
H1    H     H_    0.941826 0.222513 0.342705 0.050995
H2    H     H_    0.759888 0.636644 0.270017 0.068232
H3    H     H_    0.865268 0.058953 0.327449 0.108334
H4    H     H_    0.918548 0.868408 0.133111 0.197381
H5    H     H_    0.830262 0.931756 0.012302 0.137020
H6    H     H_    0.854390 0.871035 0.863878 0.106648
H7    H     H_    0.883079 0.957207 0.853445 0.124355
H8    H     H_    0.485221 0.539418 0.373988 0.216952
H9    H     H_    0.411082 0.550221 0.146036 0.126767
H10   H     H_    0.387683 0.632525 0.212944 0.141742
H11   H     H_    0.365190 0.559078 0.327728 0.108340
H12   H     H_    0.418545 0.368402 0.133119 0.199900
H13   H     H_    0.260628 0.862926 0.771461 0.065364
H14   H     H_    0.330263 0.431761 0.012301 0.137168
H15   H     H_    0.354389 0.371034 0.863881 0.107007
H16   H     H_    0.383083 0.457208 0.853443 0.124491
H17   H     H_    0.130572 0.085269 0.912794 0.311337
H18   H     H_    0.109107 0.866878 0.588362 0.310850
H19   H     H_    0.630729 0.585406 0.913658 0.311277
H20   H     H_    0.609112 0.366868 0.588349 0.309540
H21   H     H_    0.259892 0.136648 0.270042 0.067436
H22   H     H_    0.723608 0.414276 0.922309 0.118186
H23   H     H_    0.722883 0.585279 0.420735 0.125553
H24   H     H_    0.223605 0.914278 0.922307 0.118098
H25   H     H_    0.222884 0.085277 0.420745 0.125626
H26   H     H_    0.167794 0.541466 0.109931 0.006784
H27   H     H_    0.168819 0.461718 0.613897 0.011919
H28   H     H_    0.667781 0.041467 0.109921 0.005879
H29   H     H_    0.946229 0.795525 0.823424 0.078594
H30   H     H_    0.668816 0.961713 0.613881 0.011881
H31   H     H_    0.150182 0.565636 0.903076 0.078149
H32   H     H_    0.154468 0.433137 0.408876 0.063738
H33   H     H_    0.650187 0.065639 0.903061 0.077685
H34   H     H_    0.654471 0.933138 0.408852 0.063723
H35   H     H_    0.285881 0.568143 0.078811 0.110986
H36   H     H_    0.288484 0.438130 0.595522 0.121646
H37   H     H_    0.785871 0.068143 0.078871 0.111130
H38   H     H_    0.788480 0.938126 0.595538 0.121677
H39   H     H_    0.236317 0.640044 0.021713 0.073803
H40   H     H_    0.441818 0.722548 0.343045 0.050771
H41   H     H_    0.241751 0.363887 0.541760 0.057867
H42   H     H_    0.736314 0.140044 0.021726 0.072135
H43   H     H_    0.741752 0.863884 0.541720 0.057909
H44   H     H_    0.271074 0.587654 0.869168 0.117432
H45   H     H_    0.277011 0.414520 0.386965 0.117631
H46   H     H_    0.771087 0.087648 0.869214 0.117597
H47   H     H_    0.777022 0.914533 0.386964 0.117657
H48   H     H_    0.982666 0.235970 0.534266 -0.153436
H49   H     H_    0.984419 0.775592 0.014776 -0.050360
H50   H     H_    0.482742 0.735955 0.534534 -0.153550
H51   H     H_    0.446229 0.295533 0.823387 0.077130
H52   H     H_    0.484406 0.275581 0.014747 -0.021693
H53   H     H_    0.919038 0.131013 0.542039 0.025539
H54   H     H_    0.031822 0.890839 0.034745 0.064160
H55   H     H_    0.419081 0.631021 0.542345 0.025548
H56   H     H_    0.531822 0.390826 0.034780 0.068295
H57   H     H_    0.017763 0.095867 0.883160 0.045130
H58   H     H_    0.097552 0.864358 0.326196 -0.032877
H59   H     H_    0.517948 0.595953 0.882737 0.044774
H60   H     H_    0.597543 0.364367 0.326183 -0.028502
H61   H     H_    0.075042 0.373745 0.644666 0.067739
H62   H     H_    0.713610 0.436385 0.712439 0.136620
H63   H     H_    0.073469 0.627447 0.147542 0.062697
H64   H     H_    0.575045 0.873747 0.644666 0.067682
H65   H     H_    0.573467 0.127450 0.147548 0.061032
H66   H     H_    0.183288 0.195521 0.538191 0.066873
H67   H     H_    0.180526 0.806565 0.042649 0.069093
H68   H     H_    0.683296 0.695528 0.538181 0.066879
H69   H     H_    0.680527 0.306566 0.042655 0.068036
H70   H     H_    0.817203 0.805127 0.273541 0.065788
H71   H     H_    0.819689 0.193055 0.768935 0.071072
H72   H     H_    0.317202 0.305127 0.273538 0.065456
H73   H     H_    0.713305 0.562971 0.210864 0.131394
H74   H     H_    0.319680 0.693063 0.768943 0.071132
H75   H     H_    0.926016 0.627275 0.165733 0.065850
H76   H     H_    0.925775 0.372947 0.665410 0.065349
H77   H     H_    0.426017 0.127277 0.165728 0.066555
H78   H     H_    0.425772 0.872950 0.665409 0.065315
H79   H     H_    0.236589 0.349042 0.082733 0.097942
H80   H     H_    0.238859 0.649113 0.577789 0.102939
H81   H     H_    0.736588 0.849042 0.082740 0.097855
H82   H     H_    0.738862 0.149110 0.577788 0.102967
H83   H     H_    0.763150 0.651096 0.730173 0.098034
H84   H     H_    0.213604 0.936393 0.712442 0.136502
H85   H     H_    0.761408 0.350322 0.233369 0.102528
H86   H     H_    0.263142 0.151088 0.730186 0.098102
H87   H     H_    0.261408 0.850322 0.233361 0.102498
H88   H     H_    0.006543 0.116989 0.567906 0.083517
H89   H     H_    0.993935 0.913062 0.845294 0.153460
H90   H     H_    0.506590 0.616969 0.568005 0.083230
H91   H     H_    0.493943 0.413069 0.845324 0.153262
H92   H     H_    0.051768 0.239939 0.990630 0.091600
H93   H     H_    0.056269 0.760483 0.472510 0.046037
H94   H     H_    0.551733 0.739955 0.991266 0.092064
H95   H     H_    0.213308 0.062977 0.210867 0.131466
H96   H     H_    0.556267 0.260481 0.472470 0.039797
H97   H     H_    0.020202 0.215013 0.793313 -0.054013
H98   H     H_    0.018572 0.775514 0.276147 -0.295692
H99   H     H_    0.520379 0.715149 0.793662 -0.054127
H100  H     H_    0.518560 0.275526 0.276121 -0.417501
H101  H     H_    0.050325 0.120978 0.078880 0.117358
H102  H     H_    0.015758 0.899274 0.338835 0.079795
H103  H     H_    0.550088 0.620871 0.079044 0.117432
H104  H     H_    0.515751 0.399283 0.338861 0.078860
H105  H     H_    0.833120 0.461112 0.698645 0.009262
H106  H     H_    0.760636 0.362921 0.771476 0.065286
H107  H     H_    0.832938 0.538627 0.198333 0.010268
H108  H     H_    0.333116 0.961115 0.698639 0.009219
H109  H     H_    0.332939 0.038630 0.198339 0.010095
H110  H     H_    0.846273 0.433574 0.904698 0.069532
H111  H     H_    0.845755 0.566554 0.404211 0.065378
H112  H     H_    0.346270 0.933573 0.904689 0.069457
H113  H     H_    0.345757 0.066554 0.404220 0.064694
H114  H     H_    0.985302 0.039418 0.373878 0.217046
H115  H     H_    0.911202 0.050154 0.145808 0.126816
H116  H     H_    0.887707 0.132430 0.212709 0.141673
N1    N     N_2   0.966138 0.086065 0.345057 -0.405471
N2    N     N_2   0.928480 0.898214 0.035638 -0.457464
N3    N     N_2   0.466091 0.586085 0.345218 -0.405529
N4    N     N_2   0.428480 0.398211 0.035650 -0.457472
O1    O     O_2   0.130070 0.404060 0.104920 -0.467751
O2    O     O_3   0.959584 0.795979 0.471412 -0.595169
O3    O     O_3   0.455274 0.703992 0.980920 -0.638993
O4    O     O_3   0.459583 0.295978 0.471414 -0.598699
O5    O     O_3   0.924190 0.533610 0.949240 -0.494460
O6    O     O_3   0.924190 0.466390 0.449240 -0.493729
O7    O     O_3   0.424190 0.033610 0.949240 -0.494462
O8    O     O_3   0.424190 0.966390 0.449240 -0.493890
O9    O     O_3   0.075780 0.466370 0.861070 -0.493724
O10   O     O_3   0.075780 0.533630 0.361070 -0.492930
O11   O     O_3   0.575780 0.966370 0.861070 -0.493787
O12   O     O_2   0.130070 0.595940 0.604920 -0.466584
O13   O     O_3   0.575780 0.033630 0.361070 -0.493141
O14   O     O_3   0.022320 0.344950 0.359800 -0.479629
O15   O     O_3   0.022320 0.655050 0.859800 -0.476967
O16   O     O_3   0.522320 0.844950 0.359800 -0.479714
O17   O     O_3   0.522320 0.155050 0.859800 -0.478031
O18   O     O_2   0.130169 0.289053 0.239446 -0.486087
O19   O     O_2   0.134907 0.704611 0.751456 -0.488775
O20   O     O_2   0.630159 0.789036 0.239430 -0.486070
O21   O     O_2   0.634908 0.204611 0.751462 -0.490208
O22   O     O_3   0.206047 0.479060 0.940006 -0.649876
O23   O     O_2   0.630070 0.904060 0.104920 -0.467789
O24   O     O_3   0.206876 0.521900 0.438872 -0.643132
O25   O     O_3   0.706046 0.979061 0.940009 -0.649717
O26   O     O_3   0.706877 0.021902 0.438873 -0.643240
O27   O     O_3   0.042659 0.204631 0.344982 -0.593855
O28   O     O_3   0.047923 0.794653 0.821876 -0.585848
O29   O     O_3   0.542645 0.704634 0.345061 -0.593891
O30   O     O_3   0.547923 0.294653 0.821874 -0.586904
O31   O     O_2   0.869860 0.403670 0.205810 -0.465430
O32   O     O_2   0.869860 0.596330 0.705810 -0.470373
O33   O     O_2   0.369860 0.903670 0.205810 -0.465472
O34   O     O_2   0.630070 0.095940 0.604920 -0.466629
O35   O     O_2   0.369860 0.096330 0.705810 -0.470722
O36   O     O_3   0.977590 0.344880 0.951200 -0.485918
O37   O     O_3   0.977590 0.655120 0.451200 -0.479968
O38   O     O_3   0.477590 0.844880 0.951200 -0.486071
O39   O     O_3   0.477590 0.155120 0.451200 -0.477581
O40   O     O_2   0.867577 0.291875 0.064404 -0.482402
O41   O     O_2   0.870669 0.711661 0.571103 -0.495617
O42   O     O_2   0.367575 0.791870 0.064407 -0.482337
O43   O     O_2   0.370668 0.211660 0.571100 -0.498042
O44   O     O_3   0.113827 0.131367 0.891401 -0.758067
O45   O     O_3   0.793274 0.478000 0.370620 -0.637710
O46   O     O_3   0.066199 0.887603 0.553945 -0.707065
O47   O     O_3   0.614013 0.631527 0.892420 -0.757904
O48   O     O_3   0.566203 0.387597 0.553955 -0.712477
O49   O     O_3   0.793372 0.521890 0.870499 -0.636062
O50   O     O_3   0.293274 0.978001 0.370617 -0.637600
O51   O     O_3   0.293371 0.021891 0.870502 -0.635962
O52   O     O_3   0.955298 0.204005 0.980995 -0.638876
P1    P     P_3+3 0.136530 0.426510 0.931350 0.964488
P2    P     P_3+3 0.919192 0.719574 0.432252 0.961367
P3    P     P_3+3 0.418333 0.781091 0.931622 0.934543
P4    P     P_3+3 0.419192 0.219574 0.432250 0.969141
P5    P     P_3+3 0.082760 0.717676 0.879646 0.954602
P6    P     P_3+3 0.082078 0.281740 0.379292 0.963341
P7    P     P_3+3 0.582760 0.217676 0.879650 0.954312
P8    P     P_3+3 0.582077 0.781741 0.379300 0.963266
P9    P     P_3+3 0.136530 0.573490 0.431350 0.969198
P10   P     P_3+3 0.636530 0.926510 0.931350 0.964476
P11   P     P_3+3 0.636530 0.073490 0.431350 0.969219
P12   P     P_3+3 0.863410 0.426100 0.379280 0.972591
P13   P     P_3+3 0.863410 0.573900 0.879280 0.974725
P14   P     P_3+3 0.363410 0.926100 0.379280 0.972527
P15   P     P_3+3 0.363410 0.073900 0.879280 0.974550
P16   P     P_3+3 0.918339 0.281088 0.931629 0.934564

loop_
_geom_bond_atom_site_label_1
_geom_bond_atom_site_label_2
_ccdc_geom_bond_type
Ba1   O10   S    
C66   H106  S    
C21   C87   A    
C87   H82   S    
C29   C51   A    
Ba3   O8    S    
C76   H36   S    
C5    C89   A    
C64   H108  S    
C71   H26   S    
C91   N3    S    
Ba4   O17   S    
O16   P8    S    
C81   H29   S    
C78   P11   S    
C59   O46   S    
C50   H71   S    
Ba3   O13   S    
Ba2   P9    S    
C79   H43   S    
C2    H63   S    
C60   O47   S    
O49   P13   S    
C9    H66   S    
C40   O52   S    
C68   H2    S    
C43   H96   S    
C3    C7    A    
C92   H16   S    
C60   H59   S    
H4    N2    S    
C40   H97   S    
O2    P2    S    
C84   H79   S    
C83   H51   S    
C9    C14   A    
O52   P16   S    
O29   P8    S    
C4    C78   A    
C80   H1    S    
C51   H72   S    
O30   P7    S    
C29   C84   A    
C81   H49   S    
Ba1   Ba2   S    
C61   H60   S    
C4    H65   S    
O36   P16   S    
C3    C67   A    
C62   H110  S    
C39   H78   S    
C39   C48   A    
C28   C87   A    
Ba3   O33   S    
C80   H48   S    
C35   P14   S    
C76   H41   S    
O17   P7    S    
O23   P10   D    
C25   C29   A    
O38   P3    S    
Ba2   O6    S    
Ba4   P15   S    
C1    H53   S    
O15   P5    S    
Ba1   O5    S    
C63   C68   S    
C73   H33   S    
Ba4   O11   S    
C28   C50   A    
O31   P12   D    
Ba2   O32   S    
C26   C57   A    
C32   P12   S    
C64   O51   S    
C5    C9    A    
C91   H9    S    
C77   H42   S    
C42   H99   S    
O10   P9    S    
C62   H105  S    
C7    C11   A    
C74   C79   S    
Ba3   P14   S    
O8    P14   S    
C25   C55   A    
C90   H5    S    
C79   H38   S    
C8    C13   A    
C64   H112  S    
Ba1   O36   S    
C19   C85   A    
O20   P8    D    
H17   O44   S    
C18   C84   A    
C33   P15   S    
C1    H88   S    
C71   H31   S    
C38   C47   A    
C74   O26   S    
O50   P14   S    
C75   H44   S    
C86   H81   S    
C44   P2    S    
C22   C27   A    
C69   H24   S    
C47   P4    S    
O14   P6    S    
C23   N3    S    
C41   O2    S    
C69   H84   S    
C32   C37   A    
C19   C56   A    
O26   P11   S    
C42   H94   S    
C30   C52   A    
Ba1   O14   S    
C8    P7    S    
C34   H56   S    
O32   P13   D    
C63   O45   S    
C33   C38   A    
Ba2   P13   S    
O7    P15   S    
O39   P4    S    
Ba4   O7    S    
C65   C70   S    
C11   C16   A    
O11   P10   S    
C92   H15   S    
C57   H87   S    
C67   P10   S    
C90   N2    S    
C83   H52   S    
C26   C30   A    
Ba2   O12   S    
C14   C55   A    
C2    C56   A    
C43   H100  S    
C24   C28   A    
C59   H58   S    
Ba1   P12   S    
Ba1   O31   S    
C65   O50   S    
C53   H83   S    
C1    C80   S    
O40   P16   D    
Ba3   P10   S    
C35   C39   A    
C3    H64   S    
C47   C51   A    
C40   C58   S    
C64   C69   S    
Ba4   O8    S    
C92   H14   S    
Ba4   P11   S    
C41   C59   S    
C81   O28   S    
C13   C17   A    
C31   P13   S    
C46   P16   S    
Ba1   O6    S    
C66   H62   S    
C23   H90   S    
C55   H86   S    
C15   C19   A    
H20   O48   S    
C91   H10   S    
C61   H104  S    
C5    P6    S    
C73   C77   S    
O37   P2    S    
C4    C8    A    
C27   C86   A    
C75   H35   S    
O51   P15   S    
O35   P15   D    
C27   C49   A    
C89   H61   S    
O42   P3    D    
O27   P6    S    
O9    P1    S    
H12   N4    S    
C62   O49   S    
C91   H11   S    
Ba2   O15   S    
C40   H92   S    
C18   C45   A    
C82   H40   S    
C77   H46   S    
Ba4   O35   S    
C90   H7    S    
Ba2   O9    S    
C82   O29   S    
C56   P9    S    
C54   H85   S    
C6    C10   A    
C12   C81   S    
O19   P5    D    
C23   C82   S    
C73   O25   S    
C88   H116  S    
C61   O48   S    
C65   H113  S    
C20   C67   A    
C6    P5    S    
O6    P12   S    
Ba3   Ba4   S    
C74   H30   S    
Ba2   O37   S    
C58   O44   S    
C37   C46   A    
C82   H50   S    
C63   H111  S    
H8    N3    S    
C83   O30   S    
C41   H93   S    
C41   H98   S    
C36   C44   A    
C70   H21   S    
C17   C21   A    
Ba4   O39   S    
O12   P9    D    
C23   H55   S    
C42   O3    S    
C52   H74   S    
C14   C18   A    
C72   H27   S    
C16   C53   A    
C10   C15   A    
C72   C76   S    
C58   H101  S    
C34   N4    S    
C11   H68   S    
C71   O22   S    
C38   H77   S    
C20   C86   A    
Ba3   O16   S    
C2    C6    A    
C88   N1    S    
H19   O47   S    
C10   H67   S    
C59   H102  S    
C88   H3    S    
C77   H37   S    
C92   N4    S    
C24   C54   A    
C44   C49   A    
H114  N1    S    
C75   H39   S    
C43   O4    S    
C62   C66   S    
C65   H109  S    
O18   P6    D    
C58   H57   S    
C72   O24   S    
C34   C83   S    
C12   H89   S    
O34   P11   D    
C16   C20   A    
O5    P13   S    
C31   C36   A    
H18   O46   S    
Ba3   O38   S    
O33   P14   D    
C17   C54   A    
C46   C50   A    
C73   H28   S    
C13   H69   S    
C37   H76   S    
C68   H73   S    
C79   H47   S    
C21   C78   A    
O45   P12   S    
O22   P1    S    
C15   C57   A    
O1    P1    D    
C1    N1    S    
C68   H23   S    
O13   P11   S    
C26   C35   A    
O21   P7    D    
C80   O27   S    
O3    P3    S    
C69   H13   S    
Ba2   O5    S    
C74   H34   S    
O4    P4    S    
C22   C53   A    
C7    P8    S    
C30   C85   A    
C63   H107  S    
C22   C31   A    
Ba4   O34   S    
O25   P10   S    
C48   P3    S    
C48   C52   A    
C49   H70   S    
C66   H22   S    
C70   H25   S    
Ba1   P1    S    
C24   C32   A    
C12   N2    S    
C76   H45   S    
Ba1   O1    S    
C60   H103  S    
C25   C33   A    
C42   C60   S    
Ba3   O7    S    
O24   P9    S    
C88   H115  S    
C12   H54   S    
O41   P2    D    
C85   H80   S    
C45   C89   A    
O28   P5    S    
C71   C75   S    
C43   C61   S    
C36   H75   S    
O43   P4    D    
C34   H91   S    
C90   H6    S    
Ba3   O23   S    
C70   H95   S    
C72   H32   S    
C45   P1    S    
