data_mof_unit_35375.cif
_audit_creation_date              2012-12-10T19:10:04-0500
_audit_creation_method            fapswitch 2.2
_symmetry_space_group_name_H-M    P1
_symmetry_Int_Tables_number       1
_space_group_crystal_system       triclinic
_cell_length_a                    10.900805
_cell_length_b                    10.78475
_cell_length_c                    9.596836
_cell_angle_alpha                 89.903875
_cell_angle_beta                  91.602046
_cell_angle_gamma                 89.843529
_cell_volume                      1127.78067052

loop_
_atom_site_label
_atom_site_type_symbol
_atom_type_description
_atom_site_fract_x
_atom_site_fract_y
_atom_site_fract_z
_atom_type_partial_charge
C1    C     C_R   0.498965 0.262721 0.500186 0.844241
C2    C     C_R   0.155152 0.612077 0.956573 -0.328688
C3    C     C_R   0.930358 0.533660 0.383794 -0.209376
C4    C     C_R   0.872062 0.500843 0.505900 -0.090488
C5    C     C_R   0.943732 0.466425 0.624476 0.061208
C6    C     C_R   0.070500 0.462572 0.615813 -0.229251
C7    C     C_R   0.128587 0.496517 0.493774 -0.109108
C8    C     C_R   0.057006 0.529876 0.374630 -0.022455
C9    C     C_R   0.860514 0.548409 0.842536 -0.123645
C10   C     C_R   0.830693 0.533776 0.982357 0.122890
C11   C     C_R   0.834995 0.415024 0.042519 -0.125476
C12   C     C_R   0.262417 0.499312 0.497723 0.790317
C13   C     C_R   0.866402 0.311262 0.963704 0.416338
C14   C     C_R   0.896974 0.327243 0.823409 -0.258654
C15   C     C_R   0.893805 0.445668 0.763161 0.057814
C16   C     C_R   0.547080 0.064124 0.612868 0.036404
C17   C     C_R   0.492507 0.129606 0.502065 -0.090067
C18   C     C_R   0.426951 0.065153 0.397406 -0.196657
C19   C     C_R   0.426984 0.935782 0.398047 -0.193829
C20   C     C_R   0.494126 0.870919 0.501814 -0.071400
C21   C     C_R   0.548345 0.936198 0.612705 0.045101
C22   C     C_3   0.677683 0.929627 0.669403 -0.525744
C23   C     C_R   0.499902 0.737457 0.500088 0.798146
C24   C     C_3   0.676146 0.070746 0.670717 0.221540
C25   C     C_R   0.442479 0.591341 0.071077 0.275421
C26   C     C_R   0.545566 0.401758 0.075846 -0.083167
C27   C     C_R   0.546003 0.401936 0.927317 -0.065713
C28   C     C_R   0.443813 0.591820 0.924633 0.267941
C29   C     C_3   0.468927 0.727230 0.919531 -0.493535
C30   C     C_3   0.463710 0.727864 0.077272 -0.516902
C31   C     C_R   0.737784 0.500228 0.502257 0.817619
C32   C     C_R   0.129484 0.708274 0.047841 -0.134439
C33   C     C_R   0.107189 0.684097 0.188028 0.417381
C34   C     C_R   0.107454 0.559340 0.236687 -0.081927
C35   C     C_R   0.136497 0.461844 0.143176 0.449635
C36   C     C_R   0.161247 0.490240 0.004869 -0.139879
Cu1   Cu    Cu3+1 0.499990 0.499980 0.640670 0.950339
Cu2   Cu    Cu3+1 0.500010 0.500020 0.359330 0.954145
H1    H     H_    0.172936 0.632399 0.848547 0.180209
H2    H     H_    0.812235 0.402419 0.150534 0.166733
H3    H     H_    0.925853 0.248608 0.762246 0.178657
H4    H     H_    0.378082 0.114448 0.314425 0.177653
H5    H     H_    0.376436 0.886869 0.316994 0.164706
H6    H     H_    0.684172 0.889620 0.775896 0.165448
H7    H     H_    0.741942 0.887824 0.594511 0.203028
H8    H     H_    0.682093 0.111748 0.776868 0.138114
H9    H     H_    0.585115 0.323770 0.132121 0.162312
H10   H     H_    0.127368 0.802739 0.009451 0.168062
H11   H     H_    0.586086 0.324243 0.873832 0.146926
H12   H     H_    0.561960 0.747105 0.881490 0.207848
H13   H     H_    0.392788 0.780147 0.867650 0.203887
H14   H     H_    0.551647 0.754726 0.129693 0.216330
H15   H     H_    0.381902 0.777895 0.114400 0.202217
H16   H     H_    0.184540 0.416338 0.934329 0.160707
H17   H     H_    0.876793 0.564025 0.294389 0.195828
H18   H     H_    0.124397 0.434689 0.706736 0.157620
H19   H     H_    0.861685 0.640181 0.796339 0.126328
N1    N     N_R   0.500790 0.500930 0.147930 -0.201705
N2    N     N_R   0.500790 0.500890 0.852020 -0.195352
O1    O     O_R   0.500000 0.319640 0.618810 -0.586765
O2    O     O_R   0.500010 0.319680 0.381230 -0.584120
O3    O     O_R   0.319640 0.499990 0.618790 -0.591433
O4    O     O_R   0.319650 0.500030 0.381210 -0.573934
O5    O     O_R   0.499990 0.680320 0.618770 -0.581834
O6    O     O_R   0.500000 0.680360 0.381190 -0.589578
O7    O     O_R   0.680350 0.499970 0.618790 -0.571247
O8    O     O_R   0.680360 0.500010 0.381210 -0.593171
O9    O     O_3   0.868136 0.196399 0.027058 -0.715071
H20   H     H_    0.891434 0.133182 0.957594 0.325309
O10   O     O_3   0.759251 0.124928 0.578765 -0.724274
H21   H     H_    0.748210 0.085794 0.485652 0.349359
O11   O     O_3   0.082662 0.784476 0.272162 -0.727382
H22   H     H_    0.084810 0.758216 0.371025 0.325383
O12   O     O_3   0.138409 0.337856 0.180045 -0.713807
H23   H     H_    0.123460 0.328291 0.280508 0.337628
N3    N     N_3   0.799919 0.639142 0.065257 -0.595726
H24   H     H_    0.792909 0.718956 0.003452 0.217553
H25   H     H_    0.713224 0.623304 0.104580 0.231470

loop_
_geom_bond_atom_site_label_1
_geom_bond_atom_site_label_2
_ccdc_geom_bond_type
C31   O7    A    
C35   O12   S    
C16   C21   A    
C35   C36   A    
Cu1   O3    S    
C24   O10   S    
C7    C8    A    
C25   C28   A    
C31   O8    A    
C26   C27   A    
Cu1   Cu2   S    
C28   C29   S    
N3    H25   S    
C34   C35   A    
C18   H4    S    
C5    C6    A    
C2    C32   A    
C18   C19   A    
C33   O11   S    
Cu2   N1    S    
C10   N3    S    
C2    H1    S    
C22   H6    S    
C19   C20   A    
O9    H20   S    
C20   C23   S    
O10   H21   S    
C9    C10   A    
Cu2   O2    S    
C16   C24   S    
C13   C14   A    
C32   H10   S    
C3    H17   S    
C19   H5    S    
C33   C34   A    
C29   H12   S    
C7    C12   S    
C30   H15   S    
O12   H23   S    
Cu1   O1    S    
N3    H24   S    
C3    C8    A    
C1    O1    A    
C12   O4    A    
C4    C5    A    
C29   C30   S    
C12   O3    A    
Cu2   O6    S    
Cu1   O7    S    
C17   C18   A    
C8    C34   S    
C20   C21   A    
C26   N1    A    
Cu1   N2    S    
C26   H9    S    
C14   H3    S    
C23   O5    A    
C22   C24   S    
C25   N1    A    
C3    C4    A    
Cu1   O5    S    
Cu2   O4    S    
C29   H13   S    
C28   N2    A    
C2    C36   A    
C25   C30   S    
C30   H14   S    
C6    H18   S    
O11   H22   S    
C1    O2    A    
C6    C7    A    
C1    C17   S    
C24   H8    S    
C32   C33   A    
C23   O6    A    
C9    C15   A    
C27   N2    A    
C11   C13   A    
C16   C17   A    
C9    H19   S    
C11   H2    S    
C5    C15   S    
C4    C31   S    
C36   H16   S    
C10   C11   A    
C22   H7    S    
Cu2   O8    S    
C14   C15   A    
C21   C22   S    
C27   H11   S    
C13   O9    S    
