data_mof_unit_9692.cif
_audit_creation_date              2012-10-26T20:59:15-0400
_audit_creation_method            fapswitch 2.2
_symmetry_space_group_name_H-M    P1
_symmetry_Int_Tables_number       1
_space_group_crystal_system       triclinic
_cell_length_a                    15.902021
_cell_length_b                    9.140443
_cell_length_c                    7.784893
_cell_angle_alpha                 89.982129
_cell_angle_beta                  89.957489
_cell_angle_gamma                 89.825078
_cell_volume                      1131.54036458

loop_
_atom_site_label
_atom_site_type_symbol
_atom_type_description
_atom_site_fract_x
_atom_site_fract_y
_atom_site_fract_z
_atom_type_partial_charge
C1    C     C_1   0.500003 0.065275 0.500022 -0.003680
C2    C     C_3   0.971101 0.630423 0.546710 0.181441
C3    C     C_1   0.250004 0.501647 0.500286 0.069183
C4    C     C_1   0.749997 0.498296 0.499703 0.073469
C5    C     C_3   0.027964 0.532248 0.659872 -0.198670
C6    C     C_3   0.972040 0.467416 0.339995 -0.161741
C7    C     C_3   0.083248 0.501701 0.500025 -0.053858
C8    C     C_3   0.916755 0.498039 0.499864 -0.040330
C9    C     C_1   0.174683 0.502254 0.500421 0.076218
C10   C     C_1   0.825319 0.497613 0.499531 0.084991
C11   C     C_1   0.499995 0.934725 0.499978 -0.003570
C12   C     C_R   0.500011 0.219944 0.500016 0.558386
C13   C     C_R   0.499988 0.780056 0.499984 0.558649
C14   C     C_R   0.339443 0.500536 0.500052 0.552005
C15   C     C_R   0.660558 0.499463 0.499947 0.553334
C16   C     C_3   0.973046 0.399316 0.610636 0.198004
C17   C     C_3   0.026949 0.600375 0.389226 0.242519
C18   C     C_3   0.028924 0.369294 0.453187 0.179063
Cu1   Cu    Cu3+1 0.500010 0.500000 0.669080 1.101689
Cu2   Cu    Cu3+1 0.499990 0.500000 0.330920 1.103205
H1    H     H_    0.948977 0.440778 0.209230 0.190038
H2    H     H_    0.051052 0.558867 0.790617 0.181539
H3    H     H_    0.959038 0.137376 0.240166 0.358174
H4    H     H_    0.048515 0.856639 0.738983 0.340258
H5    H     H_    0.050879 0.267207 0.907186 0.355546
H6    H     H_    0.007957 0.881130 0.057757 0.398207
N1    N     N_1   0.499990 0.500000 0.076820 -0.062907
N2    N     N_1   0.500010 0.500000 0.923180 -0.062944
O1    O     O_R   0.500000 0.288400 0.642760 -0.494689
O2    O     O_2   0.121164 0.131426 0.525601 -0.166469
O3    O     O_3   0.989181 0.087074 0.334642 -0.359059
O4    O     O_2   0.877629 0.867461 0.477118 -0.156415
O5    O     O_2   0.878153 0.780587 0.774973 -0.227472
O6    O     O_3   0.011350 0.913810 0.661932 -0.343568
O7    O     O_2   0.882193 0.347872 0.895263 -0.285765
O8    O     O_2   0.881890 0.158663 0.672883 -0.134567
O9    O     O_3   0.016109 0.186624 0.860949 -0.433890
O10   O     O_2   0.117521 0.841630 0.325919 -0.170039
O11   O     O_2   0.117181 0.650689 0.104632 -0.304211
O12   O     O_R   0.500000 0.711600 0.357240 -0.494212
O13   O     O_3   0.982564 0.810490 0.138995 -0.427562
O14   O     O_R   0.500000 0.288400 0.357240 -0.494851
O15   O     O_R   0.500000 0.711600 0.642760 -0.494834
O16   O     O_R   0.379080 0.500000 0.642760 -0.499736
O17   O     O_R   0.620920 0.500000 0.357240 -0.496462
O18   O     O_R   0.379070 0.500000 0.357190 -0.486399
O19   O     O_R   0.620930 0.500000 0.642810 -0.485631
O20   O     O_2   0.124157 0.219372 0.228546 -0.266046
S1    S     S_3+6 0.069545 0.197924 0.384048 0.123068
S2    S     S_3+6 0.930885 0.801900 0.616750 0.142711
S3    S     S_3+6 0.934933 0.270248 0.763317 0.098642
S4    S     S_3+6 0.064681 0.729267 0.236214 0.089237

loop_
_geom_bond_atom_site_label_1
_geom_bond_atom_site_label_2
_ccdc_geom_bond_type
C7    C17   S    
Cu2   O14   S    
C3    C9    T    
Cu2   N1    S    
C3    C14   S    
C12   O1    A    
C11   C13   S    
O13   S4    S    
Cu1   Cu2   S    
C1    C11   T    
C16   S3    S    
C15   O19   A    
C7    C18   S    
C4    C15   S    
O11   S4    D    
C14   O18   A    
C2    C17   S    
Cu1   N2    S    
O8    S3    D    
O4    S2    D    
C1    C12   S    
O3    S1    S    
C6    C18   S    
C6    C8    S    
C17   S4    S    
C14   O16   A    
O20   S1    D    
O2    S1    D    
Cu1   O15   S    
C5    C7    S    
O7    S3    D    
O9    S3    S    
Cu1   O19   S    
O6    S2    S    
C2    C5    S    
O10   S4    D    
C15   O17   A    
C4    C10   T    
Cu1   O1    S    
C13   O15   A    
Cu1   O16   S    
H6    O13   S    
C16   C18   S    
C8    C16   S    
C2    C8    S    
N1    N2    T    
C7    C9    S    
C6    C17   S    
H4    O6    S    
C13   O12   A    
C12   O14   A    
C2    S2    S    
H5    O9    S    
O5    S2    D    
C6    H1    S    
Cu2   O12   S    
C8    C10   S    
Cu2   O18   S    
C5    H2    S    
Cu2   O17   S    
C18   S1    S    
C5    C16   S    
H3    O3    S    
