data_mof_unit_27677.cif
_audit_creation_date              2012-12-11T16:18:08-0500
_audit_creation_method            fapswitch 2.2
_symmetry_space_group_name_H-M    P1
_symmetry_Int_Tables_number       1
_space_group_crystal_system       triclinic
_cell_length_a                    14.05208
_cell_length_b                    14.06403
_cell_length_c                    30.088559
_cell_angle_alpha                 97.12071
_cell_angle_beta                  97.168838
_cell_angle_gamma                 61.249093
_cell_volume                      5158.55076726

loop_
_atom_site_label
_atom_site_type_symbol
_atom_type_description
_atom_site_fract_x
_atom_site_fract_y
_atom_site_fract_z
_atom_type_partial_charge
C1    C     C_R   0.386401 0.708156 0.441222 0.530628
C2    C     C_R   0.824738 0.260349 0.384948 0.133459
C3    C     C_R   0.858711 0.233295 0.340293 0.030647
C4    C     C_R   0.398762 0.381289 0.426443 0.545602
C5    C     C_R   0.822388 0.318415 0.311517 -0.026597
C6    C     C_R   0.765120 0.426675 0.327558 -0.133247
C7    C     C_R   0.736547 0.452865 0.371307 -0.161759
C8    C     C_R   0.866138 0.380563 0.164455 -0.121148
C9    C     C_R   0.886457 0.378092 0.120230 -0.158260
C10   C     C_R   0.870609 0.212080 0.102544 0.138212
C11   C     C_R   0.851847 0.214868 0.147512 -0.102432
C12   C     C_R   0.412784 0.276344 0.220964 -0.101379
C13   C     C_R   0.853433 0.296753 0.178417 0.015254
C14   C     C_1   0.845444 0.294637 0.225002 -0.021285
C15   C     C_1   0.837889 0.300075 0.264534 -0.044737
C16   C     C_R   0.710199 0.405497 0.442585 0.562967
C17   C     C_R   0.895137 0.291029 0.089379 0.040063
C18   C     C_R   0.369151 0.752898 0.397093 0.005864
C19   C     C_R   0.427033 0.806634 0.387340 -0.022769
C20   C     C_R   0.431616 0.820879 0.342305 -0.092957
C21   C     C_R   0.378225 0.784533 0.307791 -0.020112
C22   C     C_R   0.315478 0.739129 0.317407 -0.088715
C23   C     C_R   0.423419 0.281434 0.267870 0.153737
C24   C     C_R   0.309148 0.723683 0.361443 0.121845
C25   C     C_R   0.275308 0.808085 0.148484 0.028261
C26   C     C_R   0.246781 0.847571 0.105682 -0.156559
C27   C     C_R   0.396152 0.890433 0.114475 -0.132276
C28   C     C_R   0.389791 0.711381 0.568305 0.541280
C29   C     C_R   0.424243 0.853267 0.157268 -0.144517
C30   C     C_R   0.362050 0.816225 0.175091 0.052945
C31   C     C_1   0.378020 0.802931 0.222236 0.044163
C32   C     C_1   0.382995 0.795221 0.261747 0.011285
C33   C     C_R   0.304140 0.892622 0.089192 0.010802
C34   C     C_R   0.332504 0.351862 0.292316 0.022718
C35   C     C_R   0.365467 0.362722 0.592640 0.014557
C36   C     C_R   0.440478 0.275520 0.617898 -0.147719
C37   C     C_R   0.422462 0.269050 0.661811 0.138132
C38   C     C_R   0.328689 0.352069 0.680902 0.028901
C39   C     C_R   0.249030 0.433639 0.654951 -0.136944
C40   C     C_R   0.401981 0.382968 0.552390 0.549666
C41   C     C_R   0.265166 0.438632 0.610456 0.119743
C42   C     C_R   0.222070 0.427308 0.839347 0.026125
C43   C     C_R   0.215825 0.402274 0.882248 -0.160175
C44   C     C_R   0.388685 0.237898 0.876695 -0.135991
C45   C     C_R   0.313671 0.342142 0.198309 -0.009166
C46   C     C_R   0.395388 0.261104 0.834004 -0.150468
C47   C     C_R   0.310927 0.352569 0.814451 0.048218
C48   C     C_1   0.313069 0.359074 0.767521 0.049356
C49   C     C_1   0.317750 0.358044 0.727944 0.034651
C50   C     C_R   0.296402 0.305430 0.900298 0.010952
C51   C     C_1   0.760592 0.377982 0.612865 -0.019006
C52   C     C_R   0.712931 0.407879 0.568567 0.546412
C53   C     C_R   0.787741 0.436359 0.730486 0.185741
C54   C     C_R   0.803805 0.421744 0.776881 0.185126
C55   C     C_R   0.863732 0.228281 0.760057 -0.142954
C56   C     C_1   0.301964 0.326797 0.150403 -0.050673
C57   C     C_R   0.848601 0.242557 0.714169 -0.144759
C58   C     C_R   0.811695 0.345680 0.699156 0.010125
C59   C     C_R   0.841544 0.317052 0.791507 0.009810
C60   C     C_1   0.870525 0.298032 0.838414 -0.059651
C61   C     C_1   0.788706 0.359841 0.651717 -0.061874
C62   C     C_1   0.902291 0.284228 0.877311 -0.018381
C63   C     C_1   0.376252 0.757461 0.613752 -0.015797
C64   C     C_1   0.366124 0.365595 0.380526 -0.004812
C65   C     C_R   0.337150 0.737529 0.724244 -0.111935
C66   C     C_R   0.326870 0.757034 0.770539 -0.104586
C67   C     C_1   0.346735 0.357870 0.340619 -0.049129
C68   C     C_R   0.357640 0.912587 0.770506 -0.106468
C69   C     C_R   0.367918 0.893049 0.724160 -0.114711
C70   C     C_R   0.356699 0.806023 0.700890 0.025304
C71   C     C_R   0.336553 0.844935 0.793748 0.033843
C72   C     C_1   0.316460 0.871518 0.840563 -0.055033
C73   C     C_1   0.366846 0.784305 0.653242 -0.067989
C74   C     C_1   0.294532 0.901792 0.878977 -0.011637
C75   C     C_R   0.950206 0.273117 0.048068 0.547902
C76   C     C_R   0.231751 0.419435 0.269494 -0.001744
C77   C     C_R   0.275409 0.270330 0.065329 0.546539
C78   C     C_1   0.291462 0.305659 0.110792 -0.009608
C79   C     C_R   0.261243 0.953707 0.048732 0.546790
C80   C     C_R   0.951995 0.269262 0.922164 0.541397
C81   C     C_R   0.276507 0.266542 0.939659 0.545181
C82   C     C_R   0.261534 0.950899 0.922867 0.545667
C83   C     C_R   0.223577 0.413355 0.222266 -0.063816
C84   C     C_2   0.135075 0.495651 0.294396 0.211564
C85   C     C_3   0.776800 0.161817 0.039067 -0.288763
C86   C     C_2   0.927880 0.119105 0.322522 0.215375
C87   C     C_2   0.209480 0.763628 0.164212 0.222225
C88   C     C_3   0.134111 0.745116 0.374215 -0.243415
C89   C     C_R   0.762028 0.371072 0.399822 0.024362
C90   C     C_2   0.480887 0.850056 0.423556 0.236863
C91   C     C_2   0.132624 0.529595 0.821848 0.203225
C92   C     C_3   0.123273 0.487258 0.550306 -0.280375
C93   C     C_3   0.474327 0.100285 0.693968 -0.312442
C94   C     C_3   0.631100 0.608927 0.715441 -0.273795
C95   C     C_3   0.872088 0.538396 0.817150 -0.280578
C96   C     C_3   0.592575 0.266906 0.303287 -0.294122
C97   C     C_3   0.788941 0.120516 0.406842 -0.254795
Cr1   Cr    Cr6+3 0.581000 0.584320 0.508140 1.025422
Cr2   Cr    Cr6+3 0.339110 0.576430 0.496080 1.043349
Cr3   Cr    Cr6+3 0.579910 0.339270 0.495810 1.028536
Cr4   Cr    Cr6+3 0.082090 0.079210 0.982490 1.038709
Cr5   Cr    Cr6+3 0.082460 0.324610 0.994920 1.016283
Cr6   Cr    Cr6+3 0.323630 0.087860 0.996130 1.015641
H1    H     H_    0.838368 0.152055 0.158525 0.100948
H2    H     H_    0.516519 0.215174 0.604545 0.136566
H3    H     H_    0.464046 0.204011 0.815142 0.120263
H4    H     H_    0.452400 0.163104 0.889826 0.136715
H5    H     H_    0.481978 0.220286 0.202169 0.109383
H6    H     H_    0.894520 0.147421 0.771060 0.130122
H7    H     H_    0.865359 0.173004 0.690308 0.125677
H8    H     H_    0.329113 0.669456 0.706578 0.124563
H9    H     H_    0.309710 0.704769 0.788044 0.136292
H10   H     H_    0.364358 0.981423 0.788088 0.110810
H11   H     H_    0.383660 0.946026 0.706493 0.100762
H12   H     H_    0.177025 0.847021 0.085912 0.116270
H13   H     H_    0.903234 0.440464 0.111197 0.143074
H14   H     H_    0.865482 0.445298 0.188297 0.141212
H15   H     H_    0.739148 0.491742 0.305571 0.140811
H16   H     H_    0.687925 0.537991 0.381934 0.153655
H17   H     H_    0.139503 0.499969 0.330783 0.108325
H18   H     H_    0.884547 0.058319 0.086324 0.238191
H19   H     H_    0.700804 0.192067 0.056270 0.135991
H20   H     H_    0.785582 0.091991 0.015014 0.137277
H21   H     H_    0.770902 0.227104 0.019774 0.153268
H22   H     H_    0.928596 0.098249 0.286582 0.115061
H23   H     H_    0.272132 0.713536 0.290378 0.174127
H24   H     H_    0.134823 0.773951 0.144996 0.098402
H25   H     H_    0.259018 0.606792 0.345904 0.238635
H26   H     H_    0.093900 0.699223 0.382866 0.140614
H27   H     H_    0.093473 0.784245 0.342420 0.172891
H28   H     H_    0.124567 0.808883 0.401722 0.181604
H29   H     H_    0.464319 0.856011 0.458320 0.116982
H30   H     H_    0.064007 0.580606 0.841832 0.090172
H31   H     H_    0.131551 0.591230 0.603922 0.246750
H32   H     H_    0.077089 0.455780 0.565747 0.137002
H33   H     H_    0.179633 0.422546 0.527006 0.155455
H34   H     H_    0.490870 0.859337 0.177469 0.115055
H35   H     H_    0.064972 0.556762 0.530530 0.142772
H36   H     H_    0.580578 0.151075 0.677538 0.248968
H37   H     H_    0.467051 0.057568 0.661106 0.141979
H38   H     H_    0.396334 0.135943 0.710129 0.152714
H39   H     H_    0.538787 0.040094 0.716123 0.140174
H40   H     H_    0.778486 0.544580 0.686786 0.252163
H41   H     H_    0.590038 0.572721 0.690484 0.141255
H42   H     H_    0.608020 0.691612 0.706067 0.148298
H43   H     H_    0.602754 0.616713 0.749205 0.183245
H44   H     H_    0.752121 0.511152 0.837459 0.248500
H45   H     H_    0.442503 0.923944 0.102472 0.137297
H46   H     H_    0.847231 0.613272 0.840066 0.135996
H47   H     H_    0.894166 0.553161 0.785448 0.192946
H48   H     H_    0.944309 0.470635 0.833318 0.137160
H49   H     H_    0.568313 0.139169 0.273497 0.247055
H50   H     H_    0.612872 0.289764 0.273082 0.143639
H51   H     H_    0.669275 0.209915 0.321210 0.139362
H52   H     H_    0.550324 0.340660 0.326136 0.166685
H53   H     H_    0.933627 0.130037 0.421892 0.290994
H54   H     H_    0.810476 0.066908 0.375392 0.166733
H55   H     H_    0.700353 0.178001 0.404260 0.182175
H56   H     H_    0.146676 0.462481 0.203979 0.167470
H57   H     H_    0.806640 0.069415 0.435174 0.143181
H58   H     H_    0.476740 0.859929 0.333988 0.167241
H59   H     H_    0.145166 0.455909 0.900667 0.109903
H60   H     H_    0.175416 0.495305 0.669719 0.135986
N1    N     N_2   0.869902 0.127056 0.071611 -0.492418
N2    N     N_2   0.248113 0.671317 0.368945 -0.488407
N3    N     N_2   0.182651 0.523218 0.584883 -0.485338
N4    N     N_2   0.502791 0.183616 0.687683 -0.513741
N5    N     N_2   0.747958 0.542511 0.715882 -0.503619
N6    N     N_2   0.783130 0.512719 0.808407 -0.503226
N7    N     N_2   0.525697 0.214247 0.290330 -0.507348
N8    N     N_2   0.851433 0.178968 0.415052 -0.500240
O1    O     O_R   0.688580 0.499770 0.460490 -0.516804
O2    O     O_R   0.346150 0.177650 0.050510 -0.513498
O3    O     O_R   0.314200 0.996600 0.036060 -0.504952
O4    O     O_R   0.480400 0.672610 0.462660 -0.517274
O5    O     O_R   0.168690 0.969990 0.933130 -0.504589
O6    O     O_R   0.991920 0.175870 0.937430 -0.494757
O7    O     O_R   0.974010 0.342590 0.941330 -0.513244
O8    O     O_R   0.182630 0.317940 0.955040 -0.501106
O9    O     O_R   0.347320 0.174720 0.953250 -0.518427
O10   O     O_R   0.315290 0.993890 0.945900 -0.496256
O11   O     O_3   0.162730 0.163890 0.991180 -0.246076
O12   O     O_R   0.348600 0.476260 0.536540 -0.460295
O13   O     O_R   0.315310 0.685650 0.451800 -0.474472
O14   O     O_R   0.346220 0.474990 0.446280 -0.491892
O15   O     O_R   0.492270 0.312460 0.441630 -0.508518
O16   O     O_R   0.669740 0.350480 0.455640 -0.482055
O17   O     O_R   0.691150 0.501150 0.557860 -0.507798
O18   O     O_R   0.482790 0.673890 0.552920 -0.498520
O19   O     O_R   0.317880 0.687030 0.549170 -0.497840
O20   O     O_2   0.048862 0.554959 0.274527 -0.511469
O21   O     O_2   0.987698 0.047637 0.347281 -0.535008
O22   O     O_2   0.238408 0.712777 0.197709 -0.516859
O23   O     O_R   0.494840 0.313840 0.539010 -0.524985
O24   O     O_2   0.543411 0.881425 0.414944 -0.510827
O25   O     O_2   0.134504 0.559442 0.785715 -0.521802
O26   O     O_R   0.672120 0.351750 0.545910 -0.492045
O27   O     O_3   0.500010 0.500010 0.500010 -0.253484
O28   O     O_R   0.167510 0.972920 0.030390 -0.506342
O29   O     O_R   0.990840 0.178580 0.027590 -0.459982
O30   O     O_R   0.972840 0.345510 0.038590 -0.527390
O31   O     O_R   0.181550 0.320660 0.045200 -0.493282

loop_
_geom_bond_atom_site_label_1
_geom_bond_atom_site_label_2
_ccdc_geom_bond_type
C94   H43   S    
C8    C13   A    
C91   O25   D    
C55   C59   A    
C27   C29   A    
Cr6   O11   S    
C35   C36   A    
C51   C61   T    
C88   H27   S    
C92   H35   S    
C28   O18   A    
C76   C84   S    
C87   H24   S    
C75   O30   A    
Cr4   O29   S    
C37   N4    S    
C38   C49   S    
C40   O23   A    
C53   C54   A    
C27   C33   A    
C93   N4    S    
C82   O10   A    
C1    C18   S    
C29   C30   A    
C84   O20   D    
C18   C24   A    
C62   C80   S    
C36   C37   A    
Cr5   O30   S    
Cr6   O9    S    
C5    C6    A    
C22   H23   S    
C96   H52   S    
C10   C17   A    
C24   N2    S    
C65   C70   A    
C7    C89   A    
C25   C87   S    
C56   C78   T    
C85   H21   S    
C60   C62   T    
C42   C91   S    
C4    O15   A    
C26   H12   S    
C65   H8    S    
Cr1   O17   S    
C26   C33   A    
C54   N6    S    
C68   C69   A    
C96   H51   S    
C90   O24   D    
C57   H7    S    
C45   C56   S    
C8    C9    A    
C91   H30   S    
C10   N1    S    
H31   N3    S    
C11   H1    S    
C95   H46   S    
Cr2   O12   S    
C2    N8    S    
C40   O12   A    
Cr1   O1    S    
Cr3   O26   S    
C58   C61   S    
C59   C60   S    
C96   N7    S    
C13   C14   S    
C77   O31   A    
C3    C86   S    
Cr5   O8    S    
C79   O3    A    
C92   H33   S    
C88   H26   S    
C74   C82   S    
Cr1   O18   S    
C76   C83   A    
C1    O13   A    
C44   C46   A    
C8    H14   S    
C54   C59   A    
C96   H50   S    
C38   C39   A    
C21   C32   S    
C69   H11   S    
C79   O28   A    
Cr1   O27   S    
C35   C40   S    
C51   C52   S    
Cr5   O11   S    
C97   H57   S    
C7    H16   S    
C45   C83   A    
Cr3   O16   S    
C87   O22   D    
C72   C74   T    
C94   N5    S    
C12   H5    S    
C18   C19   A    
C63   C73   T    
C25   C26   A    
C77   C78   S    
H18   N1    S    
Cr6   O3    S    
C75   O29   A    
C80   O7    A    
C4    O14   A    
C2    C89   A    
Cr3   O15   S    
C64   C67   T    
C66   C71   A    
C37   C38   A    
H49   N7    S    
C16   O1    A    
C53   N5    S    
C47   C48   S    
C12   C23   A    
C84   H17   S    
C23   C34   A    
C41   N3    S    
C70   C73   S    
C14   C15   T    
C85   H19   S    
C95   H47   S    
H36   N4    S    
C95   N6    S    
C81   O8    A    
Cr2   O13   S    
C9    C17   A    
C48   C49   T    
C82   O5    A    
C88   N2    S    
C55   C57   A    
H25   N2    S    
Cr5   O7    S    
C22   C24   A    
C92   H32   S    
C95   H48   S    
C42   C43   A    
C39   H60   S    
Cr2   O14   S    
C93   H38   S    
C44   H4    S    
C44   C50   A    
C25   C30   A    
C85   N1    S    
C4    C64   S    
C46   C47   A    
C1    O4    A    
C77   O2    A    
C36   H2    S    
Cr6   O10   S    
C9    H13   S    
C31   C32   T    
C33   C79   S    
C81   O9    A    
C12   C45   A    
C3    C5    A    
C16   O16   A    
C28   O19   A    
C34   C67   S    
Cr2   O19   S    
C53   C58   A    
Cr4   O28   S    
C43   C50   A    
C6    C7    A    
Cr3   O23   S    
C29   H34   S    
C68   H10   S    
H53   N8    S    
C86   O21   D    
C97   N8    S    
C94   H41   S    
C80   O6    A    
C19   C20   A    
C2    C3    A    
Cr5   O31   S    
C90   H29   S    
C71   C72   S    
C19   C90   S    
C97   H55   S    
Cr1   O4    S    
C11   C13   A    
C57   C58   A    
C30   C31   S    
C23   N7    S    
C94   H42   S    
C68   C71   A    
C20   H58   S    
C46   H3    S    
Cr2   O27   S    
C85   H20   S    
C42   C47   A    
C69   C70   A    
C35   C41   A    
H40   N5    S    
C5    C15   S    
Cr4   O6    S    
C10   C11   A    
C93   H39   S    
C43   H59   S    
C92   N3    S    
C16   C89   S    
C83   H56   S    
C20   C21   A    
C39   C41   A    
C65   C66   A    
C34   C76   A    
C17   C75   S    
Cr6   O2    S    
C93   H37   S    
C28   C63   S    
Cr4   O5    S    
C52   O26   A    
C52   O17   A    
C88   H28   S    
C66   H9    S    
C21   C22   A    
H44   N6    S    
C6    H15   S    
C55   H6    S    
Cr4   O11   S    
C27   H45   S    
C50   C81   S    
C97   H54   S    
C86   H22   S    
Cr3   O27   S    
