data_mof_unit_51803.cif
_audit_creation_date              2012-12-10T19:03:35-0500
_audit_creation_method            fapswitch 2.2
_symmetry_space_group_name_H-M    P1
_symmetry_Int_Tables_number       1
_space_group_crystal_system       triclinic
_cell_length_a                    15.922967
_cell_length_b                    10.811574
_cell_length_c                    9.542912
_cell_angle_alpha                 89.987507
_cell_angle_beta                  90.076832
_cell_angle_gamma                 90.201368
_cell_volume                      1642.82293269

loop_
_atom_site_label
_atom_site_type_symbol
_atom_type_description
_atom_site_fract_x
_atom_site_fract_y
_atom_site_fract_z
_atom_type_partial_charge
C1    C     C_R   0.502977 0.262435 0.499919 0.792562
C2    C     C_3   0.951548 0.418666 0.621756 -0.224529
C3    C     C_3   0.916796 0.500480 0.498978 0.067857
C4    C     C_3   0.951700 0.635356 0.517819 -0.194916
C5    C     C_3   0.049010 0.637656 0.496418 -0.068324
C6    C     C_1   0.824110 0.500938 0.500000 -0.029150
C7    C     C_1   0.175856 0.501022 0.498814 -0.024060
C8    C     C_1   0.251121 0.500616 0.499614 -0.177916
C9    C     C_R   0.486132 0.063886 0.619555 0.081234
C10   C     C_R   0.512082 0.129142 0.501059 -0.135327
C11   C     C_R   0.549398 0.062891 0.389136 -0.044119
C12   C     C_R   0.340382 0.500115 0.499959 0.809329
C13   C     C_R   0.547489 0.933489 0.390788 -0.244404
C14   C     C_R   0.509006 0.870346 0.502109 -0.102846
C15   C     C_R   0.484154 0.936858 0.619876 0.062086
C16   C     C_3   0.404505 0.933706 0.704144 -0.036894
C17   C     C_3   0.407448 0.074576 0.703935 -0.439026
C18   C     C_R   0.561335 0.561263 0.073695 0.245285
C19   C     C_R   0.444539 0.429698 0.074349 -0.049689
C20   C     C_R   0.444481 0.429769 0.925419 -0.072775
C21   C     C_R   0.561649 0.560595 0.926178 0.283778
C22   C     C_3   0.581434 0.695533 0.920105 -0.094179
C23   C     C_R   0.501404 0.737504 0.500188 0.803272
C24   C     C_3   0.580672 0.696298 0.079666 -0.569312
C25   C     C_R   0.659610 0.500343 0.500046 0.834909
C26   C     C_3   0.049842 0.431383 0.630481 -0.038905
C27   C     C_3   0.049049 0.433327 0.360593 0.031049
C28   C     C_3   0.950137 0.447663 0.356088 -0.228171
C29   C     C_1   0.748852 0.500803 0.500233 -0.137739
C30   C     C_3   0.083457 0.501122 0.497321 0.178024
Cu1   Cu    Cu3+1 0.500000 0.499980 0.640670 0.965143
Cu2   Cu    Cu3+1 0.500000 0.500020 0.359330 0.962301
H1    H     H_    0.936644 0.320476 0.597011 0.131684
H2    H     H_    0.574301 0.882587 0.304191 0.158545
H3    H     H_    0.412227 0.892143 0.809953 0.157674
H4    H     H_    0.355579 0.119626 0.644892 0.193660
H5    H     H_    0.419778 0.114356 0.809411 0.177375
H6    H     H_    0.398632 0.374638 0.130128 0.142857
H7    H     H_    0.076564 0.336458 0.630666 0.130951
H8    H     H_    0.398508 0.374797 0.869485 0.145441
H9    H     H_    0.531045 0.752203 0.871832 0.179312
H10   H     H_    0.642615 0.715360 0.129224 0.207828
H11   H     H_    0.527523 0.750841 0.122224 0.203729
H12   H     H_    0.932536 0.515887 0.273673 0.144004
H13   H     H_    0.063798 0.679510 0.392477 0.141443
H14   H     H_    0.936629 0.666345 0.626080 0.170161
N1    N     N_R   0.500530 0.500930 0.147930 -0.184256
N2    N     N_R   0.500530 0.500890 0.852020 -0.206984
O1    O     O_R   0.500000 0.319640 0.618810 -0.575998
O2    O     O_R   0.500010 0.319680 0.381230 -0.579050
O3    O     O_R   0.379430 0.499990 0.618840 -0.577598
O4    O     O_R   0.379440 0.500030 0.381260 -0.576999
O5    O     O_R   0.499990 0.680320 0.618770 -0.582914
O6    O     O_R   0.500000 0.680360 0.381190 -0.585561
O7    O     O_R   0.620560 0.499970 0.618740 -0.555628
O8    O     O_R   0.620570 0.500010 0.381160 -0.570618
N3    N     N_3   0.080354 0.489812 0.760526 -0.524859
H15   H     H_    0.044497 0.567240 0.786117 0.273228
H16   H     H_    0.073780 0.426740 0.842987 0.232906
C31   C     C_1   0.908765 0.442718 0.756927 0.249124
N4    N     N_1   0.875265 0.461464 0.862337 -0.278365
C32   C     C_1   0.911117 0.725284 0.422589 0.210525
N5    N     N_1   0.879346 0.795547 0.348139 -0.261709
C33   C     C_1   0.588520 0.123761 0.271107 0.278648
N6    N     N_1   0.619880 0.172419 0.176536 -0.263999
N7    N     N_3   0.331888 0.884498 0.627397 -0.569642
H17   H     H_    0.337285 0.788223 0.623908 0.223566
H18   H     H_    0.332299 0.916406 0.523812 0.226922
N8    N     N_3   0.664329 0.719280 0.859366 -0.546541
H19   H     H_    0.679396 0.812037 0.877966 0.236078
H20   H     H_    0.709898 0.665660 0.909827 0.241740
C34   C     C_1   0.084433 0.491014 0.232313 0.258935
N9    N     N_1   0.112042 0.535968 0.132312 -0.288739
N10   N     N_3   0.074320 0.301950 0.356280 -0.578187
H21   H     H_    0.043537 0.249403 0.432395 0.214691
H22   H     H_    0.138968 0.292980 0.372556 0.216365
C35   C     C_1   0.906244 0.332327 0.313509 0.305790
N11   N     N_1   0.871866 0.242489 0.280282 -0.250156
N12   N     N_3   0.089348 0.716303 0.602721 -0.563109
H23   H     H_    0.060678 0.803203 0.600672 0.224758
H24   H     H_    0.151710 0.732372 0.573512 0.238422

loop_
_geom_bond_atom_site_label_1
_geom_bond_atom_site_label_2
_ccdc_geom_bond_type
N7    H18   S    
C18   C21   A    
C24   H10   S    
C19   C20   A    
C25   O8    A    
C3    C6    S    
C18   N1    A    
C7    C8    T    
C4    H14   S    
C35   N11   T    
N10   H22   S    
C18   C24   S    
C3    C28   S    
C16   H3    S    
C20   H8    S    
C2    C31   S    
C26   H7    S    
N3    H16   S    
C22   H9    S    
C15   C16   S    
C4    C32   S    
N8    H20   S    
Cu2   O4    S    
C16   C17   S    
C17   H4    S    
C5    N12   S    
C27   N10   S    
C9    C10   A    
C22   N8    S    
C21   N2    A    
N7    H17   S    
C7    C30   S    
C13   C14   A    
C27   C30   S    
Cu1   O1    S    
Cu2   O6    S    
C12   O4    A    
C23   O5    A    
C25   C29   S    
N10   H21   S    
C11   C33   S    
N12   H24   S    
C4    C5    S    
C5    H13   S    
C28   H12   S    
C31   N4    T    
C14   C23   S    
C32   N5    T    
C19   H6    S    
Cu1   Cu2   S    
C8    C12   S    
C2    C26   S    
C17   H5    S    
Cu1   O5    S    
C28   C35   S    
Cu2   O2    S    
C20   N2    A    
C2    H1    S    
C9    C17   S    
C26   C30   S    
Cu1   N2    S    
Cu2   N1    S    
C22   C24   S    
C16   N7    S    
C3    C4    S    
C12   O3    A    
C23   O6    A    
C5    C30   S    
C1    O2    A    
C1    C10   S    
C25   O7    A    
Cu1   O3    S    
C34   N9    T    
C33   N6    T    
C2    C3    S    
C9    C15   A    
C13   H2    S    
C11   C13   A    
N3    H15   S    
C19   N1    A    
N8    H19   S    
C26   N3    S    
C10   C11   A    
N12   H23   S    
C6    C29   T    
C27   C28   S    
C24   H11   S    
C14   C15   A    
Cu1   O7    S    
C21   C22   S    
C1    O1    A    
Cu2   O8    S    
C27   C34   S    
