data_mof_unit_7238.cif
_audit_creation_date              2012-12-11T15:53:50-0500
_audit_creation_method            fapswitch 2.2
_symmetry_space_group_name_H-M    P1
_symmetry_Int_Tables_number       1
_space_group_crystal_system       triclinic
_cell_length_a                    10.735818
_cell_length_b                    10.687365
_cell_length_c                    17.036633
_cell_angle_alpha                 80.894746
_cell_angle_beta                  99.887073
_cell_angle_gamma                 118.160586
_cell_volume                      1691.0390241

loop_
_atom_site_label
_atom_site_type_symbol
_atom_type_description
_atom_site_fract_x
_atom_site_fract_y
_atom_site_fract_z
_atom_type_partial_charge
C1    C     C_R   0.362464 0.231119 0.627848 0.540816
C2    C     C_R   0.472348 0.761685 0.718611 -0.036958
C3    C     C_R   0.465563 0.732277 0.800702 -0.158573
C4    C     C_3   0.075854 0.580107 0.758207 -0.233484
C5    C     C_3   0.090671 0.590715 0.670763 -0.274972
C6    C     C_R   0.353445 0.678075 0.665352 0.011061
C7    C     C_1   0.770690 0.626895 0.712862 -0.077084
C8    C     C_1   0.816322 0.666238 0.778808 -0.074864
C9    C     C_1   0.346432 0.190036 0.710308 -0.069859
C10   C     C_1   0.320403 0.161158 0.778392 -0.051767
C11   C     C_1   0.336410 0.663815 0.277674 -0.054825
C12   C     C_R   0.375625 0.654214 0.588546 0.539042
C13   C     C_1   0.324561 0.674386 0.206856 -0.075868
C14   C     C_R   0.923253 0.707297 0.176107 -0.002650
C15   C     C_R   0.971159 0.633564 0.239171 -0.008915
C16   C     C_R   0.932911 0.617262 0.315015 -0.030953
C17   C     C_R   0.806763 0.757839 0.267596 0.064029
C18   C     C_R   0.842620 0.769958 0.191330 -0.113633
C19   C     C_3   0.951919 0.482761 0.247833 -0.123978
C20   C     C_3   0.914881 0.467931 0.331757 -0.260767
C21   C     C_R   0.845373 0.673217 0.329542 0.044524
C22   C     C_R   0.265538 0.056358 0.179557 -0.021844
C23   C     C_R   0.720004 0.586939 0.633063 0.550678
C24   C     C_R   0.162030 0.071113 0.210417 0.086586
C25   C     C_R   0.181190 0.105650 0.287215 0.017893
C26   C     C_R   0.405706 0.097737 0.309930 -0.161987
C27   C     C_R   0.381881 0.055682 0.232371 -0.170125
C28   C     C_3   0.089770 0.161338 0.178173 -0.034981
C29   C     C_3   0.104728 0.195159 0.263405 -0.238006
C30   C     C_R   0.310173 0.135109 0.334973 -0.000528
C31   C     C_R   0.883400 0.697940 0.857785 0.551355
C32   C     C_R   0.313275 0.705160 0.898261 0.546165
C33   C     C_R   0.283503 0.113845 0.857697 0.553357
C34   C     C_R   0.349634 0.222968 0.400859 0.549381
C35   C     C_R   0.954526 0.717960 0.095605 0.552160
C36   C     C_R   0.313077 0.701724 0.123759 0.529030
C37   C     C_R   0.247894 0.039460 0.094739 0.546874
C38   C     C_R   0.365647 0.653748 0.360824 0.556760
C39   C     C_R   0.772721 0.622831 0.400524 0.575329
C40   C     C_R   0.333311 0.655620 0.829209 -0.001921
C41   C     C_R   0.214954 0.575217 0.776567 0.012965
C42   C     C_R   0.226946 0.582761 0.695827 -0.000227
Cr1   Cr    Cr6+3 0.608440 0.389080 0.519680 1.003877
Cr2   Cr    Cr6+3 0.288640 0.400090 0.490760 1.003040
Cr3   Cr    Cr6+3 0.602940 0.710800 0.489510 1.030319
Cr4   Cr    Cr6+3 0.052530 0.947560 0.964210 1.009105
Cr5   Cr    Cr6+3 0.059970 0.626800 0.992920 0.991813
Cr6   Cr    Cr6+3 0.373320 0.938440 0.995370 0.984502
H1    H     H_    0.804925 0.385471 0.341185 0.152296
H2    H     H_    0.997699 0.461016 0.378731 0.143956
H3    H     H_    0.503863 0.113275 0.346777 0.139036
H4    H     H_    0.460436 0.035795 0.211839 0.158097
H5    H     H_    0.152072 0.255892 0.137754 0.139659
H6    H     H_    0.174110 0.310336 0.270724 0.129350
H7    H     H_    0.003502 0.148709 0.290723 0.141643
H8    H     H_    0.556991 0.797488 0.840291 0.147141
H9    H     H_    0.082509 0.679186 0.775477 0.156775
H10   H     H_    0.985880 0.479450 0.779175 0.150616
H11   H     H_    0.010499 0.498700 0.638365 0.160853
H12   H     H_    0.106214 0.695505 0.638888 0.141010
H13   H     H_    0.795865 0.817780 0.142524 0.173388
H14   H     H_    0.053667 0.479434 0.248009 0.120143
O1    O     O_R   0.754020 0.497590 0.609930 -0.524225
O2    O     O_R   0.295080 0.533620 0.397890 -0.515491
O3    O     O_R   0.485280 0.746620 0.388440 -0.490124
O4    O     O_R   0.720550 0.696220 0.420010 -0.454291
O5    O     O_3   0.500010 0.499990 0.499980 -0.269080
O6    O     O_R   0.163320 0.092900 0.874450 -0.500561
O7    O     O_R   0.934650 0.822080 0.882840 -0.487795
O8    O     O_R   0.915520 0.604140 0.893670 -0.519586
O9    O     O_R   0.191760 0.638110 0.923230 -0.499085
O10   O     O_R   0.406180 0.826930 0.920660 -0.518683
O11   O     O_R   0.358620 0.062870 0.901950 -0.508905
O12   O     O_R   0.481420 0.271390 0.600630 -0.515532
O13   O     O_R   0.163910 0.085460 0.050210 -0.519097
O14   O     O_R   0.935200 0.815170 0.045770 -0.512442
O15   O     O_R   0.916120 0.596690 0.069430 -0.495083
O16   O     O_R   0.192310 0.631200 0.086170 -0.525304
O17   O     O_R   0.406770 0.819480 0.096420 -0.521982
O18   O     O_R   0.359170 0.055960 0.064880 -0.521522
O19   O     O_3   0.161940 0.837600 0.984160 -0.286513
O20   O     O_R   0.263810 0.254550 0.589590 -0.507400
O21   O     O_R   0.300820 0.531200 0.560890 -0.498267
O22   O     O_R   0.491480 0.744020 0.564270 -0.525245
O23   O     O_R   0.726290 0.693800 0.583010 -0.511951
O24   O     O_R   0.747830 0.500190 0.434090 -0.535058
O25   O     O_R   0.475680 0.273800 0.437630 -0.500718
O26   O     O_R   0.257620 0.257160 0.413750 -0.519419
C43   C     C_R   0.582014 0.906850 0.694752 0.045302
C44   C     C_R   0.716392 0.931044 0.680484 -0.067427
C45   C     C_R   0.830084 0.067845 0.678391 -0.118579
C46   C     C_R   0.811160 0.181944 0.692976 -0.106102
C47   C     C_R   0.677816 0.160452 0.706806 -0.086722
C48   C     C_R   0.563189 0.023602 0.706851 -0.086600
H15   H     H_    0.735018 0.844138 0.674589 0.148963
H16   H     H_    0.934126 0.084391 0.668791 0.132211
H17   H     H_    0.900909 0.285552 0.696028 0.112904
H18   H     H_    0.664677 0.248822 0.720324 0.137857
H19   H     H_    0.462051 0.006341 0.721865 0.115634
C49   C     C_R   0.832317 0.387530 0.190066 0.052314
C50   C     C_R   0.696021 0.380420 0.180589 -0.088119
C51   C     C_R   0.603179 0.330203 0.111779 -0.087000
C52   C     C_R   0.642491 0.281056 0.053609 -0.048708
C53   C     C_R   0.772542 0.277734 0.065254 -0.095743
C54   C     C_R   0.867480 0.331879 0.132829 -0.072745
H20   H     H_    0.666093 0.424823 0.222606 0.110646
H21   H     H_    0.502373 0.333346 0.102520 0.123079
H22   H     H_    0.573205 0.247404 0.998852 0.144777
H23   H     H_    0.803321 0.241231 0.019642 0.081969
H24   H     H_    0.974155 0.344766 0.136043 0.106129
N1    N     N_3   0.944163 0.074048 0.144583 -0.636957
H25   H     H_    0.935672 0.101319 0.082924 0.242099
H26   H     H_    0.872520 0.093652 0.168273 0.216356
N2    N     N_3   0.715467 0.815924 0.278690 -0.578395
H27   H     H_    0.627327 0.780709 0.235449 0.230322
H28   H     H_    0.770727 0.926695 0.269938 0.230041

loop_
_geom_bond_atom_site_label_1
_geom_bond_atom_site_label_2
_ccdc_geom_bond_type
C54   H24   S    
C16   C21   A    
C11   C38   S    
C41   C42   A    
C14   C18   A    
C19   C20   S    
C5    C42   S    
Cr2   O21   S    
Cr4   O14   S    
N2    H27   S    
Cr1   O1    S    
C7    C8    T    
C32   O10   A    
Cr2   O2    S    
C15   C19   S    
C26   C27   A    
C47   C48   A    
C1    O12   A    
Cr6   O17   S    
C28   C29   S    
Cr2   O20   S    
C6    C12   S    
C53   H23   S    
C4    C41   S    
C19   H14   S    
C15   C16   A    
C25   C30   A    
Cr6   O19   S    
C12   O22   A    
C43   C48   A    
Cr4   O13   S    
Cr4   O7    S    
C20   H2    S    
C52   C53   A    
C45   H16   S    
C31   O8    A    
N1    H25   S    
C4    H9    S    
C17   N2    S    
C52   H22   S    
C9    C10   T    
Cr1   O12   S    
C23   O1    A    
C37   O13   A    
C8    C31   S    
C2    C6    A    
Cr6   O10   S    
C53   C54   A    
C46   H17   S    
C32   O9    A    
C38   O2    A    
C28   N1    S    
C25   C29   S    
C37   O18   A    
C35   O14   A    
C5    H11   S    
C50   C51   A    
C44   H15   S    
C1    C9    S    
C24   C25   A    
C13   C36   S    
C45   C46   A    
C30   C34   S    
Cr5   O19   S    
C29   H7    S    
C1    O20   A    
C22   C37   S    
C35   O15   A    
C17   C21   A    
C12   O21   A    
C2    C43   S    
Cr3   O23   S    
Cr5   O8    S    
Cr4   O6    S    
C20   H1    S    
Cr4   O19   S    
C3    H8    S    
C21   C39   S    
C38   O3    A    
C16   C20   S    
C17   C18   A    
C49   C54   A    
C51   H21   S    
N1    H26   S    
C34   O26   A    
Cr5   O9    S    
C33   O11   A    
C40   C41   A    
C3    C40   A    
C26   C30   A    
C22   C27   A    
C23   O23   A    
C39   O4    A    
C22   C24   A    
Cr3   O22   S    
Cr5   O15   S    
C14   C35   S    
C27   H4    S    
C50   H20   S    
C5    H12   S    
Cr1   O24   S    
Cr6   O11   S    
C24   C28   S    
C4    C5    S    
C36   O17   A    
N2    H28   S    
C28   H5    S    
C18   H13   S    
Cr3   O5    S    
C39   O24   A    
C29   H6    S    
Cr1   O25   S    
Cr6   O18   S    
C2    C3    A    
C36   O16   A    
C26   H3    S    
C19   C49   S    
Cr3   O3    S    
C11   C13   T    
C44   C45   A    
C48   H19   S    
C7    C23   S    
C46   C47   A    
C10   C33   S    
C34   O25   A    
C32   C40   S    
C51   C52   A    
C31   O7    A    
Cr1   O5    S    
C6    C42   A    
C4    H10   S    
Cr3   O4    S    
C14   C15   A    
Cr2   O5    S    
C49   C50   A    
Cr5   O16   S    
C43   C44   A    
Cr2   O26   S    
C47   H18   S    
C33   O6    A    
