data_mof_unit_12165.cif
_audit_creation_date              2013-03-05T16:48:14-0500
_audit_creation_method            fapswitch 2.2
_symmetry_space_group_name_H-M    P1
_symmetry_Int_Tables_number       1
_space_group_crystal_system       triclinic
_cell_length_a                    23.513434
_cell_length_b                    8.928126
_cell_length_c                    8.089164
_cell_angle_alpha                 89.920033
_cell_angle_beta                  90.000039
_cell_angle_gamma                 89.999942
_cell_volume                      1698.16383649

loop_
_atom_site_label
_atom_site_type_symbol
_atom_site_description
_atom_site_fract_x
_atom_site_fract_y
_atom_site_fract_z
_atom_type_partial_charge
O1    O     O_R   0.500000 0.285350 0.636850 -0.609436
O2    O     O_R   0.500000 0.714650 0.363150 -0.609434
O3    O     O_R   0.500000 0.714650 0.636850 -0.606594
O4    O     O_R   0.500000 0.285350 0.363150 -0.606592
H1    H     H_    0.947743 0.126316 0.571169 0.191348
H2    H     H_    0.051009 0.874401 0.434519 0.191843
H3    H     H_    0.947739 0.873681 0.428792 0.191350
H4    H     H_    0.051013 0.125602 0.565440 0.191845
C1    C     C_R   0.500033 0.217937 0.500073 0.943806
C2    C     C_R   0.500033 0.782063 0.499927 0.943806
O5    O     O_R   0.416160 0.500000 0.636910 -0.584593
O6    O     O_R   0.583840 0.500000 0.363090 -0.589687
O7    O     O_R   0.583840 0.500000 0.636910 -0.589687
O8    O     O_R   0.416160 0.500000 0.363090 -0.584594
C3    C     C_R   0.207530 0.500007 0.499990 0.179717
C4    C     C_R   0.791399 0.499996 0.499992 0.181701
C5    C     C_R   0.388905 0.500001 0.500000 0.936780
C6    C     C_R   0.610868 0.499999 0.500000 0.948753
Zn1   Zn    Zn3+2 0.500000 0.500000 0.682780 1.092372
Zn2   Zn    Zn3+2 0.500000 0.500000 0.317220 1.092373
H5    H     H_    0.213898 0.606036 0.261876 0.191689
H6    H     H_    0.785145 0.346854 0.295628 0.191521
H7    H     H_    0.213894 0.393980 0.738107 0.191686
H8    H     H_    0.785148 0.653137 0.704357 0.191520
C7    C     C_R   0.296125 0.563614 0.365833 0.235252
C8    C     C_R   0.702879 0.411463 0.384728 0.222755
C9    C     C_R   0.296123 0.436399 0.634162 0.235253
C10   C     C_R   0.702881 0.588529 0.615268 0.222755
C11   C     C_R   0.326572 0.500005 0.499999 -0.208055
C12   C     C_R   0.672798 0.499997 0.499999 -0.194355
C13   C     C_R   0.880334 0.631641 0.471984 0.526351
C14   C     C_R   0.118363 0.366889 0.517311 0.524744
C15   C     C_R   0.880336 0.368353 0.527984 0.526350
C16   C     C_R   0.118361 0.633119 0.482654 0.524743
N1    N     N_R   0.852061 0.499997 0.499986 -0.346549
N2    N     N_R   0.146747 0.500005 0.499984 -0.344807
C17   C     C_R   0.939692 0.365195 0.526119 -0.019740
C18   C     C_R   0.059011 0.635368 0.478250 -0.019325
C19   C     C_R   0.939691 0.634802 0.473843 -0.019741
C20   C     C_R   0.059012 0.364636 0.521710 -0.019326
C21   C     C_R   0.969480 0.499999 0.499980 -0.018773
C22   C     C_R   0.029221 0.500001 0.499980 -0.018747
C23   C     C_R   0.969774 0.231140 0.550235 -0.155231
C24   C     C_R   0.028943 0.769305 0.453138 -0.154957
C25   C     C_R   0.969772 0.768859 0.449725 -0.155230
C26   C     C_R   0.028946 0.230697 0.546821 -0.154956
C27   C     C_1   0.500062 0.065187 0.500104 -0.120078
C28   C     C_1   0.500062 0.934813 0.499896 -0.120078
C29   C     C_R   0.237108 0.559899 0.365825 -0.106976
C30   C     C_R   0.761910 0.413678 0.384586 -0.102666
C31   C     C_R   0.237106 0.440116 0.634161 -0.106981
C32   C     C_R   0.761912 0.586314 0.615402 -0.102671
N3    N     N_1   0.500000 0.500000 0.073640 0.020340
N4    N     N_1   0.500000 0.500000 0.926360 0.020339
O9    O     O_2   0.850991 0.758632 0.441213 -0.515724
O10   O     O_2   0.147547 0.237052 0.528614 -0.515775
O11   O     O_2   0.850994 0.241361 0.558757 -0.515726
O12   O     O_2   0.147545 0.762958 0.471352 -0.515778
Br1   Br    Br    0.331009 0.665349 0.181848 -0.391036
Br2   Br    Br    0.666433 0.278677 0.230474 -0.398031
Br3   Br    Br    0.331004 0.334667 0.818154 -0.391035
Br4   Br    Br    0.666437 0.721315 0.769527 -0.398029

loop_
_geom_bond_atom_site_label_1
_geom_bond_atom_site_label_2
_geom_bond_distance
_ccdc_geom_bond_type
H8    C32   1.083244 S    
C15   O11   1.350065 S    
C18   C24   1.403697 A    
C7    Br1   1.925888 S    
C6    C12   1.456185 S    
C3    C31   1.394938 A    
C9    C11   1.418158 A    
C5    C11   1.465658 S    
C21   C22   1.404718 A    
H7    C31   1.083329 S    
C27   C28   1.164004 T    
C19   C25   1.403642 A    
H6    C30   1.083246 S    
O3    Zn1   1.951595 S    
O6    Zn2   2.005982 S    
H5    C29   1.083332 S    
H1    C23   1.082807 S    
C19   C21   1.408233 A    
O3    C2    1.259819 A    
H2    C24   1.082546 S    
N3    N4    1.191371 T    
C3    C29   1.394934 A    
C20   C26   1.403696 A    
C10   C32   1.388175 A    
O8    C5    1.279542 A    
O5    Zn1   2.005984 S    
O7    C6    1.276882 A    
C17   C21   1.408234 A    
H3    C25   1.082807 S    
Zn1   N4    1.970359 S    
C10   C12   1.413003 A    
C15   N1    1.368921 A    
C9    C31   1.388087 A    
C18   C22   1.407692 A    
C16   N2    1.370079 A    
C8    C30   1.388170 A    
C4    N1    1.426381 S    
C2    C28   1.363767 S    
C4    C30   1.395777 A    
C23   C26   1.391607 A    
C7    C29   1.388082 A    
C17   C23   1.403642 A    
O1    Zn1   1.952614 S    
C1    C27   1.363767 S    
O7    Zn1   2.005982 S    
O2    Zn2   1.952613 S    
O4    Zn2   1.951596 S    
C14   N2    1.370076 A    
C3    N2    1.429215 S    
C14   C20   1.396139 A    
O1    C1    1.260264 A    
C24   C25   1.391607 A    
O8    Zn2   2.005985 S    
Zn2   N3    1.970359 S    
O6    C6    1.276882 A    
C16   O12   1.350084 S    
C20   C22   1.407693 A    
O5    C5    1.279544 A    
C13   N1    1.368921 A    
C9    Br3   1.925890 S    
H4    C26   1.082545 S    
C13   O9    1.350066 S    
O4    C1    1.259819 A    
C16   C18   1.396137 A    
C8    Br2   1.923791 S    
C14   O10   1.350087 S    
O2    C2    1.260264 A    
C15   C17   1.396040 A    
C4    C32   1.395781 A    
C13   C19   1.396040 A    
C7    C11   1.418162 A    
C8    C12   1.413006 A    
C10   Br4   1.923793 S    
