data_mof_unit_31040.cif
_audit_creation_date              2012-12-10T17:25:22-0500
_audit_creation_method            fapswitch 2.2
_symmetry_space_group_name_H-M    P1
_symmetry_Int_Tables_number       1
_space_group_crystal_system       triclinic
_cell_length_a                    27.809355
_cell_length_b                    10.829103
_cell_length_c                    9.570944
_cell_angle_alpha                 90.002494
_cell_angle_beta                  89.933316
_cell_angle_gamma                 92.376629
_cell_volume                      2879.81210538

loop_
_atom_site_label
_atom_site_type_symbol
_atom_type_description
_atom_site_fract_x
_atom_site_fract_y
_atom_site_fract_z
_atom_type_partial_charge
C1    C     C_R   0.503310 0.262509 0.500706 0.805016
C2    C     C_R   0.278610 0.492232 0.626493 -0.104106
C3    C     C_R   0.253617 0.496764 0.499972 0.363872
C4    C     C_R   0.102012 0.497687 0.498404 -0.051508
C5    C     C_R   0.125343 0.384235 0.486369 -0.066143
C6    C     C_R   0.096789 0.273581 0.472529 -0.019357
C7    C     C_R   0.129834 0.609083 0.510792 -0.022350
C8    C     C_R   0.354480 0.498377 0.500088 -0.042788
C9    C     C_R   0.645498 0.503904 0.499787 -0.126183
C10   C     C_R   0.971937 0.390964 0.503833 0.050073
C11   C     C_R   0.977208 0.618088 0.492422 0.035345
C12   C     C_R   0.407478 0.499336 0.500040 0.813023
C13   C     C_R   0.949216 0.506021 0.498174 0.074122
C14   C     C_R   0.942790 0.282066 0.521621 -0.198205
C15   C     C_R   0.893037 0.285502 0.525411 -0.123766
C16   C     C_R   0.870273 0.397389 0.511836 -0.026642
C17   C     C_R   0.898084 0.508714 0.498398 -0.050089
C18   C     C_R   0.874741 0.622043 0.485301 -0.074472
C19   C     C_R   0.823701 0.619253 0.486362 0.596201
C20   C     C_R   0.819996 0.400064 0.512449 0.581505
C21   C     C_R   0.721299 0.514898 0.372999 0.679710
C22   C     C_R   0.671110 0.512163 0.373121 -0.294921
C23   C     C_R   0.495576 0.736923 0.500875 0.791262
C24   C     C_R   0.671008 0.499087 0.626297 -0.210575
C25   C     C_R   0.721173 0.501455 0.625909 -0.186233
C26   C     C_R   0.746418 0.509224 0.499446 0.243946
C27   C     C_R   0.022888 0.388327 0.493401 0.034691
C28   C     C_R   0.050881 0.500419 0.498152 0.070158
C29   C     C_R   0.028162 0.615523 0.502784 0.049441
C30   C     C_R   0.046738 0.276841 0.476186 -0.242852
C31   C     C_R   0.107073 0.721079 0.523297 -0.130775
C32   C     C_R   0.953352 0.729448 0.474363 -0.239192
C33   C     C_R   0.903296 0.732643 0.470656 -0.019735
C34   C     C_R   0.592512 0.501048 0.499953 0.813689
C35   C     C_R   0.057316 0.724531 0.519484 -0.200861
C36   C     C_R   0.524392 0.113953 0.758455 -0.152091
C37   C     C_R   0.515648 0.054114 0.885334 -0.171875
C38   C     C_R   0.487822 0.944605 0.888388 -0.170006
C39   C     C_R   0.473412 0.887250 0.763422 0.003549
C40   C     C_R   0.489693 0.937452 0.633109 0.046328
C41   C     C_R   0.507081 0.061424 0.631718 0.086161
C42   C     C_R   0.505822 0.127640 0.503693 -0.108812
C43   C     C_R   0.499814 0.063048 0.377787 -0.198271
C44   C     C_R   0.494688 0.935634 0.378077 -0.200670
C45   C     C_R   0.176375 0.386961 0.487557 0.532705
C46   C     C_R   0.490451 0.871009 0.504563 -0.110601
C47   C     C_R   0.563280 0.665874 0.144092 -0.166471
C48   C     C_R   0.593755 0.747932 0.071641 -0.199091
C49   C     C_R   0.593755 0.747963 0.927742 -0.182064
C50   C     C_R   0.563292 0.665913 0.855480 -0.151091
C51   C     C_R   0.531056 0.581721 0.925003 0.201395
C52   C     C_R   0.531047 0.581685 0.074764 0.208356
C53   C     C_R   0.470516 0.422180 0.074059 -0.067926
C54   C     C_R   0.470536 0.422201 0.925976 -0.056704
C55   C     C_R   0.180116 0.606330 0.511558 0.542191
C56   C     C_R   0.278883 0.501835 0.373513 -0.101192
C57   C     C_R   0.329037 0.502682 0.373377 -0.211062
C58   C     C_R   0.328767 0.492826 0.626726 -0.187537
Cu1   Cu    Cu3+1 0.500000 0.499990 0.640660 0.941019
Cu2   Cu    Cu3+1 0.500000 0.500010 0.359340 0.937654
H1    H     H_    0.347327 0.488766 0.725912 0.170115
H2    H     H_    0.259593 0.505368 0.275474 0.137948
H3    H     H_    0.127728 0.807300 0.536337 0.205974
H4    H     H_    0.973045 0.816204 0.458067 0.134611
H5    H     H_    0.652268 0.493069 0.725484 0.182866
H6    H     H_    0.740506 0.497074 0.723810 0.180090
H7    H     H_    0.042740 0.814277 0.534181 0.143539
H8    H     H_    0.499796 0.110737 0.278274 0.160472
H9    H     H_    0.545743 0.199594 0.760934 0.167424
H10   H     H_    0.528182 0.096271 0.981938 0.144626
H11   H     H_    0.259109 0.488163 0.724487 0.137754
H12   H     H_    0.476899 0.905497 0.988329 0.137694
H13   H     H_    0.494024 0.887805 0.278611 0.164729
H14   H     H_    0.446379 0.358426 0.129563 0.139656
H15   H     H_    0.566879 0.672602 0.254103 0.203671
H16   H     H_    0.617794 0.811467 0.127908 0.170129
H17   H     H_    0.617749 0.811620 0.871329 0.167902
H18   H     H_    0.566842 0.672834 0.745454 0.201740
H19   H     H_    0.446432 0.358432 0.870531 0.144138
H20   H     H_    0.652397 0.516513 0.274170 0.187518
H21   H     H_    0.872389 0.199339 0.539238 0.204996
H22   H     H_    0.957370 0.192452 0.537203 0.142865
H23   H     H_    0.027043 0.190011 0.460497 0.135645
H24   H     H_    0.347817 0.506870 0.274193 0.162224
N1    N     N_R   0.202120 0.496652 0.499848 -0.470206
N2    N     N_R   0.797955 0.509599 0.499525 -0.447088
N3    N     N_R   0.500460 0.501210 0.147910 -0.197938
N4    N     N_R   0.500480 0.501290 0.852040 -0.199855
O1    O     O_R   0.500000 0.319640 0.618810 -0.590751
O2    O     O_2   0.793173 0.293841 0.525141 -0.515632
O3    O     O_2   0.206974 0.712542 0.523541 -0.518243
O4    O     O_2   0.799673 0.724433 0.475318 -0.507588
O5    O     O_R   0.500000 0.319660 0.381240 -0.579689
O6    O     O_R   0.430260 0.500010 0.618770 -0.567511
O7    O     O_R   0.430270 0.500030 0.381200 -0.582920
O8    O     O_R   0.500000 0.680340 0.618760 -0.600760
O9    O     O_R   0.500000 0.680360 0.381190 -0.601898
O10   O     O_R   0.569730 0.499970 0.618800 -0.606043
O11   O     O_R   0.569740 0.499990 0.381230 -0.597534
O12   O     O_2   0.200401 0.281707 0.477245 -0.516176
C59   C     C_1   0.883190 0.852420 0.450189 0.344141
N5    N     N_1   0.867327 0.948466 0.433661 -0.243415
C60   C     C_1   0.435114 0.793271 0.772347 0.273458
N6    N     N_1   0.404166 0.718880 0.780679 -0.277078
C61   C     C_1   0.116896 0.153691 0.452859 0.337168
N7    N     N_1   0.132768 0.057563 0.436950 -0.252649
F1    F     F_    0.745553 0.522097 0.249988 -0.645318

loop_
_geom_bond_atom_site_label_1
_geom_bond_atom_site_label_2
_ccdc_geom_bond_type
C10   C27   A    
C21   C26   A    
C59   N5    T    
C3    N1    S    
C41   C42   A    
C48   H16   S    
C53   H14   S    
C7    C55   A    
Cu2   O11   S    
C15   H21   S    
C53   C54   A    
C23   O8    A    
C40   C46   A    
C28   C29   A    
C33   C59   S    
C36   C37   A    
C5    C6    A    
C9    C22   A    
C15   C16   A    
C56   C57   A    
C18   C19   A    
Cu1   O1    S    
C30   H23   S    
Cu1   N4    S    
C55   O3    S    
C19   O4    S    
C8    C58   A    
C16   C17   A    
C20   N2    A    
C12   O7    A    
Cu1   O6    S    
C8    C12   S    
C16   C20   A    
Cu2   O5    S    
C19   N2    A    
C58   H1    S    
Cu1   Cu2   S    
C23   C46   S    
C21   C22   A    
C27   C30   A    
C12   O6    A    
C36   C41   A    
C4    C7    A    
C50   H18   S    
C4    C28   A    
Cu2   N3    S    
C44   C46   A    
C17   C18   A    
C38   H12   S    
C7    C31   A    
C51   C52   A    
C31   H3    S    
C24   C25   A    
C32   H4    S    
Cu2   O9    S    
C10   C14   A    
C39   C40   A    
C43   H8    S    
C50   C51   A    
C25   C26   A    
C20   O2    S    
C45   O12   S    
C55   N1    A    
C45   N1    A    
C43   C44   A    
C37   C38   A    
C8    C57   A    
C3    C56   A    
C47   C48   A    
C35   H7    S    
C26   N2    S    
C34   O11   A    
C57   H24   S    
C53   N3    A    
C21   F1    S    
C24   H5    S    
C48   C49   A    
C6    C30   A    
C11   C32   A    
C9    C34   S    
C31   C35   A    
C42   C43   A    
C14   H22   S    
C2    H11   S    
C60   N6    T    
C36   H9    S    
C54   H19   S    
C40   C41   A    
C1    O1    A    
C23   O9    A    
C52   N3    A    
C25   H6    S    
C4    C5    A    
C10   C13   A    
C51   N4    A    
C2    C58   A    
C9    C24   A    
C39   C60   S    
C47   C52   A    
C61   N7    T    
C29   C35   A    
C13   C17   A    
C32   C33   A    
C2    C3    A    
C22   H20   S    
C54   N4    A    
C11   C13   A    
C38   C39   A    
C5    C45   A    
C34   O10   A    
C6    C61   S    
C49   H17   S    
C56   H2    S    
C44   H13   S    
C18   C33   A    
C47   H15   S    
Cu2   O7    S    
C1    C42   S    
C11   C29   A    
C1    O5    A    
C49   C50   A    
Cu1   O8    S    
C27   C28   A    
Cu1   O10   S    
C14   C15   A    
C37   H10   S    
