data_mof_unit_39071.cif
_audit_creation_date              2012-12-11T15:17:41-0500
_audit_creation_method            fapswitch 2.2
_symmetry_space_group_name_H-M    P1
_symmetry_Int_Tables_number       1
_space_group_crystal_system       monoclinic
_cell_length_a                    6.941607
_cell_length_b                    20.267977
_cell_length_c                    22.218786
_cell_angle_alpha                 89.907173
_cell_angle_beta                  90.0
_cell_angle_gamma                 90.0
_cell_volume                      3126.00869211

loop_
_atom_site_label
_atom_site_type_symbol
_atom_type_description
_atom_site_fract_x
_atom_site_fract_y
_atom_site_fract_z
_atom_type_partial_charge
O1    O     O_R   0.620180 0.810610 0.187990 -0.544207
O2    O     O_R   0.379820 0.189390 0.812010 -0.545011
O3    O     O_R   0.379820 0.189390 0.687990 -0.543749
O4    O     O_R   0.620180 0.810610 0.312010 -0.543970
O5    O     O_R   0.120180 0.689390 0.312010 -0.545011
O6    O     O_R   0.879820 0.310610 0.687990 -0.544207
O7    O     O_R   0.879820 0.310610 0.812010 -0.543970
O8    O     O_R   0.120180 0.689390 0.187990 -0.543749
O9    O     O_R   0.290420 0.818570 0.311590 -0.535595
O10   O     O_R   0.709580 0.181430 0.688410 -0.536657
O11   O     O_R   0.709580 0.181430 0.811590 -0.538296
O12   O     O_R   0.290420 0.818570 0.188410 -0.536810
O13   O     O_R   0.790420 0.681430 0.188410 -0.536657
O14   O     O_R   0.209580 0.318570 0.811590 -0.535595
O15   O     O_R   0.209580 0.318570 0.688410 -0.536810
O16   O     O_R   0.790420 0.681430 0.311590 -0.538296
C1    C     C_R   0.459161 0.833288 0.333271 0.704663
C2    C     C_R   0.540979 0.165380 0.667765 0.704489
C3    C     C_R   0.540690 0.164938 0.831755 0.706060
C4    C     C_R   0.459460 0.835356 0.168375 0.706781
C5    C     C_R   0.959021 0.665380 0.167765 0.704489
C6    C     C_R   0.040839 0.333288 0.833271 0.704663
C7    C     C_R   0.040540 0.335355 0.668375 0.706781
C8    C     C_R   0.959310 0.664938 0.331755 0.706060
H1    H     H_    0.764479 0.426070 0.650577 0.138658
H2    H     H_    0.242240 0.578677 0.352940 0.140077
H3    H     H_    0.229995 0.573603 0.152135 0.139693
H4    H     H_    0.764683 0.421035 0.853183 0.139738
H5    H     H_    0.257760 0.078677 0.852940 0.140077
H6    H     H_    0.735521 0.926070 0.150577 0.138658
H7    H     H_    0.735317 0.921035 0.353183 0.139738
H8    H     H_    0.270005 0.073603 0.652135 0.139693
H9    H     H_    0.294618 0.355402 0.581440 0.121904
H10   H     H_    0.695456 0.640714 0.414888 0.132595
H11   H     H_    0.707724 0.646401 0.078479 0.113260
H12   H     H_    0.283970 0.346102 0.925130 0.111129
H13   H     H_    0.804544 0.140714 0.914888 0.132595
H14   H     H_    0.205382 0.855402 0.081440 0.121904
H15   H     H_    0.216030 0.846102 0.425129 0.111129
H16   H     H_    0.792276 0.146402 0.578479 0.113260
O17   O     O_3   0.453640 0.707610 0.250000 -0.368615
O18   O     O_3   0.546360 0.292390 0.750000 -0.367569
O19   O     O_3   0.953640 0.792390 0.250000 -0.367569
O20   O     O_3   0.046360 0.207610 0.750000 -0.368615
V1    V     V_3+5 0.178800 0.757860 0.250000 1.430957
V2    V     V_3+5 0.821200 0.242140 0.750000 1.428346
V3    V     V_3+5 0.678800 0.742140 0.250000 1.428346
V4    V     V_3+5 0.321200 0.257860 0.750000 1.430957
C9    C     C_R   0.178659 0.390597 0.577624 -0.186893
C10   C     C_R   0.818837 0.609691 0.422173 -0.177107
C11   C     C_R   0.820536 0.609787 0.076792 -0.182897
C12   C     C_R   0.169217 0.381389 0.929579 -0.176836
C13   C     C_R   0.681163 0.109691 0.922173 -0.177107
C14   C     C_R   0.321341 0.890597 0.077624 -0.186893
C15   C     C_R   0.330783 0.881389 0.429579 -0.176836
C16   C     C_R   0.679464 0.109787 0.576792 -0.182898
C17   C     C_R   0.031311 0.386157 0.620217 -0.078381
C18   C     C_R   0.968808 0.615205 0.380595 -0.083062
C19   C     C_R   0.967222 0.614445 0.119808 -0.077990
C20   C     C_R   0.029347 0.380666 0.884150 -0.072623
C21   C     C_R   0.531192 0.115205 0.880595 -0.083062
C22   C     C_R   0.468688 0.886157 0.120217 -0.078381
C23   C     C_R   0.470653 0.880666 0.384149 -0.072623
C24   C     C_R   0.532778 0.114445 0.619808 -0.077990
C25   C     C_R   0.876085 0.429914 0.616721 -0.191071
C26   C     C_R   0.128869 0.574135 0.386149 -0.195151
C27   C     C_R   0.119754 0.569659 0.117870 -0.192834
C28   C     C_R   0.872388 0.423209 0.888357 -0.187044
C29   C     C_R   0.371131 0.074135 0.886149 -0.195151
C30   C     C_R   0.623915 0.929913 0.116721 -0.191071
C31   C     C_R   0.627612 0.923209 0.388357 -0.187044
C32   C     C_R   0.380246 0.069659 0.617870 -0.192834
C33   C     C_R   0.863900 0.477645 0.570335 0.029426
C34   C     C_R   0.142422 0.527506 0.433150 0.030157
C35   C     C_R   0.129935 0.520257 0.073141 0.026668
C36   C     C_R   0.854341 0.468288 0.936246 0.032981
C37   C     C_R   0.357578 0.027506 0.933150 0.030157
C38   C     C_R   0.636100 0.977645 0.070335 0.029426
C39   C     C_R   0.645659 0.968288 0.436246 0.032981
C40   C     C_R   0.370064 0.020258 0.573141 0.026667
C41   C     C_R   0.010320 0.479938 0.525863 0.011936
C42   C     C_R   0.995032 0.524992 0.477389 0.005340
C43   C     C_R   0.984239 0.517080 0.028569 0.013094
C44   C     C_R   0.998901 0.470381 0.981345 0.007039
C45   C     C_R   0.504968 0.024992 0.977389 0.005340
C46   C     C_R   0.489679 0.979938 0.025863 0.011936
C47   C     C_R   0.501098 0.970381 0.481345 0.007039
C48   C     C_R   0.515761 0.017080 0.528569 0.013094
C49   C     C_R   0.171892 0.436952 0.530029 0.082893
C50   C     C_R   0.831234 0.566954 0.472329 0.084311
C51   C     C_R   0.824406 0.561028 0.031256 0.087326
C52   C     C_R   0.157324 0.425636 0.979003 0.074638
C53   C     C_R   0.668766 0.066954 0.972329 0.084311
C54   C     C_R   0.328108 0.936952 0.030029 0.082892
C55   C     C_R   0.342676 0.925637 0.479003 0.074638
C56   C     C_R   0.675594 0.061028 0.531256 0.087326
C57   C     C_R   0.706314 0.521985 0.567141 -0.097287
C58   C     C_R   0.302433 0.484501 0.437064 -0.085114
C59   C     C_R   0.283397 0.474334 0.072369 -0.086172
C60   C     C_R   0.692798 0.510527 0.939900 -0.082876
C61   C     C_R   0.197566 0.984501 0.937064 -0.085114
C62   C     C_R   0.793686 0.021985 0.067142 -0.097287
C63   C     C_R   0.807202 0.010527 0.439900 -0.082876
C64   C     C_R   0.216603 0.974334 0.572369 -0.086172
C65   C     C_R   0.685514 0.565574 0.517475 0.038928
C66   C     C_R   0.321226 0.440502 0.486226 0.016584
C67   C     C_R   0.296983 0.426115 0.026269 0.018900
C68   C     C_R   0.673589 0.555465 0.988224 0.018217
C69   C     C_R   0.178774 0.940502 0.986226 0.016584
C70   C     C_R   0.814486 0.065574 0.017475 0.038928
C71   C     C_R   0.826411 0.055465 0.488224 0.018217
C72   C     C_R   0.203016 0.926115 0.526269 0.018900
C73   C     C_1   0.563435 0.522429 0.614943 0.285704
N1    N     N_1   0.449406 0.522742 0.652950 -0.337575
C74   C     C_1   0.447610 0.484813 0.389903 0.281413
N2    N     N_1   0.563238 0.485034 0.352367 -0.332583
C75   C     C_1   0.430053 0.476975 0.119065 0.281672
N3    N     N_1   0.547020 0.479149 0.156138 -0.333273
C76   C     C_1   0.544392 0.507940 0.893714 0.292916
N4    N     N_1   0.426183 0.505936 0.857019 -0.336885
C77   C     C_1   0.052390 0.984813 0.889903 0.281413
N5    N     N_1   0.936762 0.985034 0.852367 -0.332583
C78   C     C_1   0.936565 0.022429 0.114943 0.285704
N6    N     N_1   0.050594 0.022742 0.152950 -0.337575
C79   C     C_1   0.955608 0.007940 0.393714 0.292916
N7    N     N_1   0.073817 0.005936 0.357019 -0.336885
C80   C     C_1   0.069947 0.976975 0.619065 0.281673
N8    N     N_1   0.952980 0.979149 0.656138 -0.333273
C81   C     C_3   0.505387 0.609235 0.513403 -0.323742
C82   C     C_3   0.531665 0.676507 0.544517 -0.286863
C83   C     C_3   0.566159 0.732968 0.499949 -0.779962
H17   H     H_    0.705534 0.727131 0.476472 0.224577
H18   H     H_    0.447692 0.735464 0.466402 0.221254
H19   H     H_    0.572166 0.780603 0.524376 0.215817
H20   H     H_    0.398490 0.688008 0.570194 0.191729
H21   H     H_    0.651293 0.674468 0.577671 0.205761
H22   H     H_    0.452828 0.614838 0.466667 0.169021
H23   H     H_    0.381566 0.583809 0.534931 0.160167
C84   C     C_3   0.501715 0.397911 0.491439 -0.342683
C85   C     C_3   0.467976 0.329889 0.463900 -0.299852
C86   C     C_3   0.643370 0.285694 0.472356 -0.792023
H24   H     H_    0.772655 0.308643 0.451553 0.241809
H25   H     H_    0.670671 0.277246 0.521049 0.219678
H26   H     H_    0.617037 0.237372 0.450403 0.223689
H27   H     H_    0.341709 0.306299 0.485649 0.193184
H28   H     H_    0.437623 0.335126 0.414998 0.211616
H29   H     H_    0.626941 0.421348 0.468862 0.190362
H30   H     H_    0.548349 0.393468 0.538959 0.173472
C87   C     C_3   0.449696 0.372150 0.032742 -0.343486
C88   C     C_3   0.375031 0.318839 0.076014 -0.299178
C89   C     C_3   0.510897 0.260196 0.080429 -0.770715
H31   H     H_    0.519577 0.234783 0.036331 0.234150
H32   H     H_    0.655850 0.276876 0.094970 0.241550
H33   H     H_    0.455049 0.224519 0.114153 0.223576
H34   H     H_    0.355637 0.340036 0.121706 0.211537
H35   H     H_    0.233131 0.301026 0.060297 0.202974
H36   H     H_    0.494830 0.350067 0.989655 0.165365
H37   H     H_    0.586510 0.393008 0.050353 0.184301
C90   C     C_3   0.486656 0.594470 0.993923 -0.343525
C91   C     C_3   0.492024 0.658242 0.957005 -0.312594
C92   C     C_3   0.289118 0.680847 0.940850 -0.758774
H38   H     H_    0.216975 0.643593 0.911958 0.247161
H39   H     H_    0.202797 0.687900 0.982441 0.230708
H40   H     H_    0.297004 0.728000 0.915525 0.219613
H41   H     H_    0.562914 0.697210 0.983986 0.191376
H42   H     H_    0.574826 0.651204 0.914657 0.214290
H43   H     H_    0.364745 0.563365 0.978596 0.196400
H44   H     H_    0.449840 0.605470 0.041360 0.163902
C93   C     C_3   0.998285 0.897911 0.991439 -0.342683
C94   C     C_3   0.032024 0.829889 0.963900 -0.299853
C95   C     C_3   0.856630 0.785694 0.972356 -0.792023
H45   H     H_    0.829329 0.777246 0.021049 0.219678
H46   H     H_    0.727344 0.808643 0.951553 0.241810
H47   H     H_    0.882963 0.737372 0.950403 0.223689
H48   H     H_    0.062376 0.835126 0.914998 0.211616
H49   H     H_    0.158291 0.806299 0.985649 0.193184
H50   H     H_    0.951651 0.893468 0.038959 0.173472
H51   H     H_    0.873059 0.921348 0.968862 0.190363
C96   C     C_3   0.994613 0.109235 0.013403 -0.323742
C97   C     C_3   0.968335 0.176507 0.044517 -0.286863
C98   C     C_3   0.933840 0.232968 0.999949 -0.779961
H52   H     H_    0.052307 0.235464 0.966403 0.221254
H53   H     H_    0.794465 0.227131 0.976472 0.224577
H54   H     H_    0.927833 0.280603 0.024376 0.215817
H55   H     H_    0.848707 0.174468 0.077671 0.205761
H56   H     H_    0.101510 0.188008 0.070194 0.191729
H57   H     H_    0.118434 0.083809 0.034931 0.160167
H58   H     H_    0.047172 0.114838 0.966667 0.169021
C99   C     C_3   0.013344 0.094470 0.493923 -0.343524
C100  C     C_3   0.007976 0.158242 0.457005 -0.312595
C101  C     C_3   0.210881 0.180847 0.440849 -0.758775
H59   H     H_    0.297203 0.187900 0.482441 0.230708
H60   H     H_    0.283024 0.143593 0.411957 0.247161
H61   H     H_    0.202995 0.228000 0.415525 0.219613
H62   H     H_    0.925173 0.151205 0.414657 0.214290
H63   H     H_    0.937086 0.197210 0.483986 0.191376
H64   H     H_    0.050160 0.105470 0.541360 0.163902
H65   H     H_    0.135255 0.063365 0.478596 0.196400
C102  C     C_3   0.050304 0.872150 0.532742 -0.343486
C103  C     C_3   0.124968 0.818840 0.576014 -0.299178
C104  C     C_3   0.989103 0.760195 0.580428 -0.770714
H66   H     H_    0.844150 0.776876 0.594970 0.241551
H67   H     H_    0.980422 0.734783 0.536330 0.234150
H68   H     H_    0.044951 0.724519 0.614153 0.223576
H69   H     H_    0.266868 0.801026 0.560296 0.202974
H70   H     H_    0.144363 0.840036 0.621706 0.211537
H71   H     H_    0.913490 0.893008 0.550353 0.184301
H72   H     H_    0.005169 0.850067 0.489655 0.165365

loop_
_geom_bond_atom_site_label_1
_geom_bond_atom_site_label_2
_ccdc_geom_bond_type
C99   H65   S    
C47   C48   A    
C48   C56   A    
O9    V1    S    
C100  C101  S    
C38   C62   A    
C104  H66   S    
C29   C37   A    
C82   H20   S    
C95   H47   S    
C95   H45   S    
C83   H19   S    
C2    C24   S    
C36   C44   A    
C39   C47   A    
C41   C42   A    
C66   C84   S    
C25   C33   A    
C78   N6    T    
H8    C32   S    
C68   C90   S    
C94   H49   S    
C98   H52   S    
C33   C57   A    
C95   H46   S    
C84   H29   S    
C103  H69   S    
C40   C64   A    
H4    C28   S    
C3    C21   S    
C73   N1    T    
C55   C72   A    
C86   H25   S    
C6    C20   S    
C30   C38   A    
C94   C95   S    
H9    C9    S    
C74   N2    T    
C26   C34   A    
C64   C80   S    
O3    V4    S    
C9    C17   A    
C90   H44   S    
C22   C30   A    
O3    C2    A    
C63   C71   A    
O18   V2    S    
C89   H33   S    
C93   H50   S    
O8    V1    S    
C46   C54   A    
H6    C30   S    
C37   C61   A    
C18   C26   A    
H15   C15   S    
C81   H23   S    
C43   C44   A    
O20   V2    S    
C103  C104  S    
H16   C16   S    
C15   C23   A    
C49   C66   A    
O10   V2    S    
C89   H31   S    
C16   C24   A    
C58   C66   A    
C91   H42   S    
C12   C20   A    
C87   H37   S    
C72   C102  S    
H12   C12   S    
O6    V2    S    
C100  H63   S    
C53   C70   A    
C41   C49   A    
C38   C46   A    
O15   C7    A    
C37   C45   A    
C102  C103  S    
O16   C8    A    
C88   H35   S    
C11   C51   A    
C104  H67   S    
C39   C63   A    
C13   C21   A    
O15   V4    S    
C34   C42   A    
O16   V3    S    
C33   C41   A    
C92   H39   S    
C10   C50   A    
C92   H38   S    
C11   C19   A    
H5    C29   S    
C94   H48   S    
C98   H53   S    
C56   C71   A    
C84   H30   S    
C60   C68   A    
H10   C10   S    
C13   C53   A    
C101  H59   S    
H2    C26   S    
C93   C94   S    
H1    C25   S    
C85   C86   S    
C15   C55   A    
C86   H26   S    
C85   H28   S    
O13   V3    S    
O1    V3    S    
C65   C81   S    
C96   H58   S    
C14   C22   A    
O2    V4    S    
C45   C46   A    
O5    V1    S    
C61   C77   S    
C31   C39   A    
C32   C40   A    
C47   C55   A    
C10   C18   A    
H13   C13   S    
O7    V2    S    
C4    C22   S    
C59   C75   S    
C19   C27   A    
C90   C91   S    
H14   C14   S    
C76   N4    T    
C52   C67   A    
O11   C3    A    
O12   C4    A    
C102  H71   S    
C101  H60   S    
O17   V3    S    
C81   H22   S    
C60   C76   S    
O18   V4    S    
C91   H41   S    
O19   V1    S    
C77   N5    T    
C97   H56   S    
C100  H62   S    
O4    C1    A    
O9    C1    A    
C23   C31   A    
C71   C99   S    
C88   H34   S    
H11   C11   S    
C79   N7    T    
C104  H68   S    
C12   C52   A    
C27   C35   A    
C69   C93   S    
C57   C73   S    
C62   C78   S    
C93   H51   S    
C92   H40   S    
C59   C67   A    
C97   C98   S    
C64   C72   A    
C81   C82   S    
C98   H54   S    
C99   H64   S    
C7    C17   S    
O1    C4    A    
C103  H70   S    
C34   C58   A    
O2    C3    A    
C51   C68   A    
C82   H21   S    
C50   C65   A    
C9    C49   A    
O12   V1    S    
C83   H18   S    
O8    C5    A    
C85   H27   S    
O14   V4    S    
C84   C85   S    
C5    C19   S    
C80   N8    T    
C36   C60   A    
O7    C6    A    
C43   C51   A    
C54   C69   A    
C75   N3    T    
C42   C50   A    
C21   C29   A    
C91   C92   S    
O14   C6    A    
C82   C83   S    
C101  H61   S    
C57   C65   A    
C40   C48   A    
C87   C88   S    
O13   C5    A    
C28   C36   A    
C35   C43   A    
C58   C74   S    
O5    C8    A    
O19   V3    S    
C70   C96   S    
O10   C2    A    
O6    C7    A    
H7    C31   S    
C102  H72   S    
C90   H43   S    
C16   C56   A    
C89   H32   S    
C35   C59   A    
C99   C100  S    
C63   C79   S    
C14   C54   A    
C62   C70   A    
C97   H55   S    
C96   C97   S    
C67   C87   S    
O20   V4    S    
C45   C53   A    
C96   H57   S    
C20   C28   A    
C8    C18   S    
H3    C27   S    
O17   V1    S    
C88   C89   S    
O11   V2    S    
C44   C52   A    
C87   H36   S    
C86   H24   S    
C61   C69   A    
C1    C23   S    
C83   H17   S    
C24   C32   A    
C17   C25   A    
O4    V3    S    
