data_mof_unit_43069.cif
_audit_creation_date              2012-12-10T19:32:50-0500
_audit_creation_method            fapswitch 2.2
_symmetry_space_group_name_H-M    P1
_symmetry_Int_Tables_number       1
_space_group_crystal_system       triclinic
_cell_length_a                    10.84404
_cell_length_b                    17.717575
_cell_length_c                    16.433575
_cell_angle_alpha                 90.275249
_cell_angle_beta                  90.810808
_cell_angle_gamma                 90.571425
_cell_volume                      3156.87251539

loop_
_atom_site_label
_atom_site_type_symbol
_atom_type_description
_atom_site_fract_x
_atom_site_fract_y
_atom_site_fract_z
_atom_type_partial_charge
C1    C     C_R   0.499977 0.355242 0.499873 0.781411
C2    C     C_R   0.525806 0.232294 0.427988 -0.214959
C3    C     C_R   0.501567 0.727736 0.500406 -0.038712
C4    C     C_R   0.500614 0.272380 0.499735 -0.036445
C5    C     C_R   0.504430 0.767493 0.426625 -0.210987
C6    C     C_R   0.476490 0.232562 0.571621 -0.208907
C7    C     C_R   0.504996 0.846140 0.426767 -0.161671
C8    C     C_R   0.477529 0.153926 0.571697 -0.153307
C9    C     C_R   0.503128 0.885644 0.500517 0.154841
C10   C     C_R   0.502467 0.114546 0.500017 0.152876
C11   C     C_1   0.503232 0.966260 0.500432 -0.066836
C12   C     C_R   0.500477 0.644794 0.500142 0.790993
C13   C     C_1   0.503039 0.033938 0.500212 -0.068799
C14   C     C_R   0.568160 0.552872 0.830540 -0.372616
C15   C     C_R   0.416333 0.455667 0.169661 -0.367294
C16   C     C_R   0.261855 0.501486 0.499321 0.804536
C17   C     C_R   0.738048 0.497493 0.500561 0.795212
C18   C     C_R   0.572528 0.550536 0.744153 0.660797
C19   C     C_R   0.419529 0.453819 0.256311 0.667388
C20   C     C_R   0.427773 0.449377 0.741885 -0.011981
C21   C     C_R   0.580322 0.545632 0.257959 -0.019006
C22   C     C_R   0.424676 0.448812 0.827694 -0.293886
C23   C     C_R   0.871696 0.495094 0.501072 -0.093340
C24   C     C_R   0.581309 0.547039 0.172162 -0.245721
C25   C     C_R   0.495107 0.501296 0.873138 0.076491
C26   C     C_R   0.498268 0.501809 0.126912 0.129105
C27   C     C_1   0.494844 0.501845 0.962734 -0.035119
C28   C     C_1   0.496322 0.502330 0.037313 -0.013262
C29   C     C_R   0.246291 0.656827 0.293584 -0.216528
C30   C     C_R   0.750359 0.323754 0.687406 -0.169035
C31   C     C_R   0.189641 0.628398 0.363136 -0.187043
C32   C     C_R   0.800588 0.363019 0.621910 -0.168808
C33   C     C_R   0.116397 0.562658 0.358047 0.136775
C34   C     C_R   0.128103 0.501674 0.498137 -0.083493
C35   C     C_R   0.883943 0.423071 0.635674 0.126539
C36   C     C_R   0.098412 0.526878 0.282346 -0.188877
C37   C     C_R   0.920247 0.440656 0.715974 -0.264656
C38   C     C_R   0.155440 0.555188 0.213058 -0.217990
C39   C     C_R   0.870769 0.401069 0.781330 -0.260765
C40   C     C_R   0.228466 0.620700 0.218040 0.533197
C41   C     C_R   0.782095 0.343351 0.767724 0.527417
C42   C     C_R   0.931747 0.526539 0.434207 -0.245365
C43   C     C_R   0.068245 0.469197 0.564397 -0.237575
C44   C     C_3   0.228867 0.707920 0.115843 0.037854
C45   C     C_R   0.940347 0.464099 0.566449 0.012159
C46   C     C_3   0.129170 0.681346 0.054759 -0.356658
C47   C     C_3   0.071178 0.747826 0.010246 -0.920151
C48   C     C_3   0.697996 0.343089 0.897997 0.051840
C49   C     C_3   0.779699 0.324346 0.971741 -0.343615
C50   C     C_3   0.743132 0.369751 0.046630 -0.927600
C51   C     C_3   0.765472 0.605927 0.726354 0.036288
C52   C     C_3   0.800314 0.685522 0.755283 -0.360670
C53   C     C_3   0.936685 0.690884 0.779138 -0.922184
C54   C     C_3   0.319111 0.337237 0.270890 0.025248
C55   C     C_3   0.188081 0.326165 0.236763 -0.349704
C56   C     C_R   0.059370 0.530014 0.431562 0.020359
C57   C     C_3   0.167926 0.246103 0.204364 -0.920456
C58   C     C_R   0.500892 0.846694 0.574255 -0.168228
C59   C     C_R   0.526559 0.153615 0.428183 -0.159772
C60   C     C_R   0.500145 0.767998 0.574301 -0.187100
Cu1   Cu    Cu3+1 0.499990 0.499980 0.580420 0.972645
Cu2   Cu    Cu3+1 0.500010 0.500020 0.419580 0.976762
H1    H     H_    0.506940 0.876109 0.369463 0.127863
H2    H     H_    0.686618 0.277478 0.675707 0.148797
H3    H     H_    0.204484 0.656707 0.421068 0.127744
H4    H     H_    0.775080 0.346221 0.560444 0.122061
H5    H     H_    0.042392 0.476079 0.277400 0.139290
H6    H     H_    0.986888 0.485404 0.728143 0.149366
H7    H     H_    0.143602 0.525933 0.155444 0.135984
H8    H     H_    0.902672 0.415339 0.842157 0.136348
H9    H     H_    0.878905 0.550038 0.383984 0.151982
H10   H     H_    0.121935 0.444637 0.613588 0.156274
H11   H     H_    0.499587 0.877124 0.631587 0.131838
H12   H     H_    0.458713 0.123871 0.627509 0.132900
H13   H     H_    0.546097 0.123297 0.372488 0.128201
H14   H     H_    0.498365 0.738801 0.632032 0.174312
H15   H     H_    0.545720 0.261668 0.371972 0.140900
H16   H     H_    0.506519 0.737920 0.368855 0.150049
H17   H     H_    0.456346 0.262125 0.627654 0.146391
H18   H     H_    0.298494 0.741967 0.082811 0.172799
H19   H     H_    0.188697 0.746304 0.162359 0.120424
H20   H     H_    0.170589 0.642659 0.009477 0.231787
H21   H     H_    0.055578 0.650079 0.087196 0.204190
H22   H     H_    0.029036 0.787228 0.054416 0.255127
H23   H     H_    0.621424 0.594906 0.864186 0.145270
H24   H     H_    0.997999 0.726805 0.967730 0.257829
H25   H     H_    0.141908 0.778578 0.974692 0.257291
H26   H     H_    0.601340 0.327101 0.912160 0.167203
H27   H     H_    0.697498 0.405155 0.887434 0.135054
H28   H     H_    0.770994 0.263152 0.985379 0.228087
H29   H     H_    0.877743 0.336787 0.957927 0.211761
H30   H     H_    0.753802 0.431166 0.034984 0.257082
H31   H     H_    0.803594 0.354568 0.099009 0.253317
H32   H     H_    0.645936 0.357104 0.062649 0.258346
H33   H     H_    0.821692 0.592165 0.672387 0.182989
H34   H     H_    0.349498 0.422093 0.135580 0.136961
H35   H     H_    0.790641 0.564432 0.774483 0.122838
H36   H     H_    0.780772 0.726422 0.705761 0.231905
H37   H     H_    0.743858 0.700872 0.808652 0.212159
H38   H     H_    0.957877 0.651130 0.829392 0.253078
H39   H     H_    0.959228 0.749152 0.800055 0.259743
H40   H     H_    0.994989 0.677265 0.726098 0.259767
H41   H     H_    0.330653 0.298914 0.323652 0.174403
H42   H     H_    0.389114 0.319513 0.225691 0.108784
H43   H     H_    0.120793 0.337190 0.285726 0.225053
H44   H     H_    0.170365 0.366834 0.186862 0.207074
H45   H     H_    0.371638 0.409168 0.707786 0.138270
H46   H     H_    0.232366 0.234439 0.153985 0.254047
H47   H     H_    0.071888 0.239761 0.180793 0.254984
H48   H     H_    0.182864 0.204410 0.253718 0.258093
H49   H     H_    0.644009 0.581512 0.291947 0.136180
H50   H     H_    0.367188 0.407777 0.858253 0.145348
H51   H     H_    0.646107 0.583629 0.141453 0.138481
H52   H     H_    0.304625 0.706599 0.298297 0.132740
N1    N     N_R   0.499970 0.499970 0.701220 -0.196883
N2    N     N_R   0.500030 0.500030 0.298780 -0.198952
O1    O     O_R   0.499990 0.391240 0.567930 -0.597270
O2    O     O_3   0.734052 0.299544 0.829921 -0.626048
O3    O     O_3   0.639782 0.603915 0.701661 -0.599233
O4    O     O_3   0.334189 0.412143 0.300049 -0.583347
O5    O     O_R   0.500010 0.608760 0.432070 -0.594576
O6    O     O_R   0.500000 0.391270 0.432120 -0.562284
O7    O     O_R   0.500000 0.608730 0.567880 -0.536972
O8    O     O_R   0.319640 0.499990 0.567910 -0.601164
O9    O     O_R   0.680360 0.500010 0.432090 -0.599713
O10   O     O_R   0.319650 0.500020 0.432090 -0.520432
O11   O     O_R   0.680350 0.499980 0.567910 -0.555477
O12   O     O_3   0.290512 0.645401 0.150145 -0.618024

loop_
_geom_bond_atom_site_label_1
_geom_bond_atom_site_label_2
_ccdc_geom_bond_type
C51   H35   S    
C30   C32   A    
C29   H52   S    
C34   C56   A    
C43   H10   S    
C23   C45   A    
C54   O4    S    
C14   C18   A    
C49   H28   S    
C36   H5    S    
C39   C41   A    
C15   C19   A    
C17   C23   S    
C23   C42   A    
C55   H43   S    
Cu1   O8    S    
C54   H42   S    
C35   C37   A    
C24   C26   A    
C30   H2    S    
C58   C60   A    
C40   O12   S    
C37   H6    S    
C33   C36   A    
C7    C9    A    
C9    C58   A    
C46   C47   S    
C1    O6    A    
C3    C12   S    
C16   C34   S    
C46   H20   S    
C57   H47   S    
C12   O5    A    
C53   H39   S    
C22   C25   A    
Cu1   N1    S    
C51   O3    S    
C48   H26   S    
C30   C41   A    
C41   O2    S    
C20   H45   S    
C42   C56   A    
C3    C60   A    
C33   C56   S    
C38   H7    S    
C24   H51   S    
C49   H29   S    
C21   N2    A    
C8    H12   S    
C21   H49   S    
C44   C46   S    
C53   H38   S    
C55   H44   S    
Cu1   O1    S    
C51   C52   S    
C32   C35   A    
C54   H41   S    
C44   H18   S    
C4    C6    A    
C44   H19   S    
C15   H34   S    
C5    C7    A    
C2    C59   A    
C17   O11   A    
C15   C26   A    
C48   O2    S    
C60   H14   S    
C47   H25   S    
C2    C4    A    
C47   H24   S    
Cu2   N2    S    
Cu2   O9    S    
C9    C11   S    
C32   H4    S    
C57   H48   S    
C53   H40   S    
C31   C33   A    
Cu1   O11   S    
C1    O1    A    
C47   H22   S    
C43   C45   A    
C7    H1    S    
C50   H30   S    
C48   C49   S    
C20   C22   A    
C19   O4    S    
C22   H50   S    
C48   H27   S    
C55   C57   S    
C35   C45   S    
C59   H13   S    
Cu2   O6    S    
C52   C53   S    
Cu2   O10   S    
C31   H3    S    
C54   C55   S    
C44   O12   S    
C8    C10   A    
C50   H32   S    
C34   C43   A    
C14   H23   S    
C3    C5    A    
C10   C13   S    
C18   N1    A    
C20   N1    A    
C6    C8    A    
C50   H31   S    
C25   C27   S    
C52   H37   S    
C26   C28   S    
Cu1   O7    S    
C1    C4    S    
C36   C38   A    
C10   C59   A    
C16   O8    A    
C29   C31   A    
C2    H15   S    
C38   C40   A    
C11   C13   T    
C17   O9    A    
C6    H17   S    
C12   O7    A    
C19   N2    A    
C29   C40   A    
C52   H36   S    
C42   H9    S    
C39   H8    S    
C14   C25   A    
Cu1   Cu2   S    
C46   H21   S    
C57   H46   S    
C37   C39   A    
C49   C50   S    
C21   C24   A    
C27   C28   T    
C5    H16   S    
C16   O10   A    
C18   O3    S    
Cu2   O5    S    
C58   H11   S    
C51   H33   S    
