data_mof_unit_38601.cif
_audit_creation_date              2012-12-11T14:58:35-0500
_audit_creation_method            fapswitch 2.2
_symmetry_space_group_name_H-M    P1
_symmetry_Int_Tables_number       1
_space_group_crystal_system       triclinic
_cell_length_a                    11.001765
_cell_length_b                    10.945398
_cell_length_c                    18.849193
_cell_angle_alpha                 90.488359
_cell_angle_beta                  90.454375
_cell_angle_gamma                 59.822143
_cell_volume                      1962.07922337

loop_
_atom_site_label
_atom_site_type_symbol
_atom_type_description
_atom_site_fract_x
_atom_site_fract_y
_atom_site_fract_z
_atom_type_partial_charge
C1    C     C_R   0.359287 0.770110 0.396828 0.564100
C2    C     C_R   0.267889 0.438193 0.198479 -0.170879
C3    C     C_R   0.260893 0.440237 0.271851 -0.014856
C4    C     C_R   0.388404 0.352174 0.387217 0.560854
C5    C     C_R   0.949231 0.801827 0.385285 0.114445
C6    C     C_R   0.968827 0.667656 0.400470 -0.090233
C7    C     C_R   0.061932 0.550461 0.359822 -0.096477
C8    C     C_R   0.139534 0.565545 0.305110 0.042597
C9    C     C_R   0.371562 0.328611 0.311232 0.036019
C10   C     C_R   0.879129 0.219622 0.299628 -0.151140
C11   C     C_R   0.922489 0.201499 0.229469 -0.163923
C12   C     C_R   0.604519 0.091213 0.159433 -0.011722
C13   C     C_R   0.927812 0.311144 0.193559 0.047989
C14   C     C_R   0.895786 0.436789 0.230459 0.101845
C15   C     C_R   0.856909 0.450313 0.300427 -0.115776
C16   C     C_R   0.781201 0.376945 0.404349 0.533788
C17   C     C_R   0.848253 0.343113 0.335493 0.004206
C18   C     C_R   0.420464 0.695584 0.272466 0.069027
C19   C     C_R   0.413075 0.726922 0.200487 -0.121452
C20   C     C_R   0.341446 0.866709 0.179025 -0.009696
C21   C     C_R   0.277565 0.977134 0.228672 -0.100603
C22   C     C_R   0.280861 0.948038 0.300557 0.028016
C23   C     C_R   0.368535 0.320898 0.162658 -0.019764
C24   C     C_R   0.355435 0.806841 0.322744 0.057512
C25   C     C_R   0.444401 0.329942 0.718947 -0.148199
C26   C     C_R   0.424459 0.323572 0.790995 0.070510
C27   C     C_R   0.302215 0.328161 0.813878 0.050995
C28   C     C_R   0.368615 0.710042 0.611482 0.548764
C29   C     C_R   0.196875 0.345950 0.765388 -0.161603
C30   C     C_R   0.216581 0.353019 0.692783 0.057558
C31   C     C_R   0.342890 0.340747 0.669899 0.052577
C32   C     C_R   0.766678 0.467651 0.729053 -0.145876
C33   C     C_R   0.773964 0.456179 0.801485 -0.147871
C34   C     C_R   0.485947 0.209977 0.274126 -0.006722
C35   C     C_R   0.827694 0.323839 0.832985 0.015658
C36   C     C_R   0.862125 0.204262 0.790542 -0.153605
C37   C     C_R   0.843819 0.218381 0.717009 -0.152337
C38   C     C_R   0.798861 0.350332 0.685950 0.016170
C39   C     C_R   0.233657 0.748722 0.727007 -0.000437
C40   C     C_R   0.371164 0.350781 0.596275 0.572920
C41   C     C_R   0.225147 0.779424 0.799482 -0.106398
C42   C     C_R   0.317303 0.815280 0.831764 0.010175
C43   C     C_R   0.430038 0.806171 0.793813 -0.148170
C44   C     C_R   0.444119 0.772054 0.722563 -0.152137
C45   C     C_R   0.486282 0.211190 0.199599 -0.021408
C46   C     C_R   0.347018 0.744890 0.687715 0.024460
C47   C     C_R   0.966644 0.293050 0.118604 0.568199
C48   C     C_R   0.330728 0.293662 0.091943 0.534552
C49   C     C_R   0.306947 0.900911 0.105389 0.536871
C50   C     C_R   0.882455 0.308872 0.904749 0.571948
C51   C     C_R   0.294020 0.289114 0.885651 0.590662
C52   C     C_R   0.761670 0.377736 0.611131 0.536781
C53   C     C_R   0.278302 0.889417 0.899505 0.544431
C54   C     C_R   0.762583 0.887187 0.055761 -0.138709
C55   C     C_R   0.764476 0.013667 0.058722 0.123027
C56   C     C_R   0.107992 0.701663 0.285606 -0.097051
C57   C     C_R   0.685752 0.116914 0.110246 0.169866
C58   C     C_3   0.610716 0.081520 0.311187 -0.234367
C59   C     C_3   0.564777 0.990052 0.350590 -0.389650
C60   C     C_3   0.116964 0.731552 0.691909 -0.257931
C61   C     C_3   0.007537 0.728853 0.740722 -0.472617
C62   C     C_R   0.014404 0.818279 0.325570 -0.064923
C63   C     C_R   0.609035 0.960010 0.157072 -0.039672
C64   C     C_R   0.683817 0.860683 0.104089 0.106275
Cr1   Cr    Cr6+3 0.601770 0.606860 0.505860 0.994270
Cr2   Cr    Cr6+3 0.291380 0.601660 0.495070 1.017696
Cr3   Cr    Cr6+3 0.606880 0.291510 0.499120 1.006081
Cr4   Cr    Cr6+3 0.062440 0.063090 0.008210 1.006052
Cr5   Cr    Cr6+3 0.062880 0.375170 0.998920 0.994526
Cr6   Cr    Cr6+3 0.374700 0.061720 0.992470 1.010722
H1    H     H_    0.916755 0.652640 0.445244 0.109888
H2    H     H_    0.733684 0.570410 0.707010 0.129092
H3    H     H_    0.747659 0.549969 0.832602 0.131079
H4    H     H_    0.906912 0.100168 0.813783 0.129811
H5    H     H_    0.866997 0.127008 0.684644 0.125173
H6    H     H_    0.000944 0.919395 0.312161 0.103788
H7    H     H_    0.140184 0.786361 0.830748 0.138511
H8    H     H_    0.502714 0.833880 0.817937 0.132280
H9    H     H_    0.528002 0.773935 0.694009 0.132240
H10   H     H_    0.818219 0.811547 0.013732 0.080701
H11   H     H_    0.162274 0.717339 0.242181 0.122577
H12   H     H_    0.082277 0.446401 0.374643 0.121555
H13   H     H_    0.542512 0.941591 0.191702 0.138294
H14   H     H_    0.188365 0.525743 0.168075 0.114372
H15   H     H_    0.486294 0.050303 0.392088 0.172588
H16   H     H_    0.520232 0.945888 0.312517 0.141626
H17   H     H_    0.656372 0.899562 0.376144 0.157186
H18   H     H_    0.695589 0.008577 0.275379 0.118100
H19   H     H_    0.672996 0.112782 0.344857 0.209514
H20   H     H_    0.827610 0.891063 0.473289 0.213477
H21   H     H_    0.935172 0.952265 0.452593 0.237529
H22   H     H_    0.998698 0.520967 0.182982 0.238510
H23   H     H_    0.864777 0.140794 0.325578 0.121269
H24   H     H_    0.863154 0.640422 0.230952 0.224770
H25   H     H_    0.522557 0.482606 0.250963 0.215472
H26   H     H_    0.568979 0.530858 0.325712 0.250017
H27   H     H_    0.767025 0.653604 0.086281 0.283084
H28   H     H_    0.614748 0.751962 0.046697 0.235587
H29   H     H_    0.130554 0.045330 0.374880 0.236446
H30   H     H_    0.274727 0.058504 0.388506 0.222935
H31   H     H_    0.545536 0.395204 0.833713 0.238080
H32   H     H_    0.621422 0.216289 0.830227 0.236100
H33   H     H_    0.094104 0.283336 0.649487 0.238943
H34   H     H_    0.947040 0.103768 0.202745 0.145145
H35   H     H_    0.018239 0.460970 0.654797 0.235105
H36   H     H_    0.059166 0.644414 0.781043 0.162876
H37   H     H_    0.943021 0.833125 0.767065 0.137595
H38   H     H_    0.935487 0.706816 0.708682 0.137530
H39   H     H_    0.057519 0.820569 0.654657 0.171527
H40   H     H_    0.165455 0.631458 0.661926 0.195578
H41   H     H_    0.785371 0.048059 0.956325 0.206817
H42   H     H_    0.937316 0.955309 0.001192 0.237193
H43   H     H_    0.677890 0.287810 0.157525 0.213688
H44   H     H_    0.577540 0.323983 0.084052 0.228101
H45   H     H_    0.824215 0.550783 0.326084 0.139413
H46   H     H_    0.456709 0.642960 0.161140 0.124251
H47   H     H_    0.219931 0.085813 0.210958 0.131169
H48   H     H_    0.539377 0.326732 0.701149 0.135114
H49   H     H_    0.102737 0.347756 0.783595 0.135578
N1    N     N_3   0.867392 0.920878 0.430791 -0.654627
N2    N     N_3   0.895818 0.553806 0.196758 -0.603746
N3    N     N_3   0.482949 0.551250 0.294487 -0.602524
N4    N     N_3   0.667536 0.739976 0.094733 -0.599203
N5    N     N_3   0.205091 0.062079 0.349584 -0.638902
N6    N     N_3   0.528536 0.310475 0.841170 -0.616916
N7    N     N_3   0.111598 0.367956 0.642632 -0.623903
N8    N     N_3   0.835701 0.042503 0.004507 -0.515387
N9    N     N_3   0.675070 0.252748 0.106173 -0.557269
O1    O     O_R   0.748800 0.497470 0.428000 -0.539728
O2    O     O_R   0.417600 0.174890 0.067840 -0.507770
O3    O     O_R   0.375320 0.946260 0.070860 -0.499013
O4    O     O_R   0.476420 0.724060 0.429470 -0.507208
O5    O     O_R   0.160600 0.919630 0.926660 -0.545786
O6    O     O_R   0.933060 0.190520 0.936020 -0.476310
O7    O     O_R   0.908880 0.403460 0.925020 -0.531462
O8    O     O_R   0.179600 0.361450 0.918490 -0.518574
O9    O     O_R   0.391510 0.170860 0.907530 -0.493332
O10   O     O_R   0.351130 0.942530 0.922260 -0.509706
O11   O     O_3   0.166667 0.166667 0.999870 -0.270930
O12   O     O_R   0.300070 0.471040 0.567100 -0.519561
O13   O     O_R   0.264580 0.744340 0.416750 -0.494811
O14   O     O_R   0.309380 0.472470 0.418200 -0.474014
O15   O     O_R   0.501710 0.260430 0.414300 -0.529682
O16   O     O_R   0.728090 0.305600 0.428960 -0.497816
O17   O     O_R   0.738760 0.495930 0.588610 -0.533454
O18   O     O_R   0.467110 0.722640 0.578360 -0.503653
O19   O     O_R   0.254530 0.742800 0.577360 -0.539459
O20   O     O_R   0.491670 0.258900 0.574910 -0.523319
O21   O     O_R   0.718780 0.304180 0.577850 -0.508033
O22   O     O_3   0.500010 0.500010 0.500020 -0.264963
O23   O     O_R   0.186690 0.923650 0.086970 -0.535691
O24   O     O_R   0.957250 0.194250 0.084630 -0.459926
O25   O     O_R   0.934970 0.407490 0.085330 -0.504270
O26   O     O_R   0.203780 0.365190 0.067090 -0.522269

loop_
_geom_bond_atom_site_label_1
_geom_bond_atom_site_label_2
_ccdc_geom_bond_type
C25   C31   A    
C30   N7    S    
Cr5   O11   S    
C52   O17   A    
C23   C45   A    
Cr3   O21   S    
C41   C42   A    
C2    H14   S    
C35   C36   A    
H32   N6    S    
Cr3   O15   S    
C25   H48   S    
C8    C56   A    
C4    O15   A    
C56   H11   S    
C39   C41   A    
H43   N9    S    
C43   H8    S    
C29   H49   S    
C28   C46   S    
C26   C27   A    
C37   C38   A    
C54   C64   A    
H35   N7    S    
C18   C24   A    
C36   C37   A    
C16   O16   A    
Cr2   O22   S    
C50   O7    A    
C42   C53   S    
C4    O14   A    
C30   C31   A    
C38   C52   S    
C10   C17   A    
Cr6   O2    S    
H44   N9    S    
C31   C40   S    
C18   C19   A    
Cr1   O22   S    
C61   H38   S    
H33   N7    S    
H42   N8    S    
C21   H47   S    
C60   H39   S    
C1    O13   A    
C16   O1    A    
C19   C20   A    
C27   C51   S    
C52   O21   A    
H31   N6    S    
C11   H34   S    
C32   C38   A    
C29   C30   A    
C1    C24   S    
C56   C62   A    
C1    O4    A    
C37   H5    S    
Cr6   O11   S    
Cr5   O7    S    
C14   N2    S    
C13   C14   A    
Cr3   O22   S    
C48   O2    A    
C6    H1    S    
C57   N9    S    
Cr3   O16   S    
C44   C46   A    
C54   H10   S    
H28   N4    S    
C49   O23   A    
C5    N1    S    
C53   O10   A    
C7    C8    A    
C53   O5    A    
C32   H2    S    
C3    C8    S    
C50   O6    A    
C13   C47   S    
C12   C63   A    
C40   O20   A    
C16   C17   S    
C47   O25   A    
C10   H23   S    
C25   C26   A    
Cr5   O25   S    
C63   H13   S    
C60   C61   S    
H30   N5    S    
C26   N6    S    
H20   N1    S    
C43   C44   A    
C59   H15   S    
C20   C49   S    
Cr4   O24   S    
Cr2   O13   S    
C49   O3    A    
C51   O8    A    
C4    C9    S    
C35   C50   S    
C34   C45   A    
C20   C21   A    
C3    C9    A    
Cr2   O19   S    
C36   H4    S    
C18   N3    S    
C39   C46   A    
C12   C57   A    
C51   O9    A    
H25   N3    S    
C33   H3    S    
C55   N8    S    
Cr6   O10   S    
Cr5   O8    S    
C55   C57   A    
H41   N8    S    
C9    C34   A    
C22   C24   A    
C42   C43   A    
Cr1   O17   S    
C61   H36   S    
Cr3   O20   S    
Cr1   O4    S    
C15   C17   A    
C48   O26   A    
C54   C55   A    
Cr4   O5    S    
C28   O19   A    
C23   C48   S    
C62   H6    S    
C14   C15   A    
C44   H9    S    
C12   C45   S    
C58   H18   S    
Cr1   O1    S    
C22   N5    S    
C6    C7    A    
Cr2   O14   S    
C64   N4    S    
C28   O18   A    
Cr5   O26   S    
H26   N3    S    
C32   C33   A    
Cr4   O6    S    
C2    C3    A    
C58   C59   S    
C59   H16   S    
H27   N4    S    
Cr4   O23   S    
H22   N2    S    
C41   H7    S    
C11   C13   A    
C5    C6    A    
C27   C29   A    
C19   H46   S    
C39   C60   S    
C40   O12   A    
Cr6   O3    S    
C33   C35   A    
C5    C62   A    
C15   H45   S    
C61   H37   S    
C58   H19   S    
C59   H17   S    
C60   H40   S    
C10   C11   A    
C63   C64   A    
H24   N2    S    
C7    H12   S    
Cr2   O12   S    
C47   O24   A    
Cr6   O9    S    
C2    C23   A    
C34   C58   S    
H21   N1    S    
Cr4   O11   S    
Cr1   O18   S    
C21   C22   A    
H29   N5    S    
