data_mof_unit_65811.cif
_audit_creation_date              2012-12-10T21:02:58-0500
_audit_creation_method            fapswitch 2.2
_symmetry_space_group_name_H-M    P1
_symmetry_Int_Tables_number       1
_space_group_crystal_system       triclinic
_cell_length_a                    15.845907
_cell_length_b                    15.060583
_cell_length_c                    19.273627
_cell_angle_alpha                 89.652759
_cell_angle_beta                  90.199576
_cell_angle_gamma                 90.115279
_cell_volume                      4599.50256377

loop_
_atom_site_label
_atom_site_type_symbol
_atom_type_description
_atom_site_fract_x
_atom_site_fract_y
_atom_site_fract_z
_atom_type_partial_charge
C1    C     C_R   0.338854 0.499927 0.500126 0.903286
C2    C     C_R   0.661146 0.500072 0.499874 0.903287
C3    C     C_1   0.824362 0.500243 0.499702 -0.072975
C4    C     C_1   0.175638 0.499757 0.500298 -0.072975
C5    C     C_1   0.250474 0.499789 0.500269 -0.172739
C6    C     C_1   0.749525 0.500211 0.499731 -0.172738
C7    C     C_R   0.490384 0.953558 0.437827 -0.169981
C8    C     C_R   0.509616 0.046441 0.562173 -0.169981
C9    C     C_R   0.509580 0.952649 0.562162 -0.148274
C10   C     C_R   0.490420 0.047351 0.437837 -0.148274
C11   C     C_R   0.499968 0.905042 0.499992 0.076904
C12   C     C_R   0.500031 0.094958 0.500008 0.076904
C13   C     C_1   0.499977 0.807190 0.499987 0.051352
C14   C     C_1   0.500022 0.192810 0.500013 0.051352
C15   C     C_R   0.499963 0.500365 0.365395 0.948359
C16   C     C_R   0.500037 0.499635 0.634605 0.948358
C17   C     C_R   0.459087 0.569225 0.253543 0.462404
C18   C     C_R   0.540916 0.430776 0.746457 0.462404
C19   C     C_R   0.451436 0.562944 0.745566 0.465746
C20   C     C_R   0.548566 0.437057 0.254434 0.465745
C21   C     C_R   0.458664 0.567836 0.181296 -0.264992
C22   C     C_R   0.541340 0.432166 0.818703 -0.264992
C23   C     C_R   0.452009 0.562841 0.817652 -0.255569
C24   C     C_R   0.547995 0.437160 0.182348 -0.255570
C25   C     C_R   0.503108 0.502258 0.145552 -0.061147
C26   C     C_R   0.496897 0.497744 0.854448 -0.061147
C27   C     C_R   0.501918 0.501713 0.290131 -0.275421
C28   C     C_R   0.498083 0.498287 0.709869 -0.275423
C29   C     C_R   0.498332 0.498823 0.930058 0.351133
C30   C     C_R   0.501675 0.501180 0.069942 0.351133
C31   C     C_R   0.956469 0.537693 0.555637 -0.171558
C32   C     C_R   0.043531 0.462306 0.444363 -0.171558
C33   C     C_R   0.043973 0.537499 0.555827 -0.188170
C34   C     C_R   0.956027 0.462500 0.444174 -0.188171
C35   C     C_R   0.913142 0.500198 0.499811 0.172362
C36   C     C_R   0.086858 0.499801 0.500189 0.172362
H1    H     H_    0.422225 0.617345 0.153442 0.177611
H2    H     H_    0.577780 0.382657 0.846557 0.177611
H3    H     H_    0.417245 0.614034 0.844454 0.182407
H4    H     H_    0.582759 0.385968 0.155547 0.182407
H5    H     H_    0.078077 0.566510 0.598976 0.136868
H6    H     H_    0.921923 0.433490 0.401024 0.136868
H7    H     H_    0.922707 0.566820 0.598661 0.145501
H8    H     H_    0.077293 0.433180 0.401339 0.145501
H9    H     H_    0.482913 0.082755 0.389130 0.143528
H10   H     H_    0.517086 0.917245 0.610870 0.143528
H11   H     H_    0.517147 0.081133 0.610882 0.124231
H12   H     H_    0.482853 0.918867 0.389118 0.124231
N1    N     N_R   0.542495 0.436645 0.034816 -0.181254
N2    N     N_R   0.457512 0.563358 0.965184 -0.181254
N3    N     N_R   0.540861 0.435504 0.966050 -0.181666
N4    N     N_R   0.459146 0.564499 0.033950 -0.181667
N5    N     N_1   0.500000 0.270550 0.500000 -0.080420
N6    N     N_1   0.500000 0.729450 0.500000 -0.080420
O1    O     O_R   0.378020 0.573650 0.500020 -0.596788
O2    O     O_R   0.621980 0.426350 0.499980 -0.596789
O3    O     O_R   0.621980 0.573650 0.499980 -0.623589
O4    O     O_R   0.378020 0.426350 0.500020 -0.623588
O5    O     O_R   0.499990 0.573690 0.398140 -0.598962
O6    O     O_R   0.500010 0.426310 0.601860 -0.598962
O7    O     O_R   0.500010 0.573690 0.601860 -0.573027
O8    O     O_R   0.499990 0.426310 0.398140 -0.573026
Zn1   Zn    Zn3+2 0.500000 0.598370 0.500000 1.010961
Zn2   Zn    Zn3+2 0.500000 0.401630 0.500000 1.010961
O9    O     O_3   0.410336 0.630518 0.288579 -0.584283
C37   C     C_3   0.447741 0.715270 0.282138 -0.259598
H13   H     H_    0.515318 0.714583 0.298320 0.154084
H14   H     H_    0.414255 0.761617 0.317037 0.185645
H15   H     H_    0.441375 0.741583 0.228375 0.149750
O10   O     O_3   0.589665 0.369482 0.711421 -0.584283
C38   C     C_3   0.552261 0.284730 0.717862 -0.259599
H16   H     H_    0.585746 0.238383 0.682963 0.185645
H17   H     H_    0.484683 0.285417 0.701681 0.154084
H18   H     H_    0.558627 0.258418 0.771625 0.149750
O11   O     O_3   0.407708 0.628645 0.710326 -0.578465
C39   C     C_3   0.324124 0.599193 0.699878 -0.289556
H19   H     H_    0.322095 0.537271 0.668620 0.134220
H20   H     H_    0.289310 0.651020 0.670401 0.196566
H21   H     H_    0.291011 0.589002 0.750152 0.155517
O12   O     O_3   0.592292 0.371355 0.289675 -0.578464
C40   C     C_3   0.675877 0.400806 0.300123 -0.289558
H22   H     H_    0.710689 0.348979 0.329601 0.196566
H23   H     H_    0.677906 0.462728 0.331382 0.134220
H24   H     H_    0.708990 0.410997 0.249850 0.155518

loop_
_geom_bond_atom_site_label_1
_geom_bond_atom_site_label_2
_ccdc_geom_bond_type
C16   C28   S    
C7    C10   A    
C37   H14   S    
C4    C36   S    
C18   O10   S    
C34   H6    S    
C39   H21   S    
C3    C6    T    
C40   H22   S    
C2    O3    A    
C7    C11   A    
C31   H7    S    
C1    C5    S    
C32   C36   A    
C39   H20   S    
N5    Zn2   S    
C37   H15   S    
N6    Zn1   S    
C22   H2    S    
C33   C36   A    
C34   C35   A    
C16   O6    A    
C23   C26   A    
O7    Zn1   S    
C21   C25   A    
C20   C24   A    
C8    C9    A    
N1    N3    A    
O1    Zn1   S    
N2    N4    A    
O2    Zn2   S    
O10   C38   S    
O8    Zn2   S    
C37   H13   S    
C9    H10   S    
C2    C6    S    
C15   O5    A    
C40   H23   S    
O3    Zn1   S    
C29   N2    A    
O4    Zn2   S    
C20   O12   S    
C17   C27   A    
C18   C28   A    
C39   H19   S    
C38   H17   S    
C4    C5    T    
C17   C21   A    
C32   C34   A    
C19   C23   A    
O11   C39   S    
C15   C27   S    
C3    C35   S    
C8    C12   A    
C10   H9    S    
C31   C33   A    
C32   H8    S    
C24   C25   A    
C19   C28   A    
C9    C11   A    
C10   C12   A    
C30   N1    A    
C12   C14   S    
C31   C35   A    
C16   O7    A    
C40   H24   S    
C13   N6    T    
C29   N3    A    
C25   C30   S    
C30   N4    A    
C18   C22   A    
O5    Zn1   S    
O12   C40   S    
C38   H18   S    
C20   C27   A    
C17   O9    S    
O6    Zn2   S    
C33   H5    S    
C7    H12   S    
C19   O11   S    
C1    O1    A    
C8    H11   S    
C38   H16   S    
C2    O2    A    
C1    O4    A    
C11   C13   S    
C23   H3    S    
C24   H4    S    
C15   O8    A    
C14   N5    T    
C21   H1    S    
C26   C29   S    
O9    C37   S    
C22   C26   A    
