data_mof_unit_43237.cif
_audit_creation_date              2012-12-10T16:49:23-0500
_audit_creation_method            fapswitch 2.2
_symmetry_space_group_name_H-M    P1
_symmetry_Int_Tables_number       1
_space_group_crystal_system       triclinic
_cell_length_a                    7.813384
_cell_length_b                    8.59734
_cell_length_c                    12.833183
_cell_angle_alpha                 88.254189
_cell_angle_beta                  90.33702
_cell_angle_gamma                 93.245326
_cell_volume                      860.270859044

loop_
_atom_site_label
_atom_site_type_symbol
_atom_type_description
_atom_site_fract_x
_atom_site_fract_y
_atom_site_fract_z
_atom_type_partial_charge
C1    C     C_R   0.455966 0.206056 0.496809 0.837350
C2    C     C_R   0.669024 0.379146 0.147367 0.315665
C3    C     C_R   0.605248 0.502943 0.872900 0.394918
C4    C     C_R   0.394751 0.497054 0.127100 0.394918
C5    C     C_R   0.574865 0.471855 0.977879 -0.197387
C6    C     C_R   0.425133 0.528143 0.022121 -0.197387
C7    C     C_2   0.438196 0.045273 0.481017 0.217381
C8    C     C_2   0.561804 0.954727 0.518983 0.217379
C9    C     C_3   0.329069 0.014132 0.317530 -0.062112
C10   C     C_3   0.670929 0.985873 0.682470 -0.062100
C11   C     C_R   0.544034 0.793944 0.503190 0.837356
C12   C     C_R   0.473157 0.518190 0.698838 0.919783
C13   C     C_R   0.526843 0.481809 0.301162 0.919783
C14   C     C_R   0.531750 0.452676 0.190828 -0.348582
C15   C     C_R   0.468249 0.547323 0.809173 -0.348580
C16   C     C_R   0.313419 0.617493 0.960517 0.454171
C17   C     C_R   0.686580 0.382504 0.039483 0.454171
C18   C     C_R   0.330975 0.620852 0.852633 0.315665
Cl1   Cl    Cl    0.179228 0.468252 0.170285 -0.395233
Cl2   Cl    Cl    0.820771 0.531745 0.829715 -0.395230
Cl3   Cl    Cl    0.803472 0.264130 0.225977 -0.439430
Cl4   Cl    Cl    0.196527 0.735869 0.774024 -0.439428
Cl5   Cl    Cl    0.166840 0.741720 0.015712 -0.396944
Cl6   Cl    Cl    0.833159 0.258277 0.984289 -0.396945
Cl7   Cl    Cl    0.976693 0.679654 0.386443 -0.339041
Cl8   Cl    Cl    0.023307 0.320346 0.613557 -0.339042
H1    H     H_    0.446409 0.957173 0.293297 0.128007
H2    H     H_    0.340056 0.140854 0.296628 0.149407
H3    H     H_    0.219547 0.961749 0.272826 0.250009
H4    H     H_    0.659927 0.859154 0.703373 0.149393
H5    H     H_    0.553598 0.042844 0.706702 0.128007
H6    H     H_    0.780456 0.038246 0.727174 0.250008
N1    N     N_2   0.054030 0.541640 0.471970 0.160057
N2    N     N_2   0.945970 0.458360 0.528030 0.160057
O1    O     O_R   0.609680 0.261530 0.506880 -0.574878
O2    O     O_3   0.703427 0.011869 0.575092 -0.558283
O3    O     O_R   0.390320 0.738470 0.493120 -0.574877
O4    O     O_R   0.323330 0.288220 0.488910 -0.567127
O5    O     O_R   0.676670 0.711780 0.511090 -0.567125
O6    O     O_R   0.619510 0.488830 0.661140 -0.576773
O7    O     O_R   0.380490 0.511170 0.338860 -0.576774
O8    O     O_R   0.333160 0.515520 0.643180 -0.551530
O9    O     O_R   0.666840 0.484480 0.356820 -0.551530
O10   O     O_3   0.296573 0.988130 0.424907 -0.558281
Zn1   Zn    Zn3+2 0.691200 0.482180 0.511990 1.180566
Zn2   Zn    Zn3+2 0.308800 0.517820 0.488010 1.180566

loop_
_geom_bond_atom_site_label_1
_geom_bond_atom_site_label_2
_ccdc_geom_bond_type
C12   O6    A    
C15   C18   A    
C10   O2    S    
O7    Zn2   S    
C10   H4    S    
C12   C15   S    
C9    H3    S    
C13   O9    A    
O5    Zn1   S    
C2    Cl3   S    
C13   O7    A    
N1    N2    D    
C7    C8    D    
N2    Zn1   S    
C18   Cl4   S    
C13   C14   S    
C2    C17   A    
C11   O5    A    
N1    Zn2   S    
O9    Zn1   S    
C9    H1    S    
C5    C6    A    
O8    Zn2   S    
C1    O4    A    
C8    C11   S    
C4    C6    A    
C16   Cl5   S    
C4    C14   A    
O6    Zn1   S    
C2    C14   A    
O4    Zn2   S    
C17   Cl6   S    
C5    C17   A    
C6    C16   A    
O1    Zn1   S    
C10   H6    S    
C3    Cl2   S    
C3    C15   A    
C1    O1    A    
C16   C18   A    
C8    O2    S    
C11   O3    A    
C9    O10   S    
C12   O8    A    
C7    O10   S    
O3    Zn2   S    
C1    C7    S    
C4    Cl1   S    
C10   H5    S    
Cl8   N2    S    
C9    H2    S    
Cl7   N1    S    
C3    C5    A    
