data_mof_unit_18656.cif
_audit_creation_date              2012-12-10T18:32:48-0500
_audit_creation_method            fapswitch 2.2
_symmetry_space_group_name_H-M    P1
_symmetry_Int_Tables_number       1
_space_group_crystal_system       triclinic
_cell_length_a                    15.024019
_cell_length_b                    15.413068
_cell_length_c                    15.812626
_cell_angle_alpha                 92.950565
_cell_angle_beta                  105.355476
_cell_angle_gamma                 81.536251
_cell_volume                      3492.19904622

loop_
_atom_site_label
_atom_site_type_symbol
_atom_type_description
_atom_site_fract_x
_atom_site_fract_y
_atom_site_fract_z
_atom_type_partial_charge
C1    C     C_R   0.441864 0.662767 0.485931 0.904113
C2    C     C_3   0.400817 0.539416 0.026910 0.324716
C3    C     C_3   0.497808 0.491578 0.083078 -0.282769
C4    C     C_3   0.506913 0.394213 0.039203 0.753760
C5    C     C_3   0.528821 0.408368 0.948183 0.152773
C6    C     C_1   0.493267 0.489384 0.173152 0.091073
C7    C     C_1   0.507810 0.513128 0.829224 0.165216
C8    C     C_1   0.505284 0.509104 0.752867 -0.218740
C9    C     C_R   0.406293 0.757080 0.477319 -0.284357
C10   C     C_R   0.592561 0.245742 0.535957 -0.253852
C11   C     C_R   0.278756 0.874957 0.426165 0.587952
C12   C     C_R   0.501497 0.502400 0.662263 0.865262
C13   C     C_R   0.313411 0.785472 0.434302 -0.405224
C14   C     C_R   0.466135 0.819805 0.509862 0.538547
C15   C     C_R   0.428970 0.908461 0.516312 -0.162084
C16   C     C_R   0.336059 0.937802 0.469102 -0.238977
C17   C     C_R   0.487398 0.969578 0.559451 -0.092045
C18   C     C_R   0.465064 0.057011 0.533164 -0.168683
C19   C     C_R   0.369532 0.088753 0.494050 0.430889
C20   C     C_R   0.304994 0.029145 0.463977 0.393942
C21   C     C_R   0.566451 0.946368 0.630309 0.632370
C22   C     C_R   0.636561 0.999812 0.653038 -0.293291
C23   C     C_R   0.558280 0.337632 0.513470 0.918713
C24   C     C_R   0.625593 0.079521 0.610371 -0.073181
C25   C     C_R   0.538863 0.108510 0.550225 0.042000
C26   C     C_R   0.697996 0.132296 0.628958 0.397469
C27   C     C_R   0.676954 0.219979 0.599079 0.368463
C28   C     C_R   0.529681 0.186251 0.506036 -0.278224
C29   C     C_R   0.851627 0.626656 0.642792 0.283319
C30   C     C_R   0.758090 0.611572 0.614514 0.462751
C31   C     C_R   0.794360 0.506593 0.509620 -0.090503
C32   C     C_R   0.891383 0.510910 0.541915 -0.128871
C33   C     C_R   0.919614 0.570138 0.612586 -0.206903
C34   C     C_R   0.498291 0.498122 0.338228 0.856974
C35   C     C_R   0.961138 0.460911 0.505666 -0.073182
C36   C     C_R   0.053935 0.481852 0.532505 -0.118582
C37   C     C_R   0.082199 0.523811 0.615089 0.478867
C38   C     C_R   0.015539 0.569185 0.653985 0.389141
C39   C     C_R   0.944936 0.388151 0.447421 0.506603
C40   C     C_R   0.013241 0.350458 0.406602 -0.195254
C41   C     C_R   0.097438 0.384165 0.419248 -0.169420
C42   C     C_R   0.117577 0.453001 0.480449 -0.176448
C43   C     C_R   0.163500 0.347196 0.374493 0.374695
C44   C     C_R   0.251567 0.376248 0.396074 0.457952
C45   C     C_3   0.404307 0.540727 0.929566 0.174934
C46   C     C_R   0.200635 0.490696 0.486428 0.493270
C47   C     C_3   0.587124 0.558708 0.985333 0.701713
C48   C     C_3   0.577947 0.552522 0.082709 0.714005
C49   C     C_1   0.494286 0.492522 0.248594 -0.245004
C50   C     C_3   0.506573 0.509363 0.920993 -0.234363
H1    H     H_    0.361561 0.490355 0.895456 0.067171
H2    H     H_    0.344667 0.499557 0.027018 0.096108
H3    H     H_    0.469968 0.204232 0.451558 0.262450
H4    H     H_    0.697982 0.979624 0.705351 0.199474
H5    H     H_    0.268486 0.738377 0.402668 0.191893
H6    H     H_    0.999088 0.293877 0.364631 0.199793
H7    H     H_    0.766387 0.467002 0.453769 0.225119
H8    H     H_    0.604998 0.390922 0.964945 0.185916
N1    N     N_R   0.731690 0.552720 0.548990 -0.162371
N2    N     N_R   0.268300 0.447240 0.450950 -0.220202
O1    O     O_R   0.383120 0.605620 0.475300 -0.592999
O2    O     O_R   0.531890 0.639510 0.506740 -0.529606
O3    O     O_R   0.425580 0.483050 0.607130 -0.571836
O4    O     O_R   0.574360 0.516930 0.638570 -0.605665
O5    O     O_R   0.468110 0.360490 0.493260 -0.561272
O6    O     O_R   0.616880 0.394380 0.524700 -0.567216
O7    O     O_R   0.425640 0.483070 0.361430 -0.622615
O8    O     O_R   0.574420 0.516950 0.392870 -0.626127
Zn1   Zn    Zn3+2 0.400660 0.477370 0.479010 0.998435
Zn2   Zn    Zn3+2 0.599340 0.522630 0.520990 0.998785
O9    O     O_3   0.377265 0.626047 0.057950 -0.508211
C51   C     C_3   0.299447 0.633002 0.093261 -0.292450
H9    H     H_    0.311955 0.586703 0.148163 0.142420
H10   H     H_    0.235868 0.621497 0.041472 0.148812
H11   H     H_    0.287265 0.700522 0.119645 0.179178
O10   O     O_3   0.580264 0.336254 0.093467 -0.689325
C52   C     C_3   0.591550 0.249886 0.058921 -0.310654
H12   H     H_    0.527589 0.218366 0.047532 0.197373
H13   H     H_    0.646382 0.209586 0.108097 0.175079
H14   H     H_    0.616143 0.247378 0.998554 0.187364
O11   O     O_3   0.213962 0.061400 0.421562 -0.522036
C53   C     C_3   0.158937 0.068410 0.482209 0.203794
H15   H     H_    0.171607 0.126905 0.525305 0.122122
H16   H     H_    0.172958 0.008921 0.523603 0.111395
C54   C     C_3   0.056454 0.079778 0.432449 -0.782906
H17   H     H_    0.040720 0.021867 0.389334 0.275739
H18   H     H_    0.012546 0.086417 0.479524 0.173169
H19   H     H_    0.039268 0.139312 0.391548 0.260105
O12   O     O_3   0.737838 0.280153 0.631695 -0.632166
C55   C     C_3   0.727098 0.310020 0.714737 -0.260615
H20   H     H_    0.751608 0.256725 0.763767 0.182316
H21   H     H_    0.653562 0.337870 0.711626 0.164336
H22   H     H_    0.770489 0.363253 0.737623 0.167394
O13   O     O_3   0.187679 0.899782 0.379054 -0.593515
C56   C     C_3   0.183780 0.895026 0.288883 -0.275015
H23   H     H_    0.199515 0.826052 0.266929 0.128922
H24   H     H_    0.231704 0.936491 0.272760 0.175260
H25   H     H_    0.111912 0.920511 0.251485 0.186572
O14   O     O_3   0.561814 0.797123 0.525100 -0.528857
C57   C     C_3   0.585962 0.807001 0.445776 0.122851
H26   H     H_    0.552325 0.870538 0.413335 0.117511
H27   H     H_    0.565079 0.752073 0.399869 0.144987
C58   C     C_3   0.690661 0.805312 0.463829 -0.852180
H28   H     H_    0.727433 0.741251 0.491456 0.245028
H29   H     H_    0.709116 0.814699 0.401731 0.201890
H30   H     H_    0.713481 0.859073 0.510380 0.244105
O15   O     O_3   0.365022 0.624028 0.892559 -0.630801
C59   C     C_3   0.292272 0.619372 0.815848 0.149215
H31   H     H_    0.236814 0.585816 0.828867 0.181227
H32   H     H_    0.319555 0.584395 0.762784 0.195496
C60   C     C_3   0.249971 0.711939 0.785857 -0.766855
H33   H     H_    0.302619 0.745783 0.767904 0.218165
H34   H     H_    0.189705 0.709433 0.727995 0.258473
H35   H     H_    0.225506 0.749547 0.839193 0.248217
O16   O     O_3   0.335704 0.177359 0.487865 -0.541389
C61   C     C_3   0.337470 0.212627 0.572491 -0.261705
H36   H     H_    0.408830 0.224035 0.608994 0.176150
H37   H     H_    0.309691 0.170715 0.611969 0.090305
H38   H     H_    0.292909 0.277135 0.565029 0.175960
O17   O     O_3   0.572326 0.874657 0.681512 -0.561482
C62   C     C_3   0.510704 0.896426 0.735676 -0.393372
H39   H     H_    0.501070 0.835903 0.764811 0.196222
H40   H     H_    0.439602 0.926075 0.699116 0.153278
H41   H     H_    0.540318 0.941245 0.789829 0.171005
O18   O     O_3   0.785228 0.099407 0.681615 -0.626365
C63   C     C_3   0.856863 0.112416 0.642387 0.150105
H42   H     H_    0.884250 0.174404 0.667975 0.184233
H43   H     H_    0.833395 0.114550 0.569263 0.114448
C64   C     C_3   0.937064 0.037854 0.666437 -0.908392
H44   H     H_    0.915246 0.976163 0.633596 0.254339
H45   H     H_    0.997051 0.052994 0.643920 0.205764
H46   H     H_    0.959412 0.029053 0.738624 0.269990
O19   O     O_3   0.045888 0.614854 0.731652 -0.557303
C65   C     C_3   0.041774 0.565026 0.802942 0.184429
H47   H     H_    0.100563 0.510588 0.816759 0.102548
H48   H     H_    0.975119 0.536962 0.790846 0.121595
C66   C     C_3   0.050116 0.623590 0.884370 -0.838422
H49   H     H_    0.989327 0.676010 0.874719 0.282305
H50   H     H_    0.052215 0.583993 0.941756 0.183095
H51   H     H_    0.114796 0.654416 0.897946 0.249460
O20   O     O_3   0.214616 0.570773 0.527357 -0.523125
C67   C     C_3   0.152942 0.637578 0.475202 0.116725
H52   H     H_    0.079338 0.624281 0.455976 0.114664
H53   H     H_    0.174293 0.644450 0.414119 0.115508
C68   C     C_3   0.154625 0.723717 0.526677 -0.798659
H54   H     H_    0.227489 0.734682 0.558280 0.269230
H55   H     H_    0.119295 0.778918 0.482108 0.226054
H56   H     H_    0.116966 0.722082 0.578058 0.241639
O21   O     O_3   0.325534 0.323907 0.374701 -0.519255
C69   C     C_3   0.327933 0.338486 0.288210 -0.249993
H57   H     H_    0.401874 0.335243 0.287514 0.173396
H58   H     H_    0.290387 0.403143 0.261155 0.105192
H59   H     H_    0.301409 0.284186 0.244898 0.146237
O22   O     O_3   0.878329 0.687667 0.708587 -0.589893
C70   C     C_3   0.849253 0.773486 0.676265 0.136379
H60   H     H_    0.772084 0.787866 0.654028 0.212574
H61   H     H_    0.880169 0.783940 0.621496 0.133805
C71   C     C_3   0.881935 0.837461 0.750500 -0.836014
H62   H     H_    0.959293 0.830217 0.770377 0.265544
H63   H     H_    0.853905 0.905557 0.729067 0.232363
H64   H     H_    0.856344 0.824526 0.807803 0.253164
O23   O     O_3   0.691336 0.658422 0.650171 -0.537845
C72   C     C_3   0.706351 0.632304 0.737522 0.133909
H65   H     H_    0.771258 0.651871 0.781414 0.157958
H66   H     H_    0.710509 0.559920 0.742425 0.130535
C73   C     C_3   0.626434 0.677550 0.771303 -0.756318
H67   H     H_    0.559820 0.683083 0.719111 0.274226
H68   H     H_    0.619699 0.638412 0.824515 0.229764
H69   H     H_    0.641670 0.743564 0.796525 0.256817
O24   O     O_3   0.673643 0.507748 0.979178 -0.675641
C74   C     C_3   0.752180 0.553426 0.995656 0.245838
H70   H     H_    0.761603 0.591420 0.058282 0.191066
H71   H     H_    0.745503 0.598802 0.941394 0.155242
C75   C     C_3   0.839193 0.487607 0.999666 -0.954648
H72   H     H_    0.848202 0.438650 0.051342 0.268952
H73   H     H_    0.833196 0.452811 0.935527 0.253995
H74   H     H_    0.901480 0.522231 0.014552 0.211191
O25   O     O_3   0.174929 0.518953 0.661210 -0.560883
C76   C     C_3   0.208752 0.432450 0.690913 -0.371787
H75   H     H_    0.211156 0.385520 0.635859 0.167103
H76   H     H_    0.166696 0.409957 0.731541 0.122498
H77   H     H_    0.281156 0.431092 0.731976 0.183784
O26   O     O_3   0.865756 0.348158 0.433038 -0.646014
C77   C     C_3   0.877930 0.288654 0.501268 -0.313165
H78   H     H_    0.884528 0.323170 0.565726 0.195243
H79   H     H_    0.939390 0.237752 0.504319 0.141847
H80   H     H_    0.815395 0.254725 0.487934 0.212555
O27   O     O_3   0.147899 0.273795 0.320927 -0.547627
C78   C     C_3   0.117757 0.298183 0.231390 0.133078
H81   H     H_    0.153380 0.248530 0.193537 0.163714
H82   H     H_    0.134455 0.363509 0.218030 0.081020
C79   C     C_3   0.013574 0.296898 0.195137 -0.921178
H83   H     H_    0.975202 0.353881 0.221700 0.244925
H84   H     H_    0.994408 0.302143 0.122588 0.222488
H85   H     H_    0.993594 0.234999 0.212730 0.271618
O28   O     O_3   0.593175 0.647678 0.964957 -0.659940
C80   C     C_3   0.513378 0.710428 0.939239 0.199010
H86   H     H_    0.463573 0.710174 0.979123 0.283177
H87   H     H_    0.480577 0.702621 0.868156 0.175467
C81   C     C_3   0.543755 0.801182 0.953611 -0.944291
H88   H     H_    0.596717 0.807248 0.917847 0.259191
H89   H     H_    0.482656 0.852083 0.930132 0.215102
H90   H     H_    0.574968 0.812677 0.024445 0.271276
O29   O     O_3   0.542143 0.639219 0.106085 -0.581488
C82   C     C_3   0.589866 0.675062 0.186668 0.256442
H91   H     H_    0.658103 0.690947 0.181520 0.157559
H92   H     H_    0.600694 0.629556 0.241956 0.159743
C83   C     C_3   0.531873 0.759631 0.205684 -0.917428
H93   H     H_    0.469298 0.744538 0.223821 0.255598
H94   H     H_    0.574085 0.796099 0.260256 0.193990
H95   H     H_    0.509039 0.802033 0.147091 0.270674
O30   O     O_3   0.669763 0.531921 0.141216 -0.677149
C84   C     C_3   0.704604 0.445526 0.167712 0.107609
H96   H     H_    0.714987 0.403694 0.111021 0.214426
H97   H     H_    0.661597 0.420117 0.204995 0.214789
C85   C     C_3   0.799260 0.445952 0.232664 -0.858462
H98   H     H_    0.791938 0.486388 0.291312 0.263107
H99   H     H_    0.828882 0.377841 0.253736 0.245741
H100  H     H_    0.847261 0.473812 0.202280 0.246696
O31   O     O_3   0.505605 0.348692 0.875303 -0.612800
C86   C     C_3   0.423270 0.310454 0.861608 -0.202643
H101  H     H_    0.361853 0.356761 0.867251 0.161684
H102  H     H_    0.434673 0.253270 0.904743 0.186363
H103  H     H_    0.406232 0.284373 0.793378 0.136287
O32   O     O_3   0.420946 0.358892 0.023924 -0.652934
C87   C     C_3   0.398633 0.334744 0.100342 -0.368316
H104  H     H_    0.351471 0.388779 0.121323 0.150464
H105  H     H_    0.459791 0.315148 0.156187 0.212501
H106  H     H_    0.359809 0.277663 0.083684 0.172268

loop_
_geom_bond_atom_site_label_1
_geom_bond_atom_site_label_2
_ccdc_geom_bond_type
C10   C27   A    
C73   H68   S    
C74   H70   S    
C63   H42   S    
O19   C65   S    
C70   H61   S    
C41   C42   A    
C36   C42   A    
C56   H23   S    
C85   H100  S    
C9    C14   A    
C3    C6    S    
C13   H5    S    
C1    O2    A    
C47   O24   S    
C65   C66   S    
C68   H54   S    
C56   H25   S    
C7    C8    T    
C22   H4    S    
O6    Zn2   S    
C82   H91   S    
C61   H36   S    
C25   C28   A    
C37   O25   S    
C66   H50   S    
C26   C27   A    
C37   C38   A    
C5    H8    S    
C45   C50   S    
C23   O6    A    
C36   C37   A    
C72   H66   S    
C24   C26   A    
C64   H44   S    
C86   H103  S    
C81   H90   S    
C54   H17   S    
C12   O4    A    
C54   H19   S    
C5    O31   S    
O24   C74   S    
C45   H1    S    
C10   C28   A    
C15   C16   A    
C29   C33   A    
C3    C48   S    
C59   H31   S    
O2    Zn2   S    
C80   H87   S    
C18   C19   A    
C42   C46   A    
C38   O19   S    
C31   N1    A    
C78   H82   S    
C9    C13   A    
C75   H72   S    
C62   H41   S    
C20   O11   S    
C71   H64   S    
C19   O16   S    
C58   H29   S    
C31   H7    S    
O14   C57   S    
C78   C79   S    
C61   H37   S    
C81   H88   S    
C40   H6    S    
C69   H59   S    
C17   C18   A    
C47   C48   S    
O15   C59   S    
O4    Zn2   S    
C47   C50   S    
C8    C12   S    
C51   H9    S    
C64   H46   S    
C22   C24   A    
C82   H92   S    
O30   C84   S    
C21   C22   A    
C70   C71   S    
C71   H63   S    
C41   C43   A    
C67   C68   S    
C73   H67   S    
C78   H81   S    
C18   C25   A    
C51   H11   S    
C48   O30   S    
O31   C86   S    
C68   H55   S    
O25   C76   S    
C46   O20   S    
O10   C52   S    
C54   H18   S    
C2    C45   S    
C74   C75   S    
C4    O10   S    
C32   C35   A    
O3    Zn1   S    
C47   O28   S    
C14   O14   S    
C72   C73   S    
C1    C9    S    
C24   C25   A    
C51   H10   S    
C34   O8    A    
C39   C40   A    
C12   O3    A    
C83   H93   S    
C65   H48   S    
C63   C64   S    
C52   H12   S    
C57   C58   S    
O11   C53   S    
O27   C78   S    
O7    Zn1   S    
C35   C36   A    
C79   H84   S    
C58   H30   S    
C80   C81   S    
C35   C39   A    
C43   C44   A    
C79   H85   S    
O26   C77   S    
C29   C30   A    
C86   H101  S    
C74   H71   S    
C11   C16   A    
C55   H21   S    
C31   C32   A    
C84   H96   S    
C16   C20   A    
C30   N1    A    
C57   H27   S    
O32   C87   S    
O22   C70   S    
C52   H13   S    
C60   H34   S    
C59   C60   S    
C4    O32   S    
C85   H98   S    
C75   H74   S    
C62   H39   S    
C2    H2    S    
C77   H80   S    
C11   O13   S    
N2    Zn1   S    
C40   C41   A    
C53   H15   S    
C87   H105  S    
O18   C63   S    
C69   H58   S    
C5    C50   S    
C30   O23   S    
C3    C4    S    
C53   C54   S    
C70   H60   S    
C68   H56   S    
O17   C62   S    
C55   H22   S    
O16   C61   S    
O23   C72   S    
C82   C83   S    
O1    Zn1   S    
C15   C17   A    
C84   C85   S    
C80   H86   S    
C34   C49   S    
C63   H43   S    
C60   H33   S    
C46   N2    A    
C69   H57   S    
C33   C38   A    
C7    C50   S    
C85   H99   S    
O28   C80   S    
C1    O1    A    
C34   O7    A    
C28   H3    S    
C56   H24   S    
C65   H47   S    
C10   C23   S    
C21   O17   S    
C87   H106  S    
C66   H49   S    
C48   O29   S    
C53   H16   S    
C44   O21   S    
C77   H79   S    
C61   H38   S    
C32   C33   A    
C76   H77   S    
C19   C20   A    
C2    C3    S    
C84   H97   S    
O9    C51   S    
C86   H102  S    
C83   H94   S    
O20   C67   S    
C79   H83   S    
C11   C13   A    
C23   O5    A    
C55   H20   S    
C71   H62   S    
C52   H14   S    
C43   O27   S    
C44   N2    A    
C83   H95   S    
O5    Zn1   S    
C66   H51   S    
C57   H26   S    
C59   H32   S    
C27   O12   S    
C60   H35   S    
C67   H53   S    
C6    C49   T    
O13   C56   S    
C75   H73   S    
C62   H40   S    
C72   H65   S    
N1    Zn2   S    
C76   H75   S    
C45   O15   S    
C4    C5    S    
O29   C82   S    
C73   H69   S    
C81   H89   S    
C87   H104  S    
C58   H28   S    
C67   H52   S    
O8    Zn2   S    
C14   C15   A    
C77   H78   S    
C76   H76   S    
O12   C55   S    
O21   C69   S    
C26   O18   S    
C39   O26   S    
C2    O9    S    
C29   O22   S    
C64   H45   S    
C17   C21   A    
