data_mof_unit_31734.cif
_audit_creation_date              2012-12-10T17:01:27-0500
_audit_creation_method            fapswitch 2.2
_symmetry_space_group_name_H-M    P1
_symmetry_Int_Tables_number       1
_space_group_crystal_system       triclinic
_cell_length_a                    12.830198
_cell_length_b                    10.660499
_cell_length_c                    10.176664
_cell_angle_alpha                 92.731484
_cell_angle_beta                  99.239823
_cell_angle_gamma                 90.411108
_cell_volume                      1372.15006675

loop_
_atom_site_label
_atom_site_type_symbol
_atom_type_description
_atom_site_fract_x
_atom_site_fract_y
_atom_site_fract_z
_atom_type_partial_charge
C1    C     C_R   0.502356 0.262891 0.497206 0.949358
C2    C     C_2   0.502815 0.129773 0.489062 -0.485560
C3    C     C_2   0.545724 0.585953 0.941705 0.372317
C4    C     C_R   0.298245 0.497962 0.471556 0.855737
C5    C     C_2   0.563670 0.565705 0.088805 -0.135879
C6    C     C_R   0.505872 0.737161 0.503960 0.979343
C7    C     C_R   0.702454 0.496074 0.528942 0.943204
C8    C     C_R   0.816678 0.480191 0.548553 -0.092255
C9    C     C_R   0.185047 0.489026 0.451457 -0.083749
C10   C     C_R   0.015755 0.547707 0.338642 -0.130260
C11   C     C_R   0.123818 0.541580 0.342827 -0.180728
C12   C     C_R   0.030121 0.437239 0.547008 -0.000928
C13   C     C_R   0.138611 0.434117 0.549778 -0.141187
C14   C     C_3   0.419855 0.417749 0.067409 -0.231223
C15   C     C_3   0.329009 0.370980 0.131987 -0.644688
C16   C     C_3   0.827517 0.385900 0.778714 -0.348998
C17   C     C_3   0.760413 0.265170 0.755963 -0.629499
C18   C     C_R   0.969845 0.500569 0.442722 0.120289
C19   C     C_R   0.864879 0.520050 0.444323 -0.248115
C20   C     C_R   0.875443 0.416266 0.656273 0.021153
C21   C     C_R   0.982257 0.386119 0.649632 0.419353
C22   C     C_2   0.552992 0.927494 0.411266 -0.209351
C23   C     C_2   0.527704 0.868811 0.515110 -0.368996
C24   C     C_2   0.563973 0.062729 0.416714 0.497382
H1    H     H_    0.820425 0.570088 0.363627 0.167676
H2    H     H_    0.713263 0.796709 0.052809 0.355095
H3    H     H_    0.354791 0.317813 0.220964 0.270444
H4    H     H_    0.274758 0.448627 0.148053 0.249796
H5    H     H_    0.281303 0.302634 0.060578 0.242741
H6    H     H_    0.375651 0.468018 0.983586 0.190284
H7    H     H_    0.458363 0.331040 0.035521 0.203956
H8    H     H_    0.692031 0.275417 0.676860 0.248089
H9    H     H_    0.806182 0.184829 0.723826 0.302894
H10   H     H_    0.731248 0.243020 0.849318 0.236528
H11   H     H_    0.889068 0.378856 0.867406 0.254825
H12   H     H_    0.447269 0.085617 0.543113 0.154041
H13   H     H_    0.781284 0.465482 0.811267 0.214715
H14   H     H_    0.037009 0.153229 0.914495 0.394122
H15   H     H_    0.780817 0.055268 0.224316 0.391756
H16   H     H_    0.514073 0.410283 0.877599 0.143283
H17   H     H_    0.623254 0.623367 0.152035 0.167350
H18   H     H_    0.968706 0.593874 0.257219 0.143063
H19   H     H_    0.159721 0.584128 0.266163 0.162475
H20   H     H_    0.189656 0.396345 0.632651 0.228500
H21   H     H_    0.564093 0.876370 0.319662 0.236703
H22   H     H_    0.526872 0.917166 0.611296 0.214201
N1    N     N_2   0.501130 0.501330 0.852280 -0.249525
N2    N     N_2   0.501160 0.501360 0.147950 -0.059014
O1    O     O_R   0.499980 0.319060 0.613040 -0.632803
O2    O     O_2   0.486229 0.804590 0.837469 -0.247575
O3    O     O_3   0.638502 0.822697 0.036257 -0.521956
O4    O     O_2   0.123652 0.199525 0.691970 -0.290272
O5    O     O_2   0.129158 0.367025 0.866220 -0.361434
O6    O     O_3   0.985156 0.192916 0.846766 -0.559685
O7    O     O_2   0.598186 0.183995 0.202251 -0.283920
O8    O     O_2   0.722683 0.226787 0.409499 -0.331467
O9    O     O_3   0.735055 0.013639 0.279376 -0.533890
O10   O     O_R   0.500020 0.319100 0.386900 -0.556420
O11   O     O_R   0.346340 0.499960 0.594380 -0.601714
O12   O     O_R   0.346380 0.500000 0.368250 -0.635762
O13   O     O_R   0.499980 0.680900 0.613100 -0.516219
O14   O     O_R   0.500020 0.680940 0.386960 -0.623564
O15   O     O_R   0.653620 0.500000 0.631750 -0.616970
O16   O     O_R   0.653660 0.500040 0.405620 -0.594458
O17   O     O_2   0.660789 0.726851 0.804042 -0.315169
S1    S     S_3+6 0.582792 0.737010 0.899429 0.052701
S2    S     S_3+6 0.057531 0.285160 0.765470 -0.011419
S3    S     S_3+6 0.656140 0.127468 0.325093 0.052766
Zn1   Zn    Zn3+2 0.499980 0.499970 0.650990 1.027026
Zn2   Zn    Zn3+2 0.500020 0.500030 0.349010 1.011486

loop_
_geom_bond_atom_site_label_1
_geom_bond_atom_site_label_2
_ccdc_geom_bond_type
H16   N1    S    
C14   N2    S    
N2    Zn2   S    
C11   H19   S    
C2    H12   S    
O16   Zn2   S    
C10   H18   S    
O2    S1    D    
C14   H7    S    
C15   H3    S    
H14   O6    S    
O12   Zn2   S    
C16   H13   S    
C16   C20   S    
O8    S3    D    
C4    O12   A    
O7    S3    D    
C4    C9    S    
C7    C8    S    
C23   H22   S    
O1    Zn1   S    
H2    O3    S    
C21   S2    S    
C9    C11   A    
C7    O15   A    
C15   H4    S    
C8    C20   A    
C6    O14   A    
C17   H9    S    
O11   Zn1   S    
O5    S2    D    
C6    C23   S    
C6    O13   A    
C3    N1    D    
C14   H6    S    
O10   Zn2   S    
C15   H5    S    
C4    O11   A    
O17   S1    D    
C16   H11   S    
C2    C24   D    
C14   C15   S    
C19   H1    S    
C5    N2    D    
C22   C24   S    
C7    O16   A    
C8    C19   A    
C10   C11   A    
C24   S3    S    
O9    S3    S    
C12   C18   A    
C3    S1    S    
C22   H21   S    
C10   C18   A    
C12   C13   A    
O14   Zn2   S    
C1    C2    S    
C17   H10   S    
O13   Zn1   S    
C17   H8    S    
C9    C13   A    
C22   C23   D    
C18   C19   A    
C5    H17   S    
O6    S2    S    
C20   C21   A    
C1    O10   A    
C1    O1    A    
C12   C21   A    
C13   H20   S    
N1    Zn1   S    
O15   Zn1   S    
O4    S2    D    
C16   C17   S    
C3    C5    S    
O3    S1    S    
H15   O9    S    
