data_mof_unit_18270.cif
_audit_creation_date              2013-03-05T16:17:54-0500
_audit_creation_method            fapswitch 2.2
_symmetry_space_group_name_H-M    P1
_symmetry_Int_Tables_number       1
_space_group_crystal_system       triclinic
_cell_length_a                    8.300698
_cell_length_b                    22.962074
_cell_length_c                    27.009213
_cell_angle_alpha                 96.300673
_cell_angle_beta                  92.862448
_cell_angle_gamma                 89.004114
_cell_volume                      5110.14242677

loop_
_atom_site_label
_atom_site_type_symbol
_atom_site_description
_atom_site_fract_x
_atom_site_fract_y
_atom_site_fract_z
_atom_type_partial_charge
P1    P     P_3+3 0.092730 0.547450 0.611370 0.553486
O1    O     O_2   0.919820 0.530450 0.618560 -0.312357
O2    O     O_3   0.151800 0.530410 0.558380 -0.368307
O3    O     O_3   0.654050 0.426350 0.586890 -0.412776
O4    O     O_2   0.781130 0.464648 0.675365 -0.247061
O5    O     O_3   0.054962 0.623424 0.613909 -0.581274
O6    O     O_3   0.700359 0.353270 0.661349 -0.463997
H1    H     H_    0.697083 0.317733 0.587122 0.126785
C1    C     C_3   0.643698 0.251406 0.634046 -0.789793
H2    H     H_    0.766236 0.232960 0.629281 0.248075
H3    H     H_    0.608222 0.248374 0.672754 0.306517
P2    P     P_3+3 0.606840 0.368620 0.459370 0.479160
P3    P     P_3+3 0.080371 0.320817 0.563800 0.510881
O7    O     O_2   0.782760 0.360070 0.473730 -0.369372
O8    O     O_3   0.056430 0.397060 0.562000 -0.330334
O9    O     O_2   0.963797 0.295088 0.520847 -0.344572
O10   O     O_3   0.593589 0.350790 0.394712 -0.555870
O11   O     O_3   0.995215 0.292712 0.615235 -0.599544
C2    C     C_3   0.075873 0.305200 0.662981 0.973344
C3    C     C_3   0.006361 0.264734 0.698484 -0.770896
C4    C     C_3   0.154982 0.350320 0.417432 0.364433
H4    H     H_    0.279484 0.364406 0.428051 0.095416
H5    H     H_    0.076212 0.362196 0.449062 0.140758
C5    C     C_3   0.153338 0.284076 0.405083 -0.820376
H6    H     H_    0.236818 0.270630 0.374909 0.258541
H7    H     H_    0.191974 0.262341 0.438412 0.228404
H8    H     H_    0.029429 0.269530 0.392717 0.276455
Ba1   Ba    Ba6+2 0.848110 0.472730 0.522970 1.649229
C6    C     C_3   0.190587 0.657748 0.629849 0.719997
H9    H     H_    0.303961 0.635448 0.618038 0.000062
C7    C     C_3   0.197286 0.672275 0.686587 -0.816304
H10   H     H_    0.075992 0.685595 0.699612 0.284893
H11   H     H_    0.278820 0.709585 0.698001 0.230811
H12   H     H_    0.243113 0.634468 0.705319 0.242187
C8    C     C_3   0.668321 0.393395 0.371295 0.405171
H13   H     H_    0.788546 0.404004 0.389143 0.107600
H14   H     H_    0.590361 0.433174 0.372823 0.097257
C9    C     C_3   0.689892 0.369134 0.317208 -0.906492
H15   H     H_    0.756980 0.326743 0.315729 0.282852
H16   H     H_    0.759477 0.399694 0.297832 0.224285
H17   H     H_    0.570194 0.362100 0.297383 0.259214
P4    P     P_3+3 0.096970 0.452510 0.388620 0.478146
O12   O     O_2   0.269870 0.469530 0.381410 -0.361422
O13   O     O_3   0.037890 0.469550 0.441610 -0.408019
O14   O     O_3   0.535640 0.573600 0.413100 -0.384873
O15   O     O_3   0.099727 0.376154 0.375132 -0.552704
P5    P     P_3+3 0.118304 0.679309 0.449086 0.507130
O16   O     O_3   0.647280 0.568810 0.525990 -0.383627
O17   O     O_3   0.133260 0.602900 0.438000 -0.397421
O18   O     O_2   0.290155 0.701856 0.462647 -0.364681
O19   O     O_3   0.072151 0.707173 0.392261 -0.483489
Ba2   Ba    Ba6+2 0.341700 0.527220 0.477020 1.611361
P6    P     P_3+3 0.644634 0.425077 0.650596 0.598464
C10   C     C_3   0.632569 0.314724 0.621783 0.480249
H18   H     H_    0.503572 0.325425 0.614725 0.061910
H19   H     H_    0.563595 0.223390 0.607915 0.228139
O20   O     O_3   0.542410 0.431140 0.474010 -0.390819
C11   C     C_3   0.643979 0.632225 0.635898 0.187045
H20   H     H_    0.557987 0.595494 0.632630 0.060523
H21   H     H_    0.765529 0.615899 0.627730 0.171857
C12   C     C_3   0.649533 0.665134 0.688638 -0.059344
H22   H     H_    0.546269 0.696195 0.692398 0.137080
H23   H     H_    0.761054 0.691690 0.694247 0.152287
P7    P     P_3+3 0.591979 0.642793 0.540573 0.539215
O21   O     O_2   0.406930 0.639920 0.526240 -0.326285
O22   O     O_3   0.596589 0.672857 0.603106 -0.540633
C13   C     C_3   0.961411 0.670114 0.363922 0.321202
H24   H     H_    0.013744 0.625455 0.355571 0.105096
C14   C     C_3   0.923569 0.694352 0.314457 -0.744908
H25   H     H_    0.034545 0.694074 0.293080 0.261102
H26   H     H_    0.831455 0.666960 0.292209 0.259456
H27   H     H_    0.876918 0.740006 0.320998 0.256616
P8    P     P_3+3 0.537128 0.566708 0.347963 0.443621
C15   C     C_3   0.462404 0.676838 0.356219 0.305007
H28   H     H_    0.508065 0.683762 0.395762 0.100137
O23   O     O_2   0.365956 0.548311 0.327250 -0.405240
O24   O     O_3   0.562521 0.636419 0.329164 -0.586236
H29   H     H_    0.335729 0.661432 0.353800 0.144947
H30   H     H_    0.590295 0.752428 0.337244 0.133255
C16   C     C_3   0.465760 0.735065 0.333886 -0.185646
H31   H     H_    0.428535 0.727599 0.293577 0.157491
C17   C     C_R   0.978466 0.454431 0.178690 0.529649
O25   O     O_2   0.974864 0.409191 0.198605 -0.578274
N1    N     N_R   0.939735 0.507298 0.205394 -0.166683
C18   C     C_R   0.942518 0.558646 0.182955 0.542563
C19   C     C_2   0.744580 0.522880 0.270833 -0.177044
C20   C     C_3   0.697507 0.515208 0.323400 0.181845
C21   C     C_1   0.977618 0.490964 0.343077 0.290489
C22   C     C_2   0.017992 0.490514 0.296002 -0.191240
C23   C     C_2   0.896652 0.508435 0.257110 0.126989
C24   C     C_R   0.024438 0.504121 0.105142 -0.071431
C25   C     C_R   0.020361 0.452155 0.128371 -0.065208
C26   C     C_R   0.058853 0.398915 0.100912 -0.069698
C27   C     C_R   0.985552 0.557746 0.132774 -0.064394
C28   C     C_2   0.844819 0.517630 0.358707 -0.489548
H32   H     H_    0.137712 0.476291 0.285133 0.171664
H33   H     H_    0.059221 0.358276 0.117877 0.178637
C29   C     C_2   0.359796 0.496126 0.646702 -0.437319
C30   C     C_R   0.133821 0.446116 0.974680 0.006239
C31   C     C_R   0.130014 0.553672 0.982024 0.007877
C32   C     C_R   0.153026 0.499061 0.952986 0.111299
C33   C     C_R   0.149615 0.392797 0.943987 -0.274754
C34   C     C_R   0.189221 0.390480 0.894251 0.426939
C35   C     C_R   0.209927 0.442898 0.872115 -0.224669
C36   C     C_R   0.195035 0.497370 0.901895 -0.085130
C37   C     C_R   0.221834 0.550104 0.880690 -0.226779
C38   C     C_R   0.255380 0.547230 0.829212 0.718406
N2    N     N_R   0.264871 0.493956 0.800234 -0.167180
C39   C     C_R   0.240282 0.442468 0.820816 0.707855
C40   C     C_2   0.430720 0.461610 0.729623 0.339914
C41   C     C_3   0.440533 0.448161 0.673532 0.123513
C42   C     C_1   0.220871 0.519043 0.662563 0.134967
C43   C     C_2   0.183039 0.518907 0.710778 0.280593
C44   C     C_2   0.298548 0.491375 0.747307 -0.078979
O26   O     O_2   0.241946 0.396186 0.793904 -0.476665
C45   C     C_R   0.099607 0.447840 0.026243 0.067853
C46   C     C_R   0.067408 0.502430 0.054260 0.083628
C47   C     C_R   0.078005 0.555332 0.031931 0.066108
C48   C     C_R   0.097534 0.396686 0.051169 -0.183348
H34   H     H_    0.131341 0.351126 0.957451 0.168154
H35   H     H_    0.128931 0.353868 0.033736 0.144526
O27   O     O_2   0.908856 0.605215 0.206773 -0.598341
C49   C     C_R   0.989626 0.609329 0.109594 -0.073096
H36   H     H_    0.652856 0.533970 0.243228 0.153397
H37   H     H_    0.957809 0.651172 0.129508 0.177157
C50   C     C_R   0.164192 0.605120 0.960612 -0.273556
C51   C     C_R   0.212057 0.604008 0.911615 0.422265
O28   O     O_2   0.273617 0.592071 0.809804 -0.488562
C52   C     C_R   0.034467 0.608253 0.060425 -0.180499
H38   H     H_    0.162944 0.647511 0.982099 0.166687
H39   H     H_    0.029685 0.649825 0.045369 0.149147
H40   H     H_    0.842880 0.541654 0.395620 0.166041
H41   H     H_    0.410599 0.508382 0.613097 0.157756
H42   H     H_    0.992956 0.976678 0.439506 0.219800
C53   C     C_R   0.373748 0.334916 0.521756 -0.533600
C54   C     C_R   0.538253 0.931110 0.515708 -0.051324
C55   C     C_R   0.594069 0.873316 0.519474 0.586944
O29   O     O_2   0.517969 0.842030 0.543428 -0.534865
N3    N     N_R   0.734712 0.852366 0.497208 -0.167463
C56   C     C_R   0.827209 0.891033 0.474488 0.570747
O30   O     O_2   0.944558 0.873075 0.451600 -0.545184
C57   C     C_R   0.784996 0.951310 0.476490 -0.108970
C58   C     C_R   0.637862 0.970940 0.496133 0.001079
C59   C     C_R   0.384792 0.950016 0.531276 -0.062078
C60   C     C_R   0.331843 0.007447 0.527356 -0.102911
C61   C     C_R   0.435026 0.048670 0.511023 -0.022872
C62   C     C_R   0.589702 0.030618 0.496331 -0.037447
C63   C     C_R   0.883069 0.991835 0.457034 -0.216126
C64   C     C_R   0.839720 0.051640 0.458603 0.409867
C65   C     C_R   0.695321 0.072025 0.481574 -0.215078
C66   C     C_R   0.655297 0.132361 0.492509 0.592941
N4    N     N_R   0.497372 0.150505 0.502446 -0.169619
C67   C     C_R   0.385588 0.107336 0.508272 0.587094
C68   C     C_2   0.935670 0.770418 0.499071 -0.095465
C69   C     C_3   0.976917 0.705000 0.498101 0.302040
C70   C     C_1   0.691358 0.690490 0.502809 0.302752
C71   C     C_2   0.650787 0.744042 0.493452 -0.180617
C72   C     C_2   0.779044 0.789828 0.496264 0.085860
C73   C     C_R   0.320970 0.235416 0.536981 -0.148440
C74   C     C_R   0.278446 0.294982 0.541840 0.189247
C75   C     C_R   0.501218 0.315463 0.492453 0.255926
C76   C     C_R   0.535268 0.255083 0.483724 -0.185597
C77   C     C_R   0.451731 0.213467 0.507896 0.054131
O31   O     O_2   0.763596 0.168051 0.496035 -0.524869
O32   O     O_2   0.242275 0.119305 0.510446 -0.551068
C78   C     C_2   0.828846 0.667875 0.488561 -0.500580
H43   H     H_    0.211676 0.019995 0.538764 0.165617
H44   H     H_    0.249241 0.207442 0.556241 0.226111
H45   H     H_    0.303678 0.920082 0.545524 0.178506
H46   H     H_    0.527881 0.754813 0.483252 0.225238
H47   H     H_    0.340995 0.380953 0.525767 0.180561
H48   H     H_    0.836782 0.622674 0.471889 0.160636
N5    N     N_R   0.173234 0.713014 0.607726 0.225046
O33   O     O_R   0.294444 0.734714 0.587532 -0.343332
O34   O     O_R   0.041636 0.744227 0.613241 -0.399014
N6    N     N_R   0.643992 0.625974 0.727520 0.289542
O35   O     O_R   0.530307 0.587560 0.725513 -0.420381
O36   O     O_R   0.724696 0.639242 0.769674 -0.230200
H49   H     H_    0.078198 0.268196 0.734532 0.277594
H50   H     H_    0.847492 0.668039 0.383606 0.066021
N7    N     N_R   0.357658 0.777985 0.359240 0.282928
O37   O     O_R   0.392707 0.800095 0.404838 -0.366448
O38   O     O_R   0.233707 0.798362 0.334924 -0.312806
N8    N     N_R   0.048006 0.366546 0.682530 0.237604
O39   O     O_R   0.092516 0.407936 0.657644 -0.427054
O40   O     O_R   0.983020 0.380736 0.725164 -0.284253
N9    N     N_R   0.552456 0.440575 0.763395 0.266849
O41   O     O_R   0.602439 0.386409 0.757337 -0.246398
O42   O     O_R   0.606601 0.474693 0.802085 -0.323444
N10   N     N_R   0.213262 0.333689 0.867548 0.265243
O43   O     O_R   0.101360 0.294460 0.865981 -0.331824
O44   O     O_R   0.357042 0.317537 0.854031 -0.286986
N11   N     N_R   0.248439 0.291918 0.661742 0.169121
O45   O     O_R   0.292906 0.238584 0.646790 -0.464023
O46   O     O_R   0.347751 0.324217 0.691282 -0.392324
N12   N     N_R   0.255819 0.658526 0.894897 0.267139
O47   O     O_R   0.404167 0.666513 0.883940 -0.285184
O48   O     O_R   0.158699 0.703569 0.900832 -0.321313
N13   N     N_R   0.028023 0.539435 0.727507 0.276101
O49   O     O_R   0.957561 0.514012 0.761206 -0.286195
O50   O     O_R   0.962820 0.586557 0.712569 -0.384972
N14   N     N_R   0.932850 0.088930 0.431556 0.276556
O51   O     O_R   0.081865 0.075200 0.422197 -0.348839
O52   O     O_R   0.860331 0.127986 0.406600 -0.341853
H51   H     H_    0.880127 0.276824 0.706866 0.261593
H52   H     H_    0.034697 0.800937 0.505030 0.192317
H53   H     H_    0.624732 0.241284 0.457039 0.206172
H54   H     H_    0.009972 0.218312 0.681832 0.233854

loop_
_geom_bond_atom_site_label_1
_geom_bond_atom_site_label_2
_geom_bond_distance
_ccdc_geom_bond_type
C9    H16   1.106707 S    
P4    O13   1.543531 S    
C6    N5    1.462763 S    
C78   H48   1.087344 S    
C50   C51   1.398078 A    
C76   H53   1.080049 S    
C35   C36   1.417904 A    
C2    C3    1.544428 S    
C5    H8    1.110911 S    
C60   C61   1.407740 A    
P5    O17   1.750489 S    
Ba1   O20   2.927731 S    
N8    O39   1.291813 A    
C58   C62   1.420285 A    
C55   N3    1.393948 Am   
C29   H41   1.085939 S    
C76   C77   1.423177 A    
N14   O52   1.301672 A    
P3    O11   1.776735 S    
P2    Ba1   3.405582 S    
C31   C50   1.410151 A    
O4    P6    1.543864 D    
C70   C71   1.317071 D    
C8    H14   1.108426 S    
C3    H54   1.111043 S    
C56   C57   1.417761 A    
C38   O28   1.220530 D    
C4    O15   1.398051 S    
C54   C58   1.405586 A    
C21   C22   1.329885 D    
C13   H50   1.111958 S    
P1    C42   1.869647 S    
C9    H15   1.110872 S    
O3    P6    1.729770 S    
O12   Ba2   2.810989 S    
C49   H37   1.083577 S    
C37   C38   1.425813 A    
C50   H38   1.077317 S    
C69   C78   1.503443 S    
C11   H21   1.094579 S    
N7    O37   1.300496 A    
C17   C25   1.414820 A    
N2    C39   1.382927 Am   
O14   P8    1.749655 S    
P1    O1    1.521202 D    
P4    O15   1.751147 S    
N2    C44   1.464897 S    
C12   H23   1.112231 S    
C40   C41   1.518534 S    
P8    C20   1.863353 S    
O10   C8    1.392130 S    
C33   C34   1.394028 A    
P2    C75   1.847101 S    
C11   O22   1.394100 S    
C71   C72   1.502602 S    
C8    H13   1.105555 S    
N3    C72   1.474004 S    
N11   O46   1.300724 A    
C15   O24   1.403901 S    
C20   C28   1.510614 S    
P2    O10   1.747852 S    
P1    Ba1   3.391928 S    
C66   N4    1.398441 Am   
C7    H11   1.108326 S    
C53   C74   1.392163 A    
C53   H47   1.082096 S    
P5    O18   1.539126 D    
O11   C2    1.425764 S    
C1    H2    1.103036 S    
C40   C44   1.361449 D    
P3    C74   1.842076 S    
C55   O29   1.221591 D    
C27   C49   1.400830 A    
P6    C41   1.880561 S    
C11   C12   1.536425 S    
N5    O34   1.301818 A    
C21   C28   1.317012 D    
C51   N12   1.434976 S    
N13   O49   1.301131 A    
C15   C16   1.527173 S    
C4    H4    1.102980 S    
C49   C52   1.394481 A    
C53   C75   1.391091 A    
C73   C74   1.400358 A    
C14   H25   1.110896 S    
C12   N6    1.458449 S    
N1    C23   1.456443 S    
C3    H51   1.107274 S    
C42   C43   1.355091 D    
O3    Ba1   2.729558 S    
C75   C76   1.406749 A    
C3    H49   1.111982 S    
N7    O38   1.300799 A    
C32   C36   1.436353 A    
N3    C56   1.394519 Am   
C40   N9    1.440163 S    
C14   H26   1.108690 S    
N14   O51   1.301332 A    
C61   C62   1.405003 A    
C13   H24   1.111163 S    
C57   C63   1.407528 A    
C8    C9    1.523316 S    
C29   C42   1.330044 D    
N1    C18   1.384641 Am   
C9    H17   1.110616 S    
N12   O48   1.301117 A    
C15   H28   1.110838 S    
H1    C10   1.110626 S    
C30   C45   1.431353 A    
C34   N10   1.435054 S    
C19   C20   1.520612 S    
C16   H31   1.112403 S    
P5    O19   1.749297 S    
O14   Ba2   2.728929 S    
C11   H20   1.107676 S    
N5    O33   1.299978 A    
C59   H45   1.083469 S    
Ba1   O13   2.760855 S    
P1    O5    1.761596 S    
P1    O2    1.543506 S    
P7    O22   1.751910 S    
O5    C6    1.407792 S    
C14   H27   1.110054 S    
N10   O43   1.301069 A    
C6    H9    1.107700 S    
C71   H46   1.075177 S    
C18   C27   1.416658 A    
C7    H10   1.109976 S    
C70   C78   1.303688 D    
C38   N2    1.381236 Am   
O17   Ba2   2.690627 S    
C62   C65   1.406601 A    
C24   C46   1.433226 A    
C43   N13   1.439538 S    
C7    H12   1.104539 S    
C18   O27   1.221452 D    
C66   O31   1.220142 D    
C1    H19   1.105624 S    
O19   C13   1.403178 S    
C16   N7    1.458728 S    
C5    H6    1.110587 S    
C1    H3    1.109956 S    
C68   C69   1.532546 S    
C68   H52   1.083853 S    
C48   H35   1.076107 S    
P2    O20   1.540497 S    
N6    O35   1.298005 A    
C30   C32   1.420951 A    
P2    O7    1.507152 D    
C73   H44   1.074824 S    
C17   O25   1.222574 D    
C17   N1    1.383712 Am   
C4    H5    1.109133 S    
C19   C23   1.358665 D    
C28   H40   1.085877 S    
P8    O23   1.549133 D    
C73   C77   1.424245 A    
C4    C5    1.521207 S    
P4    C21   1.833179 S    
P4    O12   1.521364 D    
O6    P6    1.755609 S    
C26   H33   1.083659 S    
C24   C25   1.409422 A    
C33   H34   1.075975 S    
C43   C44   1.521099 S    
C60   H43   1.083568 S    
C10   H18   1.106341 S    
Ba1   O16   2.738463 S    
N10   O44   1.301400 A    
C29   C41   1.512698 S    
C67   O32   1.219096 D    
C65   C66   1.421641 A    
C5    H7    1.107484 S    
N12   O47   1.301416 A    
C2    N8    1.467702 S    
O1    Ba1   2.810610 S    
O2    Ba2   2.761446 S    
C2    N11   1.460587 S    
H42   C63   1.083145 S    
C36   C37   1.420581 A    
P7    C70   1.811356 S    
C45   C48   1.417285 A    
C59   C60   1.396176 A    
O7    Ba1   2.824296 S    
P7    O21   1.565931 D    
C22   H32   1.084990 S    
P3    O8    1.764204 S    
N9    O41   1.300010 A    
C6    C7    1.530589 S    
C47   C52   1.416617 A    
C64   C65   1.425374 A    
C24   C27   1.409235 A    
C19   H36   1.085672 S    
Ba1   Ba2   4.573754 S    
O13   Ba2   2.936854 S    
O8    Ba1   2.689981 S    
C35   C39   1.419539 A    
C61   C67   1.410054 A    
P5    C69   1.854078 S    
C56   O30   1.221180 D    
C37   C51   1.418682 A    
N6    O36   1.301027 A    
C25   C26   1.399196 A    
N8    O40   1.302586 A    
C45   C46   1.419740 A    
C63   C64   1.410199 A    
C12   H22   1.106938 S    
N9    O42   1.301297 A    
N4    C77   1.481620 S    
O16   P7    1.759503 S    
Ba2   O20   2.737875 S    
C39   O26   1.220179 D    
H30   C16   1.110317 S    
O16   Ba2   2.926987 S    
C30   C33   1.409213 A    
C31   C47   1.432163 A    
N4    C67   1.396100 Am   
O2    Ba1   2.936107 S    
C54   C59   1.407872 A    
N11   O45   1.299889 A    
C15   H29   1.111765 S    
P3    O9    1.545495 D    
C34   C35   1.418145 A    
N13   O50   1.296214 A    
C68   C72   1.368250 D    
P8    O24   1.750817 S    
C57   C58   1.403338 A    
C54   C55   1.410558 A    
C31   C32   1.419464 A    
C1    C10   1.526473 S    
C26   C48   1.392189 A    
O6    C10   1.411281 S    
C13   C14   1.519376 S    
C22   C23   1.504003 S    
C46   C47   1.420140 A    
C64   N14   1.442616 S    
Ba2   O21   2.824718 S    
P4    Ba2   3.392345 S    
C52   H39   1.077238 S    
