data_mof_unit_59594.cif
_audit_creation_date              2012-12-11T15:48:08-0500
_audit_creation_method            fapswitch 2.2
_symmetry_space_group_name_H-M    P1
_symmetry_Int_Tables_number       1
_space_group_crystal_system       triclinic
_cell_length_a                    6.933296
_cell_length_b                    17.594749
_cell_length_c                    19.446384
_cell_angle_alpha                 108.495704
_cell_angle_beta                  89.625588
_cell_angle_gamma                 90.580771
_cell_volume                      2249.59418724

loop_
_atom_site_label
_atom_site_type_symbol
_atom_type_description
_atom_site_fract_x
_atom_site_fract_y
_atom_site_fract_z
_atom_type_partial_charge
O1    O     O_R   0.494330 0.415710 0.413720 -0.541662
O2    O     O_R   0.819360 0.430070 0.560210 -0.543509
O3    O     O_R   0.994320 0.584290 0.586280 -0.540831
C1    C     C_R   0.650103 0.414501 0.581479 0.712664
O4    O     O_R   0.823740 0.406290 0.412670 -0.544014
O5    O     O_R   0.998730 0.560340 0.437690 -0.539952
C2    C     C_R   0.654697 0.383117 0.384684 0.684741
O6    O     O_R   0.489920 0.439660 0.562310 -0.539938
O7    O     O_3   0.662330 0.550570 0.508380 -0.368953
V1    V     V_3+5 0.935370 0.490620 0.498440 1.400112
O8    O     O_R   0.328720 0.569930 0.439790 -0.541697
C3    C     C_R   0.160667 0.585177 0.418236 0.711778
O9    O     O_R   0.324340 0.593710 0.587330 -0.543427
C4    C     C_R   0.155329 0.616932 0.615205 0.720289
V2    V     V_3+5 0.435940 0.509380 0.501560 1.404095
O10   O     O_3   0.159110 0.449430 0.491620 -0.371340
C5    C     C_R   0.309569 0.713934 0.725856 -0.135140
H1    H     H_    0.448482 0.686483 0.709044 0.149318
C6    C     C_R   0.297107 0.777476 0.790970 -0.201182
H2    H     H_    0.426749 0.796965 0.822550 0.214373
C7    C     C_R   0.119692 0.814890 0.815453 -0.186739
C8    C     C_R   0.954356 0.786798 0.772710 0.616042
C9    C     C_R   0.966858 0.722735 0.708042 -0.227225
H3    H     H_    0.836855 0.702816 0.676641 0.146848
C10   C     C_R   0.144339 0.685518 0.683675 -0.143191
C11   C     C_R   0.308080 0.634544 0.321750 -0.220306
C12   C     C_R   0.153180 0.634695 0.369019 -0.082696
C13   C     C_R   0.990088 0.681527 0.368315 -0.216671
C14   C     C_R   0.981927 0.728362 0.321766 0.088486
C15   C     C_R   0.136672 0.726934 0.273854 0.053559
C16   C     C_R   0.299754 0.679457 0.273571 0.090427
C17   C     C_R   0.821764 0.776712 0.322278 -0.187127
C18   C     C_R   0.813590 0.822416 0.275105 -0.182196
C19   C     C_R   0.965138 0.820471 0.226367 0.089575
C20   C     C_R   0.128224 0.772996 0.226085 0.053459
C21   C     C_R   0.282970 0.771570 0.178173 0.088857
C22   C     C_R   0.443133 0.723220 0.177662 -0.189085
C23   C     C_R   0.451304 0.677514 0.224834 -0.183237
C24   C     C_R   0.956807 0.865380 0.178186 -0.220340
C25   C     C_R   0.111707 0.865230 0.130918 -0.078910
C26   C     C_R   0.274808 0.818404 0.131625 -0.219200
H4    H     H_    0.433681 0.598227 0.321484 0.123795
H5    H     H_    0.870434 0.682343 0.404720 0.129338
H6    H     H_    0.701941 0.778797 0.358875 0.136090
H7    H     H_    0.687784 0.858898 0.276404 0.135965
H8    H     H_    0.831202 0.901695 0.178449 0.123057
H9    H     H_    0.394460 0.817590 0.095220 0.127988
H10   H     H_    0.562956 0.721135 0.141066 0.134814
H11   H     H_    0.577109 0.641031 0.223534 0.135379
C27   C     C_R   0.467494 0.185612 0.867482 -0.221773
C28   C     C_R   0.623442 0.135821 0.870030 -0.088264
C29   C     C_R   0.784063 0.132786 0.824624 -0.205732
C30   C     C_R   0.787835 0.177533 0.776226 0.086660
C31   C     C_R   0.630950 0.227383 0.774247 0.053688
C32   C     C_R   0.470939 0.231834 0.820462 0.090590
C33   C     C_R   0.945087 0.172892 0.729313 -0.180878
C34   C     C_R   0.948113 0.217875 0.681476 -0.183618
C35   C     C_R   0.793935 0.268316 0.679676 0.087714
C36   C     C_R   0.633923 0.272769 0.725891 0.054285
C37   C     C_R   0.477039 0.322618 0.723910 0.090410
C38   C     C_R   0.319794 0.327260 0.770826 -0.186131
C39   C     C_R   0.316768 0.282277 0.818663 -0.185449
C40   C     C_R   0.797379 0.314532 0.632653 -0.218983
C41   C     C_R   0.641426 0.364319 0.630097 -0.084476
C42   C     C_R   0.480807 0.367359 0.675506 -0.219845
H12   H     H_    0.343353 0.188774 0.902448 0.127363
H13   H     H_    0.904296 0.094296 0.825806 0.130062
H14   H     H_    0.066467 0.134775 0.729884 0.137182
H15   H     H_    0.071932 0.213614 0.646191 0.135430
H16   H     H_    0.921517 0.311360 0.597683 0.129462
H17   H     H_    0.360564 0.405840 0.674315 0.124873
H18   H     H_    0.198424 0.365379 0.770257 0.133887
H19   H     H_    0.192959 0.286540 0.853950 0.133734
C43   C     C_R   0.811457 0.276178 0.281789 -0.156137
H20   H     H_    0.952073 0.295253 0.305187 0.116837
C44   C     C_R   0.800439 0.212388 0.216826 -0.153095
H21   H     H_    0.933065 0.184183 0.192314 0.117399
C45   C     C_R   0.621062 0.185357 0.184122 -0.042617
C46   C     C_R   0.453002 0.223902 0.218266 -0.156099
H22   H     H_    0.312394 0.204820 0.194864 0.116033
C47   C     C_R   0.464021 0.287697 0.283234 -0.152743
H23   H     H_    0.331405 0.315908 0.307753 0.118453
C48   C     C_R   0.643405 0.314724 0.315936 -0.046297
O11   O     O_R   0.774940 0.060470 0.937800 -0.537692
O12   O     O_R   0.440880 0.093730 0.087350 -0.546995
O13   O     O_R   0.266130 0.939630 0.062280 -0.543148
C49   C     C_R   0.609863 0.116958 0.115376 0.670685
O14   O     O_R   0.445480 0.069960 0.939820 -0.544655
O15   O     O_R   0.270770 0.915690 0.913690 -0.541620
C50   C     C_R   0.614748 0.085600 0.918611 0.734765
O16   O     O_R   0.770300 0.084410 0.086380 -0.546353
O17   O     O_3   0.602600 0.949510 0.991670 -0.359542
V3    V     V_3+5 0.329470 0.009370 0.001550 1.419510
O18   O     O_R   0.940760 0.906160 0.912560 -0.499958
C51   C     C_R   0.109603 0.883211 0.884435 0.744896
O19   O     O_R   0.936150 0.929930 0.060100 -0.545905
C52   C     C_R   0.104205 0.914744 0.081697 0.696294
V4    V     V_3+5 0.828930 0.990450 0.998310 1.467580
O20   O     O_3   0.105670 0.050490 0.008320 -0.379980
F1    F     F_    0.780606 0.821983 0.792338 -0.712291

loop_
_geom_bond_atom_site_label_1
_geom_bond_atom_site_label_2
_ccdc_geom_bond_type
C45   C49   S    
C2    C48   S    
C49   O16   A    
C18   H7    S    
O12   V3    S    
C20   C21   A    
C43   C48   A    
C1    O6    A    
C47   H23   S    
O17   V4    S    
C23   H11   S    
C30   C31   A    
C11   C12   A    
C14   C15   A    
C43   C44   A    
C15   C20   A    
C21   C22   A    
C6    C7    A    
C44   C45   A    
C14   C17   A    
C28   C50   S    
O5    C3    A    
C15   C16   A    
O18   V4    S    
V2    O10   S    
C32   C39   A    
C33   C34   A    
C19   C20   A    
O13   C52   A    
O14   V3    S    
O8    V2    S    
C6    H2    S    
O19   V4    S    
C9    H3    S    
C39   H19   S    
O1    V2    S    
O7    V1    S    
V3    O20   S    
C36   C37   A    
C4    C10   S    
O9    C4    A    
C21   C26   A    
C38   C39   A    
O11   C50   A    
C47   C48   A    
C5    H1    S    
C31   C36   A    
O12   C49   A    
C17   H6    S    
C8    F1    S    
C43   H20   S    
C3    C12   S    
C28   C29   A    
C44   H21   S    
C24   C25   A    
O4    C2    A    
C45   C46   A    
C7    C51   S    
C27   C28   A    
C35   C36   A    
C33   H14   S    
C19   C24   A    
C37   C38   A    
O15   C51   A    
O2    C1    A    
C22   C23   A    
O13   V3    S    
C40   H16   S    
O19   C52   A    
C18   C19   A    
C26   H9    S    
C22   H10   S    
C27   H12   S    
O3    C4    A    
C24   H8    S    
C38   H18   S    
C25   C26   A    
O14   C50   A    
C37   C42   A    
O6    V2    S    
O9    V2    S    
C46   H22   S    
O2    V1    S    
C25   C52   S    
C29   C30   A    
C11   H4    S    
C46   C47   A    
C30   C33   A    
C35   C40   A    
C31   C32   A    
C13   C14   A    
O1    C2    A    
C29   H13   S    
O5    V1    S    
O8    C3    A    
C1    C41   S    
C13   H5    S    
C27   C32   A    
C16   C23   A    
O11   V4    S    
C41   C42   A    
O7    V2    S    
C5    C10   A    
O4    V1    S    
O3    V1    S    
C42   H17   S    
C17   C18   A    
C34   C35   A    
O17   V3    S    
C5    C6    A    
C9    C10   A    
O16   V4    S    
O15   V3    S    
O18   C51   A    
C40   C41   A    
C11   C16   A    
V4    O20   S    
C12   C13   A    
C8    C9    A    
V1    O10   S    
C34   H15   S    
C7    C8    A    
