data_mof_unit_25938.cif
_audit_creation_date              2012-12-11T18:34:45-0500
_audit_creation_method            fapswitch 2.2
_symmetry_space_group_name_H-M    P1
_symmetry_Int_Tables_number       1
_space_group_crystal_system       triclinic
_cell_length_a                    8.218116
_cell_length_b                    14.291482
_cell_length_c                    22.856735
_cell_angle_alpha                 93.453575
_cell_angle_beta                  89.492952
_cell_angle_gamma                 91.513535
_cell_volume                      2678.6209867

loop_
_atom_site_label
_atom_site_type_symbol
_atom_type_description
_atom_site_fract_x
_atom_site_fract_y
_atom_site_fract_z
_atom_type_partial_charge
Ba1   Ba    Ba6+2 0.846250 0.544220 0.470860 1.636437
Ba2   Ba    Ba6+2 0.343570 0.455860 0.529140 1.643848
C1    C     C_3   0.612494 0.889310 0.309856 -0.359916
C2    C     C_R   0.075701 0.577724 0.938229 -0.022126
C3    C     C_R   0.027987 0.572234 0.878500 0.570681
C4    C     C_3   0.075421 0.743025 0.304186 0.318516
C5    C     C_R   0.003447 0.404596 0.879247 0.588541
C6    C     C_R   0.043630 0.408136 0.939421 -0.021393
C7    C     C_R   0.080986 0.495149 0.968968 -0.050704
C8    C     C_R   0.117124 0.663909 0.968191 -0.087582
C9    C     C_R   0.162917 0.667933 0.027204 -0.075626
C10   C     C_R   0.166321 0.586095 0.058645 -0.018102
C11   C     C_R   0.123938 0.499495 0.029486 -0.052728
C12   C     C_3   0.600614 0.791676 0.332784 0.347217
C13   C     C_R   0.047721 0.326258 0.970713 -0.077658
C14   C     C_R   0.086958 0.330728 0.030263 -0.075641
C15   C     C_R   0.125596 0.417097 0.060468 -0.027449
C16   C     C_3   0.042122 0.768278 0.241830 -0.299591
C17   C     C_R   0.166791 0.422687 0.120750 0.590883
C18   C     C_R   0.211502 0.589089 0.118457 0.574853
C19   C     C_2   0.808524 0.430973 0.770429 -0.097197
C20   C     C_3   0.780907 0.404470 0.706245 -0.058707
C21   C     C_1   0.002649 0.516308 0.684605 0.044090
C22   C     C_2   0.047595 0.523994 0.740823 -0.080847
C23   C     C_3   0.517011 0.320104 0.355095 0.292719
C24   C     C_2   0.944536 0.480551 0.787553 0.218379
C25   C     C_R   0.401288 0.555433 0.230173 -0.096147
C26   C     C_R   0.443032 0.562075 0.289655 -0.015546
C27   C     C_R   0.192817 0.480552 0.314766 0.029610
C28   C     C_3   0.175224 0.743600 0.590503 0.305404
C29   C     C_R   0.148665 0.473990 0.254867 -0.097034
C30   C     C_R   0.251709 0.513021 0.211760 0.205662
C31   C     C_2   0.875575 0.464775 0.665552 -0.274163
C32   C     C_R   0.693161 0.935390 0.531742 -0.037041
C33   C     C_R   0.510610 0.801602 0.497884 0.046072
C34   C     C_3   0.505382 0.294639 0.289680 -0.362098
C35   C     C_R   0.371344 0.769790 0.467490 -0.299643
C36   C     C_R   0.268846 0.832585 0.443096 0.018799
C37   C     C_R   0.313331 0.927334 0.443408 -0.143902
C38   C     C_R   0.457625 0.960377 0.471056 -0.008582
C39   C     C_R   0.555261 0.898399 0.500667 -0.027135
C40   C     C_3   0.182864 0.849269 0.603619 -0.393710
C41   C     C_R   0.640702 0.091716 0.500674 -0.021588
C42   C     C_R   0.738230 0.030760 0.531009 0.006864
C43   C     C_R   0.684849 0.187774 0.501582 0.027615
C44   C     C_R   0.820839 0.222159 0.532748 -0.276601
C45   C     C_3   0.029314 0.189785 0.692214 0.291288
C46   C     C_R   0.924446 0.161608 0.558472 -0.012580
C47   C     C_R   0.882347 0.065847 0.558663 -0.145663
C48   C     C_R   0.502090 0.055258 0.470571 -0.041422
C49   C     C_3   0.021910 0.256878 0.411593 0.307840
C50   C     C_3   0.019801 0.150901 0.399687 -0.378704
C51   C     C_3   0.676572 0.661304 0.641585 0.295371
C52   C     C_3   0.698103 0.686394 0.707086 -0.235613
C53   C     C_3   0.536892 0.712519 0.737320 -0.179847
C54   C     C_3   0.560979 0.731579 0.803438 -0.228089
C55   C     C_3   0.399550 0.751401 0.834519 -0.405333
C56   C     C_3   0.070755 0.168928 0.754651 -0.303979
C57   C     C_3   0.555713 0.207879 0.676432 0.431194
C58   C     C_3   0.531622 0.117907 0.708094 -0.362124
C59   C     C_R   0.337287 0.526984 0.331376 -0.301946
H1    H     H_    0.664489 0.793743 0.375534 0.079828
H2    H     H_    0.795153 0.639622 0.622952 0.002293
H3    H     H_    0.587598 0.601842 0.635580 0.075172
H4    H     H_    0.552846 0.940146 0.341242 0.073781
H5    H     H_    0.747192 0.625168 0.727934 0.058812
H6    H     H_    0.787971 0.745678 0.713094 0.126106
H7    H     H_    0.469699 0.773200 0.339188 -0.053859
H8    H     H_    0.550863 0.889719 0.266829 0.126513
H9    H     H_    0.394175 0.338304 0.371842 0.019124
H10   H     H_    0.601396 0.381760 0.361759 0.062265
H11   H     H_    0.418734 0.234373 0.281614 0.138382
H12   H     H_    0.274623 0.867730 0.638088 0.119042
H13   H     H_    0.461707 0.355109 0.266568 0.072785
H14   H     H_    0.627009 0.275538 0.271839 0.130117
H15   H     H_    0.742149 0.911343 0.304700 0.141125
H16   H     H_    0.030864 0.703273 0.213042 0.123181
H17   H     H_    0.978914 0.261016 0.692714 0.015440
H18   H     H_    0.937158 0.136312 0.676043 -0.018728
H19   H     H_    0.162992 0.220859 0.772666 0.172457
H20   H     H_    0.959102 0.172508 0.782307 0.116700
H21   H     H_    0.119731 0.097358 0.755571 0.088654
H22   H     H_    0.689062 0.220292 0.671642 -0.145976
H23   H     H_    0.217039 0.885576 0.563675 0.069843
H24   H     H_    0.501743 0.197715 0.632034 0.080900
H25   H     H_    0.591849 0.059464 0.682850 0.059348
H26   H     H_    0.400280 0.099871 0.712426 0.144049
H27   H     H_    0.998414 0.680702 0.313246 0.104377
H28   H     H_    0.586348 0.126559 0.752408 0.110366
H29   H     H_    0.087570 0.265968 0.052553 0.122935
H30   H     H_    0.019489 0.258161 0.949287 0.118790
H31   H     H_    0.194576 0.735783 0.048312 0.120344
H32   H     H_    0.485498 0.582603 0.198286 0.110185
H33   H     H_    0.115202 0.728704 0.945965 0.115909
H34   H     H_    0.061963 0.873811 0.619130 0.115989
H35   H     H_    0.160357 0.560906 0.753220 0.098183
H36   H     H_    0.730271 0.399133 0.802622 0.102432
H37   H     H_    0.035449 0.438599 0.241920 0.119405
H38   H     H_    0.371664 0.531748 0.377062 0.083373
H39   H     H_    0.205719 0.725422 0.307749 -0.040760
H40   H     H_    0.854273 0.451424 0.618978 0.080214
H41   H     H_    0.336483 0.696154 0.466292 0.072064
H42   H     H_    0.234067 0.975190 0.423149 0.076176
H43   H     H_    0.962665 0.019131 0.579333 0.063924
H44   H     H_    0.853328 0.296076 0.533043 0.059525
H45   H     H_    0.899346 0.279513 0.424892 -0.002196
H46   H     H_    0.767722 0.891210 0.556526 0.098726
H47   H     H_    0.425903 0.099961 0.446699 0.096031
H48   H     H_    0.926163 0.805929 0.239720 0.145837
H49   H     H_    0.142582 0.813822 0.225863 0.126648
H50   H     H_    0.298138 0.719294 0.578697 0.006342
H51   H     H_    0.090728 0.727367 0.553445 0.068664
H52   H     H_    0.342368 0.813258 0.816836 0.143398
H53   H     H_    0.315948 0.689451 0.828398 0.172548
H54   H     H_    0.420546 0.765857 0.882170 0.130859
H55   H     H_    0.615152 0.669619 0.822260 0.152091
H56   H     H_    0.109104 0.275757 0.447342 0.073857
H57   H     H_    0.645466 0.792950 0.811535 0.141013
H58   H     H_    0.488867 0.776128 0.718464 0.136994
H59   H     H_    0.446386 0.654033 0.729608 0.147122
H60   H     H_    0.925355 0.129529 0.366719 0.132348
H61   H     H_    0.992756 0.115146 0.440438 0.067071
H62   H     H_    0.140606 0.128338 0.382800 0.117808
N1    N     N_R   0.993512 0.486153 0.849291 -0.421194
N2    N     N_R   0.207513 0.508284 0.149620 -0.423883
O1    O     O_2   0.901900 0.448470 0.362340 -0.458343
O2    O     O_2   0.260636 0.166784 0.548961 -0.489210
O3    O     O_3   0.170779 0.185198 0.657569 -0.578167
O4    O     O_3   0.142240 0.449440 0.433360 -0.494896
O5    O     O_3   0.549340 0.612930 0.525560 -0.484693
O6    O     O_2   0.396530 0.270940 0.479440 -0.465008
O7    O     O_3   0.574941 0.243049 0.383071 -0.645288
O8    O     O_2   0.453208 0.465553 0.710338 -0.493808
O9    O     O_3   0.479654 0.282390 0.708350 -0.568854
O10   O     O_2   0.014417 0.644216 0.852918 -0.619079
O11   O     O_2   0.978187 0.328406 0.853389 -0.622984
O12   O     O_3   0.623565 0.739905 0.614145 -0.649002
O13   O     O_2   0.169184 0.350936 0.147198 -0.595546
O14   O     O_2   0.254491 0.664020 0.142707 -0.617286
O15   O     O_3   0.645560 0.619080 0.391970 -0.486114
O16   O     O_2   0.781629 0.556368 0.291022 -0.500535
O17   O     O_3   0.067303 0.298614 0.360055 -0.627226
O18   O     O_3   0.674299 0.727565 0.292363 -0.601722
O19   O     O_2   0.793170 0.729090 0.520590 -0.468210
O20   O     O_3   0.052800 0.667320 0.419180 -0.494834
O21   O     O_2   0.932215 0.834448 0.450778 -0.486872
O22   O     O_3   0.036375 0.819143 0.342931 -0.603261
O23   O     O_2   0.287790 0.551560 0.637690 -0.463014
O24   O     O_3   0.047460 0.550640 0.566640 -0.495168
O25   O     O_3   0.544140 0.380990 0.608030 -0.472151
O26   O     O_3   0.120795 0.701276 0.640821 -0.637786
O27   O     O_3   0.640350 0.387150 0.474440 -0.475378
O28   O     O_3   0.136890 0.332750 0.580830 -0.463162
P1    P     P_3+3 0.074990 0.420800 0.372080 0.992915
P2    P     P_3+3 0.618830 0.715330 0.538180 0.970316
P3    P     P_3+3 0.071972 0.788842 0.414607 0.941245
P4    P     P_3+3 0.114710 0.579280 0.627920 0.981657
P5    P     P_3+3 0.121144 0.210537 0.586127 0.959002
P6    P     P_3+3 0.637261 0.614406 0.315450 0.945629
P7    P     P_3+3 0.578334 0.270616 0.458685 0.936598
P8    P     P_3+3 0.563302 0.387199 0.684212 0.971245

loop_
_geom_bond_atom_site_label_1
_geom_bond_atom_site_label_2
_ccdc_geom_bond_type
C42   C47   A    
Ba2   O25   S    
C53   C54   S    
O27   P7    S    
C14   H29   S    
Ba1   O20   S    
C16   H48   S    
C36   P3    S    
C5    N1    Am   
C19   C24   D    
C47   H43   S    
O3    P5    S    
C45   O3    S    
C55   H54   S    
C59   H38   S    
C58   H28   S    
C10   C11   A    
C43   P7    S    
C3    N1    Am   
O7    P7    S    
C31   H40   S    
C32   H46   S    
O26   P4    S    
C18   O14   D    
C1    H8    S    
C57   H22   S    
Ba1   O4    S    
C49   H45   S    
O15   P6    S    
C36   C37   A    
C51   H3    S    
C8    H33   S    
Ba2   O23   S    
C13   C14   A    
C12   H1    S    
C44   H44   S    
Ba2   O4    S    
C4    H27   S    
C54   C55   S    
O12   P2    S    
Ba1   O27   S    
Ba1   Ba2   S    
C29   H37   S    
O28   P5    S    
Ba1   P2    S    
C7    C11   A    
Ba2   O5    S    
C52   C53   S    
O20   P3    S    
C50   H61   S    
C9    H31   S    
O16   P6    D    
C14   C15   A    
C21   C31   D    
C21   C22   D    
Ba1   O24   S    
O5    P2    S    
C23   H10   S    
C45   H18   S    
C56   H19   S    
C26   C59   A    
Ba2   O24   S    
C57   C58   S    
C19   C20   S    
C48   H47   S    
C1    H4    S    
C32   C39   A    
C24   N1    S    
C58   H26   S    
C27   C59   A    
C53   H59   S    
Ba2   O27   S    
C4    C16   S    
C44   C46   A    
C40   H34   S    
C5    C6    A    
C40   H23   S    
Ba1   O1    S    
C56   H21   S    
Ba1   O5    S    
C56   H20   S    
C37   C38   A    
C20   P8    S    
C58   H25   S    
C6    C7    A    
C55   H52   S    
C52   H6    S    
C51   C52   S    
C46   P5    S    
C17   N2    Am   
C26   P6    S    
C49   C50   S    
C28   H51   S    
C4    H39   S    
C30   N2    S    
C41   C42   A    
C57   H24   S    
C35   C36   A    
O22   P3    S    
C34   H14   S    
C19   H36   S    
C50   H60   S    
C29   C30   A    
C10   C18   A    
Ba2   O6    S    
C54   H55   S    
C32   C42   A    
C50   H62   S    
O17   P1    S    
C37   H42   S    
C1    H15   S    
C41   C43   A    
O2    P5    D    
Ba1   O15   S    
C34   H13   S    
O1    P1    D    
C46   C47   A    
Ba2   O28   S    
C49   H56   S    
C51   O12   S    
C25   H32   S    
C2    C8    A    
C49   O17   S    
C3    O10   D    
C20   C31   S    
C12   O18   S    
C38   C39   A    
C40   H12   S    
C33   C35   A    
C25   C30   A    
C54   H57   S    
C16   H49   S    
C33   P2    S    
C2    C3    A    
O8    P8    D    
C9    C10   A    
O25   P8    S    
C41   C48   A    
O18   P6    S    
C55   H53   S    
C52   H5    S    
C1    C12   S    
C6    C13   A    
C57   O9    S    
O9    P8    S    
C17   O13   D    
C28   H50   S    
C53   H58   S    
O19   P2    D    
C22   H35   S    
C18   N2    Am   
C27   C29   A    
Ba1   O19   S    
C45   C56   S    
C4    O22   S    
C51   H2    S    
C22   C24   S    
C28   O26   S    
C35   H41   S    
C16   H16   S    
C38   C48   A    
C21   P4    S    
C15   C17   A    
O23   P4    D    
Ba1   P1    S    
C33   C39   A    
C8    C9    A    
C23   C34   S    
C13   H30   S    
C11   C15   A    
C43   C44   A    
C5    O11   D    
O21   P3    D    
Ba2   P4    S    
C25   C26   A    
C12   H7    S    
C28   C40   S    
C23   H9    S    
C45   H17   S    
C2    C7    A    
C23   O7    S    
O24   P4    S    
O6    P7    D    
O4    P1    S    
C34   H11   S    
C27   P1    S    
