data_mof_unit_59682.cif
_audit_creation_date              2012-12-11T15:35:03-0500
_audit_creation_method            fapswitch 2.2
_symmetry_space_group_name_H-M    P1
_symmetry_Int_Tables_number       1
_space_group_crystal_system       triclinic
_cell_length_a                    30.805164
_cell_length_b                    7.246755
_cell_length_c                    25.793674
_cell_angle_alpha                 90.000486
_cell_angle_beta                  111.880365
_cell_angle_gamma                 90.000389
_cell_volume                      5343.32325539

loop_
_atom_site_label
_atom_site_type_symbol
_atom_type_description
_atom_site_fract_x
_atom_site_fract_y
_atom_site_fract_z
_atom_type_partial_charge
O1    O     O_R   0.295360 0.592990 0.320420 -0.537144
O2    O     O_R   0.704640 0.407010 0.679580 -0.529030
O3    O     O_R   0.204640 0.092990 0.179580 -0.537132
O4    O     O_R   0.795360 0.907010 0.820420 -0.529022
O5    O     O_R   0.294060 0.265620 0.213230 -0.544688
O6    O     O_R   0.705940 0.734380 0.786770 -0.520247
O7    O     O_R   0.205940 0.765620 0.286770 -0.544688
O8    O     O_R   0.794060 0.234380 0.713230 -0.520255
C1    C     C_R   0.304440 0.431999 0.200008 0.787669
C2    C     C_R   0.695280 0.567175 0.799702 0.779300
C3    C     C_R   0.195559 0.931999 0.299992 0.787695
C4    C     C_R   0.804720 0.067174 0.700298 0.779276
O9    O     O_R   0.300850 0.263360 0.322080 -0.539461
O10   O     O_R   0.699150 0.736640 0.677920 -0.547024
O11   O     O_R   0.199150 0.763360 0.177920 -0.539471
O12   O     O_R   0.800850 0.236640 0.822080 -0.547024
O13   O     O_R   0.211480 0.091820 0.289210 -0.513282
O14   O     O_R   0.788520 0.908180 0.710790 -0.544097
O15   O     O_R   0.288520 0.591820 0.210790 -0.513296
O16   O     O_R   0.711480 0.408180 0.789210 -0.544099
C5    C     C_R   0.313570 0.432022 0.342951 0.753692
C6    C     C_R   0.686538 0.568421 0.657011 0.749677
C7    C     C_R   0.186430 0.932020 0.157049 0.753667
C8    C     C_R   0.813461 0.068423 0.842989 0.749675
O17   O     O_3   0.220670 0.426670 0.239090 -0.388924
O18   O     O_3   0.779330 0.573330 0.760910 -0.386589
O19   O     O_3   0.279330 0.926670 0.260910 -0.388927
O20   O     O_3   0.720670 0.073330 0.739090 -0.386593
V1    V     V_3+5 0.255440 0.152290 0.252020 1.427349
V2    V     V_3+5 0.744560 0.847710 0.747980 1.414738
V3    V     V_3+5 0.244560 0.652290 0.247980 1.427323
V4    V     V_3+5 0.755440 0.347710 0.752020 1.414727
C9    C     C_R   0.850945 0.060876 0.898933 -0.107134
C10   C     C_R   0.148987 0.938362 0.100991 -0.118133
C11   C     C_R   0.649055 0.560861 0.601068 -0.107131
C12   C     C_R   0.351012 0.438376 0.399009 -0.118109
C13   C     C_R   0.872739 0.071026 0.998896 -0.164631
C14   C     C_R   0.125453 0.873665 0.002585 -0.171205
C15   C     C_R   0.627265 0.570882 0.501105 -0.164642
C16   C     C_R   0.374539 0.373823 0.497422 -0.171198
C17   C     C_R   0.838857 0.082460 0.945457 -0.264009
C18   C     C_R   0.160122 0.888222 0.055403 -0.259494
C19   C     C_R   0.661146 0.582367 0.554543 -0.264002
C20   C     C_R   0.339872 0.388344 0.444602 -0.259510
C21   C     C_R   0.898428 0.039144 0.905832 0.371087
C22   C     C_R   0.102494 0.987507 0.093036 0.362088
C23   C     C_R   0.601571 0.539165 0.594169 0.371073
C24   C     C_R   0.397508 0.487451 0.406960 0.362092
C25   C     C_R   0.933748 0.014503 0.960842 -0.012481
C26   C     C_R   0.065327 0.957836 0.039597 -0.014911
C27   C     C_R   0.566252 0.514476 0.539160 -0.012481
C28   C     C_R   0.434673 0.457827 0.460405 -0.014901
C29   C     C_R   0.919585 0.036075 0.007042 0.091319
C30   C     C_R   0.078455 0.904732 0.994408 0.093636
C31   C     C_R   0.580418 0.535960 0.492960 0.091323
C32   C     C_R   0.421540 0.404827 0.505598 0.093636
C33   C     C_R   0.982292 0.972586 0.972335 0.054505
C34   C     C_R   0.016090 0.979040 0.028711 0.051917
C35   C     C_R   0.517706 0.472592 0.527670 0.054500
C36   C     C_R   0.483910 0.478986 0.471291 0.051917
C37   C     C_R   0.999052 0.992537 0.072240 -0.157036
C38   C     C_R   0.997775 0.911649 0.930270 -0.158654
C39   C     C_R   0.500952 0.492384 0.427763 -0.157037
C40   C     C_R   0.502218 0.411746 0.569739 -0.158663
C41   C     C_R   0.952028 0.020879 0.061555 -0.189578
C42   C     C_R   0.044675 0.879394 0.941106 -0.194214
C43   C     C_R   0.547977 0.520700 0.438448 -0.189586
C44   C     C_R   0.455316 0.379536 0.558903 -0.194210
H1    H     H_    0.940883 0.030813 0.096689 0.140893
H2    H     H_    0.054614 0.832668 0.907134 0.141081
H3    H     H_    0.559124 0.530563 0.403315 0.140895
H4    H     H_    0.445374 0.332884 0.592880 0.141084
H5    H     H_    0.196146 0.862930 0.060880 0.166130
H6    H     H_    0.802921 0.110061 0.940273 0.139281
H7    H     H_    0.303845 0.363110 0.439127 0.166101
H8    H     H_    0.697083 0.609943 0.559726 0.139292
H9    H     H_    0.862131 0.088247 0.034235 0.135415
H10   H     H_    0.135402 0.834343 0.967990 0.135632
H11   H     H_    0.637875 0.588039 0.465765 0.135415
H12   H     H_    0.364586 0.334581 0.532021 0.135633
H13   H     H_    0.020795 0.971109 0.115369 0.198350
H14   H     H_    0.974194 0.876407 0.888879 0.199140
H15   H     H_    0.479211 0.470899 0.384636 0.198357
H16   H     H_    0.525796 0.376545 0.611135 0.199148
C45   C     C_R   0.093334 0.974129 0.482782 0.556314
C46   C     C_R   0.908381 0.043397 0.518795 0.554555
C47   C     C_R   0.406670 0.474085 0.017223 0.556319
C48   C     C_R   0.591621 0.543404 0.981207 0.554557
N1    N     N_R   0.074822 0.986032 0.425402 -0.531250
N2    N     N_R   0.927212 0.043970 0.576279 -0.534538
N3    N     N_R   0.425181 0.486017 0.074602 -0.531246
N4    N     N_R   0.572790 0.543958 0.923723 -0.534537
C49   C     C_R   0.027781 0.017190 0.397553 0.622979
C50   C     C_R   0.974921 0.042883 0.604345 0.632522
C51   C     C_R   0.472222 0.517202 0.102450 0.622975
C52   C     C_R   0.525081 0.542852 0.895658 0.632524
C53   C     C_R   0.997360 0.026698 0.426930 -0.057178
C54   C     C_R   0.005219 0.028445 0.574924 -0.057803
C55   C     C_R   0.502643 0.526708 0.073073 -0.057180
C56   C     C_R   0.494783 0.528410 0.925080 -0.057805
C57   C     C_R   0.016114 0.017476 0.485656 -0.016693
C58   C     C_R   0.986272 0.029538 0.516134 -0.018443
C59   C     C_R   0.483889 0.517460 0.014348 -0.016691
C60   C     C_R   0.513731 0.529523 0.983869 -0.018444
C61   C     C_R   0.064612 0.995280 0.513983 -0.033339
C62   C     C_R   0.937540 0.041735 0.487734 -0.033661
C63   C     C_R   0.435391 0.495238 0.986021 -0.033336
C64   C     C_R   0.562462 0.541743 0.012269 -0.033661
C65   C     C_R   0.948702 0.044488 0.399024 -0.140093
C66   C     C_R   0.053896 0.011647 0.602840 -0.136487
C67   C     C_R   0.551299 0.544522 0.100979 -0.140099
C68   C     C_R   0.446107 0.511587 0.897163 -0.136488
C69   C     C_R   0.919110 0.049307 0.429012 -0.139548
C70   C     C_R   0.083157 0.992622 0.572743 -0.139935
C71   C     C_R   0.580892 0.549338 0.070990 -0.139549
C72   C     C_R   0.416847 0.492556 0.927261 -0.139932
O21   O     O_2   0.139306 0.938883 0.509731 -0.532960
O22   O     O_2   0.861541 0.041100 0.491567 -0.532222
O23   O     O_2   0.360699 0.438808 0.990274 -0.532958
O24   O     O_2   0.638462 0.541125 0.008436 -0.532224
O25   O     O_2   0.010396 0.039916 0.341614 -0.505556
O26   O     O_2   0.993105 0.055842 0.660563 -0.500247
O27   O     O_2   0.489605 0.539957 0.158388 -0.505562
O28   O     O_2   0.506896 0.555798 0.839440 -0.500243
H17   H     H_    0.933232 0.051556 0.353863 0.171253
H18   H     H_    0.069487 0.009834 0.648043 0.171530
H19   H     H_    0.566770 0.551609 0.146140 0.171251
H20   H     H_    0.430516 0.509756 0.851960 0.171530
H21   H     H_    0.881762 0.059915 0.406006 0.168900
H22   H     H_    0.120387 0.976902 0.595712 0.169260
H23   H     H_    0.618240 0.559965 0.093997 0.168898
H24   H     H_    0.379617 0.476816 0.904293 0.169262
C73   C     C_R   0.899645 0.905185 0.647577 0.513445
C74   C     C_R   0.096204 0.830913 0.351419 0.507965
C75   C     C_R   0.600358 0.405175 0.852425 0.513443
C76   C     C_R   0.403802 0.330932 0.148593 0.507963
C77   C     C_R   0.871826 0.917167 0.680525 0.104162
C78   C     C_R   0.123912 0.825376 0.318341 0.113534
C79   C     C_R   0.628175 0.417161 0.819476 0.104173
C80   C     C_R   0.376093 0.325402 0.181669 0.113544
C81   C     C_R   0.837046 0.057005 0.669317 -0.283271
C82   C     C_R   0.164003 0.939876 0.331823 -0.281006
C83   C     C_R   0.662954 0.557007 0.830683 -0.283257
C84   C     C_R   0.335997 0.439873 0.168178 -0.281009
C85   C     C_R   0.831434 0.183067 0.625593 0.370825
C86   C     C_R   0.175820 0.055835 0.378976 0.381147
C87   C     C_R   0.668564 0.683078 0.874405 0.370823
C88   C     C_R   0.324176 0.555796 0.121017 0.381147
C89   C     C_R   0.862352 0.181102 0.597310 -0.274745
C90   C     C_R   0.145064 0.076699 0.407102 -0.272969
C91   C     C_R   0.637648 0.681104 0.902690 -0.274751
C92   C     C_R   0.354934 0.576664 0.092894 -0.272949
H25   H     H_    0.858708 0.284983 0.565797 0.177276
H26   H     H_    0.153526 0.175254 0.441006 0.184516
H27   H     H_    0.641291 0.784992 0.934201 0.177261
H28   H     H_    0.346469 0.675195 0.058985 0.184546
C93   C     C_R   0.896419 0.043489 0.607395 0.158760
C94   C     C_R   0.105213 0.965217 0.394151 0.150676
C95   C     C_R   0.603583 0.543481 0.892607 0.158767
C96   C     C_R   0.394790 0.465208 0.105854 0.150650
O29   O     O_3   0.794850 0.307540 0.609247 -0.553597
C97   C     C_3   0.757516 0.227201 0.564837 -0.212559
H29   H     H_    0.745313 0.097327 0.578127 0.122745
H30   H     H_    0.767228 0.201073 0.528005 0.159522
H31   H     H_    0.727677 0.323995 0.551339 0.155026
O30   O     O_3   0.219176 0.139758 0.400327 -0.549189
C98   C     C_3   0.249797 0.017587 0.439970 -0.224651
H32   H     H_    0.252009 0.881460 0.421015 0.123299
H33   H     H_    0.239104 0.998410 0.476362 0.165673
H34   H     H_    0.285536 0.075743 0.456067 0.148911
O31   O     O_3   0.705144 0.807576 0.890743 -0.553605
C99   C     C_3   0.742476 0.727309 0.935170 -0.212580
H35   H     H_    0.754668 0.597345 0.921916 0.122743
H36   H     H_    0.732765 0.701362 0.972013 0.159538
H37   H     H_    0.772321 0.824071 0.948635 0.155028
O32   O     O_3   0.280816 0.639677 0.099654 -0.549186
C100  C     C_3   0.250198 0.517411 0.060041 -0.224634
H38   H     H_    0.247952 0.381422 0.079049 0.123303
H39   H     H_    0.260918 0.497939 0.023680 0.165651
H40   H     H_    0.214468 0.575650 0.043882 0.148901
O33   O     O_3   0.094907 0.067514 0.137535 -0.580179
C101  C     C_3   0.093779 0.260888 0.130674 -0.253135
H41   H     H_    0.065455 0.304518 0.091110 0.144984
H42   H     H_    0.128097 0.314397 0.132212 0.154051
H43   H     H_    0.086387 0.324986 0.165530 0.165091
O34   O     O_3   0.909160 0.049784 0.858472 -0.584286
C102  C     C_3   0.921755 0.233290 0.852287 -0.283237
H44   H     H_    0.953899 0.275669 0.887818 0.157095
H45   H     H_    0.892722 0.331063 0.847820 0.144986
H46   H     H_    0.929366 0.242400 0.813576 0.178574
O35   O     O_3   0.405103 0.567355 0.362453 -0.580191
C103  C     C_3   0.406241 0.760739 0.369289 -0.253221
H47   H     H_    0.434562 0.804401 0.408852 0.145002
H48   H     H_    0.371923 0.814303 0.367734 0.154067
H49   H     H_    0.413645 0.824751 0.334430 0.165103
O36   O     O_3   0.590838 0.549879 0.641527 -0.584285
C104  C     C_3   0.578246 0.733406 0.647693 -0.283219
H50   H     H_    0.546106 0.775767 0.612156 0.157086
H51   H     H_    0.607283 0.831157 0.652155 0.144996
H52   H     H_    0.570632 0.742575 0.686401 0.178569
O37   O     O_3   0.932257 0.764391 0.658199 -0.515707
C105  C     C_3   0.918233 0.638917 0.612963 -0.202703
H53   H     H_    0.929602 0.686846 0.579194 0.145290
H54   H     H_    0.879782 0.612881 0.595832 0.114080
H55   H     H_    0.935755 0.504755 0.627996 0.172654
O38   O     O_3   0.058331 0.712546 0.338549 -0.513167
C106  C     C_3   0.068517 0.573625 0.379809 -0.170802
H56   H     H_    0.103912 0.512527 0.390022 0.103924
H57   H     H_    0.064978 0.626832 0.418383 0.135658
H58   H     H_    0.042731 0.460442 0.363656 0.180068
O39   O     O_3   0.567747 0.264372 0.841805 -0.515707
C107  C     C_3   0.581773 0.138904 0.887041 -0.202709
H59   H     H_    0.570399 0.186822 0.920807 0.145294
H60   H     H_    0.620225 0.112897 0.904178 0.114082
H61   H     H_    0.564257 0.004730 0.872008 0.172649
O40   O     O_3   0.441680 0.212586 0.161471 -0.513167
C108  C     C_3   0.431501 0.073640 0.120219 -0.170792
H62   H     H_    0.396109 0.012517 0.110008 0.103928
H63   H     H_    0.435037 0.126830 0.081641 0.135653
H64   H     H_    0.457292 0.960479 0.136377 0.180078
N5    N     N_2   0.881270 0.795052 0.726892 -0.480378
H65   H     H_    0.875238 0.849615 0.760498 0.277987
C109  C     C_3   0.863765 0.608677 0.713285 -0.357090
H66   H     H_    0.869344 0.530950 0.752349 0.159702
H67   H     H_    0.882820 0.534873 0.690732 0.203824
H68   H     H_    0.825795 0.609632 0.687290 0.207678
N6    N     N_2   0.110212 0.706291 0.270968 -0.473665
H69   H     H_    0.115666 0.756695 0.236484 0.257560
C110  C     C_3   0.121691 0.512642 0.282446 -0.409746
H70   H     H_    0.140501 0.461232 0.256071 0.179486
H71   H     H_    0.088953 0.431975 0.272400 0.207822
H72   H     H_    0.144498 0.488296 0.326854 0.179850
N7    N     N_2   0.618731 0.295044 0.773109 -0.480387
H73   H     H_    0.624762 0.349607 0.739502 0.277967
C111  C     C_3   0.636236 0.108671 0.786715 -0.357080
H74   H     H_    0.630660 0.030946 0.747651 0.159700
H75   H     H_    0.617179 0.034863 0.809265 0.203835
H76   H     H_    0.674206 0.109630 0.812713 0.207687
N8    N     N_2   0.389797 0.206353 0.229050 -0.473649
H77   H     H_    0.384338 0.256775 0.263528 0.257597
C112  C     C_3   0.378326 0.012693 0.217583 -0.409797
H78   H     H_    0.359514 0.961294 0.243957 0.179466
H79   H     H_    0.411067 0.932046 0.227638 0.207813
H80   H     H_    0.355523 0.988307 0.173175 0.179846

loop_
_geom_bond_atom_site_label_1
_geom_bond_atom_site_label_2
_ccdc_geom_bond_type
O17   V3    S    
C75   O39   S    
O31   C99   S    
C92   C96   A    
O1    C5    A    
C57   C58   A    
C54   C66   A    
C47   N3    A    
O19   V1    S    
C9    C21   A    
O37   C105  S    
C82   C86   A    
C55   C59   A    
C109  H66   S    
C10   C18   A    
C56   C60   A    
C76   C80   A    
C11   C23   A    
O29   C97   S    
C109  H68   S    
C25   C33   A    
C33   C38   A    
C98   H33   S    
C5    C12   S    
C71   H23   S    
O33   C101  S    
C108  H64   S    
C73   C77   A    
C6    C11   S    
C35   C40   A    
C26   C30   A    
C69   H21   S    
C36   C39   A    
C40   C44   A    
C22   O33   S    
O9    V1    S    
N8    H77   S    
C49   O25   S    
C14   C18   A    
C110  H72   S    
O4    C8    A    
C102  H45   S    
C51   C55   A    
C21   O34   S    
C74   O38   S    
C50   C54   A    
C77   N5    S    
C60   C64   A    
O1    V3    S    
O13   V1    S    
C4    C81   S    
O2    V4    S    
C112  H78   S    
O3    V1    S    
C89   H25   S    
C101  H41   S    
C40   H16   S    
C24   O35   S    
C28   C36   A    
C17   H6    S    
C86   C90   A    
O3    C7    A    
C1    O15   A    
C15   C31   A    
N6    H69   S    
C20   H7    S    
C2    O16   A    
O20   V2    S    
C16   C32   A    
C105  H55   S    
C72   H24   S    
O2    C6    A    
C106  H58   S    
C111  H74   S    
C16   H12   S    
C58   C62   A    
C10   C22   A    
C67   C71   A    
C91   H27   S    
C48   O24   S    
C11   C19   A    
N7    H73   S    
C66   C70   A    
C108  H63   S    
C27   C31   A    
C99   H37   S    
C65   C69   A    
C13   C29   A    
C7    C10   S    
C34   C37   A    
O11   C7    A    
C38   H14   S    
O15   V3    S    
C35   C36   A    
O12   C8    A    
C73   O37   S    
C70   H22   S    
C46   C62   A    
C79   C83   A    
O10   V2    S    
C45   C61   A    
C1    C84   S    
C99   H36   S    
N2    C50   A    
C98   H34   S    
O5    V1    S    
N4    C52   A    
C57   C61   A    
C39   C43   A    
C75   C95   A    
C105  H53   S    
C38   C42   A    
C62   C69   A    
O35   C103  S    
C102  H46   S    
C103  H49   S    
C92   H28   S    
C23   O36   S    
N1    C94   S    
O7    V3    S    
O40   C108  S    
C87   O31   S    
C46   O22   S    
C46   N2    A    
C98   H32   S    
C45   N1    A    
O38   C106  S    
C15   C19   A    
C14   H10   S    
C100  H39   S    
C108  H62   S    
C32   C44   A    
C13   H9    S    
C80   N8    S    
O4    V2    S    
C106  H56   S    
C39   H15   S    
C44   H4    S    
C112  H79   S    
C101  H43   S    
C26   C34   A    
C104  H52   S    
O7    C3    A    
C47   O23   S    
N5    H65   S    
C97   H31   S    
C53   C65   A    
C61   C70   A    
C31   C43   A    
O39   C107  S    
C14   C30   A    
C107  H61   S    
C21   C25   A    
O8    C4    A    
C100  H40   S    
C55   C67   A    
O9    C5    A    
N8    C112  S    
C48   N4    A    
C104  H51   S    
C45   O21   S    
N7    C111  S    
N3    C96   S    
C105  H54   S    
C66   H18   S    
O14   V2    S    
C50   O26   S    
C52   O28   S    
C65   H17   S    
O32   C100  S    
N6    C110  S    
C73   C93   A    
C107  H60   S    
C56   C68   A    
N4    C95   S    
C111  H75   S    
O30   C98   S    
C111  H76   S    
C12   C20   A    
C27   C35   A    
C88   O32   S    
C49   C53   A    
C83   C87   A    
C68   C72   A    
C29   C41   A    
C99   H35   S    
C64   C71   A    
C59   C63   A    
C97   H29   S    
O16   V4    S    
C51   O27   S    
C19   H8    S    
C77   C81   A    
C3    O13   A    
C18   H5    S    
N1    C49   A    
C90   C94   A    
O6    V2    S    
C88   C92   A    
O5    C1    A    
O36   C104  S    
C74   C78   A    
C23   C27   A    
C109  H67   S    
O11   V3    S    
C30   C42   A    
C81   C85   A    
O12   V4    S    
C22   C26   A    
C8    C9    S    
C110  H70   S    
C75   C79   A    
C9    C17   A    
C103  H47   S    
C112  H80   S    
N2    C93   S    
C80   C84   A    
C102  H44   S    
C110  H71   S    
C97   H30   S    
C54   C58   A    
C67   H19   S    
O10   C6    A    
C33   C34   A    
C42   H2    S    
O8    V4    S    
C85   O29   S    
C41   H1    S    
C87   C91   A    
C52   C56   A    
C78   C82   A    
C91   C95   A    
C12   C24   A    
C43   H3    S    
C2    C83   S    
C74   C94   A    
C13   C17   A    
C104  H50   S    
C3    C82   S    
C101  H42   S    
C63   C72   A    
C68   H20   S    
C25   C29   A    
O6    C2    A    
N3    C51   A    
C78   N6    S    
C76   C96   A    
C48   C64   A    
C37   C41   A    
C16   C20   A    
C47   C63   A    
C107  H59   S    
N5    C109  S    
C100  H38   S    
C90   H26   S    
C4    O14   A    
C59   C60   A    
C106  H57   S    
C85   C89   A    
C37   H13   S    
C86   O30   S    
O34   C102  S    
C24   C28   A    
C89   C93   A    
O18   V4    S    
C53   C57   A    
C79   N7    S    
C28   C32   A    
C15   H11   S    
C76   O40   S    
C84   C88   A    
C103  H48   S    
