data_mof_unit_28268.cif
_audit_creation_date              2013-03-05T16:33:14-0500
_audit_creation_method            fapswitch 2.2
_symmetry_space_group_name_H-M    P1
_symmetry_Int_Tables_number       1
_space_group_crystal_system       triclinic
_cell_length_a                    27.780748
_cell_length_b                    10.85899
_cell_length_c                    9.535326
_cell_angle_alpha                 90.029721
_cell_angle_beta                  89.836434
_cell_angle_gamma                 90.201569
_cell_volume                      2876.5001455

loop_
_atom_site_label
_atom_site_type_symbol
_atom_site_description
_atom_site_fract_x
_atom_site_fract_y
_atom_site_fract_z
_atom_type_partial_charge
O1    O     O_R   0.500000 0.319640 0.618810 -0.582771
O2    O     O_R   0.500010 0.319680 0.381230 -0.590825
C1    C     C_R   0.499884 0.262688 0.499819 0.811866
O3    O     O_R   0.430260 0.500000 0.618780 -0.581219
O4    O     O_R   0.430270 0.500040 0.381190 -0.582362
C2    C     C_R   0.407415 0.499951 0.500150 0.813149
Cu1   Cu    Cu3+1 0.500000 0.499980 0.640670 0.956833
Cu2   Cu    Cu3+1 0.500000 0.500020 0.359330 0.946480
O5    O     O_R   0.499990 0.680320 0.618770 -0.560815
O6    O     O_R   0.500000 0.680360 0.381190 -0.588857
O7    O     O_R   0.569730 0.499960 0.618810 -0.588574
O8    O     O_R   0.569740 0.500000 0.381220 -0.581664
C3    C     C_R   0.500062 0.737318 0.499867 0.818290
C4    C     C_R   0.592608 0.499555 0.500074 0.797035
C5    C     C_R   0.177812 0.392580 0.468879 0.532924
O9    O     O_2   0.202830 0.288189 0.445650 -0.528985
N1    N     N_R   0.201751 0.499841 0.497535 -0.470142
C6    C     C_R   0.177624 0.607620 0.520002 0.544096
C7    C     C_R   0.278829 0.511381 0.373976 -0.123831
C8    C     C_R   0.328970 0.511228 0.373910 -0.212936
C9    C     C_R   0.328683 0.488330 0.626999 -0.174233
C10   C     C_R   0.278381 0.487970 0.627563 0.191326
C11   C     C_R   0.253333 0.499953 0.500056 0.317050
C12   C     C_R   0.101658 0.500150 0.489431 -0.046360
C13   C     C_R   0.127331 0.390791 0.463415 -0.017833
C14   C     C_R   0.102191 0.282486 0.432335 -0.126571
C15   C     C_R   0.127098 0.609734 0.516825 -0.059976
C16   C     C_R   0.354374 0.499916 0.500407 -0.095983
H1    H     H_    0.347564 0.478876 0.725673 0.170957
H2    H     H_    0.121060 0.196911 0.413300 0.199702
C17   C     C_R   0.645683 0.497728 0.501247 -0.038500
C18   C     C_R   0.974545 0.393184 0.439551 0.041486
C19   C     C_R   0.974692 0.601398 0.541666 0.051400
C20   C     C_R   0.949344 0.496565 0.492389 0.072968
C21   C     C_R   0.947724 0.295211 0.380556 -0.189074
C22   C     C_R   0.897635 0.296883 0.379901 -0.131064
C23   C     C_R   0.872535 0.395027 0.440360 -0.024307
C24   C     C_R   0.898344 0.494370 0.498487 -0.046998
C25   C     C_R   0.873173 0.591133 0.563832 -0.024813
C26   C     C_R   0.822665 0.588303 0.566474 0.541771
N2    N     N_R   0.798263 0.492708 0.505540 -0.470122
C27   C     C_R   0.822019 0.396622 0.443889 0.539925
C28   C     C_R   0.720763 0.465569 0.626193 -0.098375
C29   C     C_R   0.670550 0.467084 0.624652 -0.215444
C30   C     C_R   0.672069 0.526545 0.379706 -0.213648
C31   C     C_R   0.722235 0.524483 0.381238 -0.100914
C32   C     C_R   0.746702 0.494107 0.504412 0.357115
O10   O     O_2   0.796806 0.302834 0.386741 -0.531679
C33   C     C_R   0.025487 0.390813 0.449416 0.048986
C34   C     C_R   0.050635 0.500058 0.487137 0.046517
C35   C     C_R   0.025198 0.609447 0.521152 -0.007213
C36   C     C_R   0.052237 0.282494 0.424417 -0.186018
H3    H     H_    0.651275 0.443024 0.719570 0.149174
H4    H     H_    0.739547 0.441624 0.721669 0.141292
H5    H     H_    0.878643 0.220025 0.332888 0.192761
H6    H     H_    0.964562 0.217300 0.330562 0.158291
H7    H     H_    0.035377 0.195033 0.402726 0.172822
O11   O     O_2   0.202497 0.712303 0.544992 -0.529673
C37   C     C_R   0.101822 0.719857 0.533399 -0.148898
H8    H     H_    0.347795 0.520361 0.274809 0.169795
H9    H     H_    0.259643 0.520396 0.275813 0.151675
H10   H     H_    0.121114 0.806327 0.542759 0.210515
C38   C     C_R   0.948982 0.690268 0.618856 -0.160270
C39   C     C_R   0.898993 0.686679 0.627585 -0.135120
O12   O     O_2   0.798102 0.680860 0.627945 -0.532172
C40   C     C_R   0.051651 0.721803 0.530642 0.126293
H11   H     H_    0.967330 0.760368 0.678685 0.181709
H12   H     H_    0.654148 0.552099 0.283987 0.147618
H13   H     H_    0.880725 0.758678 0.685400 0.192881
H14   H     H_    0.742175 0.547249 0.286949 0.141003
C41   C     C_R   0.498240 0.062212 0.621146 0.085140
C42   C     C_R   0.499808 0.130105 0.498093 -0.088545
C43   C     C_R   0.501441 0.064503 0.370264 -0.209846
H15   H     H_    0.502690 0.112187 0.270556 0.164004
C44   C     C_R   0.501568 0.935355 0.370329 -0.212936
H16   H     H_    0.502899 0.887556 0.270642 0.163934
C45   C     C_R   0.500076 0.869910 0.498231 -0.113621
C46   C     C_R   0.498444 0.938058 0.621212 0.129411
C47   C     C_3   0.496645 0.930199 0.777476 -0.043649
C48   C     C_3   0.496072 0.072482 0.777007 -0.523527
H17   H     H_    0.529437 0.889040 0.824140 0.153348
H18   H     H_    0.461826 0.114252 0.813948 0.193188
H19   H     H_    0.529308 0.114384 0.821102 0.194409
C49   C     C_R   0.522223 0.592686 0.073489 0.256173
N3    N     N_R   0.500300 0.500930 0.147930 -0.186390
C50   C     C_R   0.474066 0.415675 0.074629 -0.077807
H20   H     H_    0.453821 0.345990 0.130634 0.140622
C51   C     C_R   0.474037 0.415736 0.925669 -0.077766
H21   H     H_    0.453697 0.346293 0.869897 0.136968
N4    N     N_R   0.500310 0.500890 0.852020 -0.186058
C52   C     C_R   0.522211 0.592724 0.925935 0.289378
C53   C     C_3   0.574271 0.625656 0.919437 -0.498852
C54   C     C_3   0.574338 0.624887 0.078258 -0.515672
H22   H     H_    0.596735 0.551313 0.873870 0.215651
H23   H     H_    0.580590 0.718419 0.873972 0.190224
H24   H     H_    0.596294 0.548787 0.121197 0.215910
H25   H     H_    0.580855 0.717096 0.125332 0.196877
I1    I     I_    0.022566 0.901727 0.499180 -0.423695
N5    N     N_3   0.451859 0.874266 0.828238 -0.554881
H26   H     H_    0.449913 0.889481 0.936379 0.219652
H27   H     H_    0.422185 0.918022 0.783035 0.239521
N6    N     N_3   0.253348 0.474326 0.758121 -0.589552
H28   H     H_    0.230977 0.396960 0.751075 0.236970
H29   H     H_    0.231602 0.551605 0.773029 0.243953

loop_
_geom_bond_atom_site_label_1
_geom_bond_atom_site_label_2
_geom_bond_distance
_ccdc_geom_bond_type
C43   H15   1.083258 S    
C7    C8    1.392957 A    
C12   C15   1.406623 A    
C4    C17   1.474724 S    
C44   H16   1.083390 S    
Cu1   Cu2   2.682668 S    
C45   C46   1.387029 A    
Cu1   O7    1.947743 S    
C25   C39   1.398988 A    
N1    C11   1.433245 S    
C47   N5    1.463813 S    
C22   C23   1.398809 A    
O3    Cu1   1.949236 S    
C37   C40   1.394351 A    
C24   C25   1.408283 A    
O7    C4    1.296812 A    
C50   C51   1.420386 A    
C5    C13   1.403585 A    
C5    O9    1.349643 S    
C5    N1    1.367048 A    
Cu2   N3    2.015792 S    
N2    C27   1.368137 A    
C23   C27   1.403847 A    
O5    C3    1.291992 A    
C29   H3    1.081968 S    
C6    O11   1.349670 S    
C2    C16   1.473521 S    
C21   C22   1.391738 A    
C49   C52   1.406978 A    
C8    H8    1.083143 S    
C19   C38   1.408649 A    
O1    Cu1   1.969265 S    
C9    C10   1.397425 A    
C43   C44   1.402432 A    
C48   H19   1.111508 S    
C41   C48   1.491373 S    
C19   C20   1.417139 A    
C3    C45   1.439902 S    
C12   C34   1.417677 A    
C38   H11   1.078507 S    
C17   C29   1.406874 A    
C18   C21   1.414095 A    
C49   N3    1.364376 A    
O3    C2    1.298626 A    
C25   C26   1.403533 A    
C47   H17   1.110409 S    
C50   H20   1.081583 S    
C8    C16   1.404870 A    
C34   C35   1.421184 A    
C13   C14   1.397792 A    
N3    C50   1.369029 A    
Cu1   N4    2.015354 S    
C9    H1    1.083633 S    
C53   H23   1.110055 S    
C38   C39   1.391397 A    
O1    C1    1.291944 A    
C35   C40   1.425049 A    
C18   C20   1.416745 A    
C7    C11   1.398968 A    
C28   C29   1.395229 A    
C23   C24   1.407560 A    
C14   C36   1.390005 A    
C28   H4    1.082877 S    
N5    H26   1.045499 S    
Cu2   O8    1.949231 S    
C33   C36   1.413325 A    
C30   H12   1.077845 S    
C53   H22   1.109766 S    
N1    C6    1.367247 A    
N2    C32   1.432608 S    
C27   O10   1.349589 S    
C39   H13   1.083275 S    
C12   C13   1.408927 A    
N6    H29   1.045156 S    
C44   C45   1.412297 A    
C48   H18   1.111703 S    
C26   N2    1.368002 A    
N5    H27   1.046964 S    
C9    C16   1.406015 A    
C51   N4    1.368913 A    
C14   H2    1.083492 S    
C54   H24   1.108101 S    
C26   O12   1.349555 S    
C54   H25   1.111570 S    
C52   C53   1.489724 S    
Cu1   O5    1.969520 S    
C31   C32   1.398859 A    
C37   H10   1.083301 S    
C21   H6    1.078390 S    
C20   C24   1.417943 A    
O2    Cu2   1.969523 S    
C6    C15   1.404321 A    
O8    C4    1.300838 A    
C42   C43   1.412172 A    
O6    C3    1.289347 A    
O4    Cu2   1.947745 S    
C19   C35   1.418511 A    
C10   N6    1.431744 S    
C40   I1    2.138520 S    
C1    C42   1.439800 S    
C41   C42   1.386558 A    
C22   H5    1.083393 S    
C15   C37   1.397541 A    
C46   C47   1.493203 S    
N4    C52   1.363394 A    
O4    C2    1.298351 A    
C7    H9    1.083113 S    
C53   C54   1.514442 S    
O2    C1    1.289331 A    
C49   C54   1.489052 S    
N6    H28   1.045504 S    
C18   C33   1.418925 A    
C31   H14   1.082938 S    
C36   H7    1.077680 S    
C47   C48   1.545192 S    
C30   C31   1.394004 A    
C51   H21   1.081224 S    
Cu2   O6    1.969264 S    
C33   C34   1.421234 A    
C17   C30   1.404382 A    
C10   C11   1.408896 A    
C28   C32   1.399195 A    
C41   C46   1.348222 A    
