data_mof_unit_37710.cif
_audit_creation_date              2013-03-05T16:05:03-0500
_audit_creation_method            fapswitch 2.2
_symmetry_space_group_name_H-M    P1
_symmetry_Int_Tables_number       1
_space_group_crystal_system       triclinic
_cell_length_a                    6.927897
_cell_length_b                    23.196959
_cell_length_c                    25.836672
_cell_angle_alpha                 104.767413
_cell_angle_beta                  89.962415
_cell_angle_gamma                 90.724565
_cell_volume                      4014.62629386

loop_
_atom_site_label
_atom_site_type_symbol
_atom_site_description
_atom_site_fract_x
_atom_site_fract_y
_atom_site_fract_z
_atom_type_partial_charge
O1    O     O_R   0.505750 0.453350 0.547660 -0.594257
O2    O     O_R   0.170990 0.432220 0.437590 -0.594635
O3    O     O_R   0.005600 0.546650 0.452340 -0.593897
C1    C     C_R   0.339593 0.416012 0.417090 0.945161
O4    O     O_R   0.175720 0.446240 0.546340 -0.599308
O5    O     O_R   0.010370 0.560770 0.561860 -0.594893
C2    C     C_R   0.343823 0.434034 0.562761 0.923875
O6    O     O_R   0.500990 0.439230 0.438140 -0.593096
O7    O     O_3   0.340820 0.537560 0.504970 -0.274433
V1    V     V_3+5 0.064050 0.493030 0.499080 1.142851
O8    O     O_R   0.680940 0.567780 0.562410 -0.598452
C3    C     C_R   0.850685 0.584557 0.582456 0.951223
O9    O     O_R   0.676210 0.553760 0.453660 -0.599210
C4    C     C_R   0.845272 0.565362 0.436823 0.936625
V2    V     V_3+5 0.564640 0.506970 0.500920 1.142227
O10   O     O_3   0.837740 0.462440 0.495030 -0.272550
C5    C     C_R   0.783126 0.862691 0.104687 -0.160655
H1    H     H_    0.658706 0.864962 0.079952 0.130640
C6    C     C_R   0.773504 0.825872 0.140055 -0.155235
C7    C     C_R   0.931129 0.822152 0.173171 0.111546
C8    C     C_R   0.099435 0.855408 0.169874 -0.155281
H2    H     H_    0.222923 0.853106 0.194936 0.111168
C9    C     C_R   0.110871 0.891142 0.133599 -0.158886
H3    H     H_    0.242940 0.916039 0.131773 0.123355
C10   C     C_R   0.952452 0.895463 0.100747 -0.125077
C11   C     C_R   0.948099 0.808119 0.266240 -0.168257
C12   C     C_R   0.930623 0.772191 0.302230 -0.172760
C13   C     C_R   0.886786 0.710981 0.283809 0.102396
C14   C     C_R   0.866454 0.686301 0.228379 -0.159819
C15   C     C_R   0.878721 0.722502 0.192541 -0.174199
H4    H     H_    0.859117 0.702565 0.150134 0.119034
C16   C     C_R   0.919438 0.783757 0.211148 0.100603
C17   C     C_R   0.704392 0.636415 0.324774 0.245384
C18   C     C_R   0.699080 0.602288 0.362792 -0.205868
H5    H     H_    0.572301 0.575144 0.364986 0.135426
C19   C     C_R   0.854406 0.602499 0.397723 -0.158159
C20   C     C_R   0.016418 0.638395 0.394983 -0.161571
H6    H     H_    0.137768 0.639902 0.421730 0.131609
C21   C     C_R   0.021712 0.673960 0.358624 -0.186739
C22   C     C_R   0.869109 0.672987 0.322474 0.035409
C23   C     C_R   0.712428 0.645006 0.668834 -0.257875
C24   C     C_R   0.864156 0.634317 0.631498 -0.144346
C25   C     C_R   0.031558 0.670530 0.641790 -0.254618
C26   C     C_R   0.047663 0.717126 0.688523 0.150391
C27   C     C_R   0.896325 0.726916 0.726205 0.027238
C28   C     C_R   0.728557 0.690521 0.716431 0.151100
C29   C     C_R   0.212632 0.754088 0.698306 -0.221421
C30   C     C_R   0.228818 0.799938 0.745347 -0.208515
C31   C     C_R   0.080722 0.809504 0.783561 0.152647
C32   C     C_R   0.912955 0.773107 0.773786 0.027328
C33   C     C_R   0.761622 0.782892 0.811469 0.149122
C34   C     C_R   0.596645 0.745935 0.801684 -0.220108
C35   C     C_R   0.580452 0.700090 0.754642 -0.206325
C36   C     C_R   0.096863 0.855011 0.831164 -0.261553
C37   C     C_R   0.945159 0.865681 0.868508 -0.143233
C38   C     C_R   0.777747 0.829475 0.858210 -0.253517
H7    H     H_    0.583633 0.617044 0.661400 0.136526
H8    H     H_    0.148797 0.662791 0.613116 0.140509
H9    H     H_    0.329959 0.747292 0.669713 0.141879
H10   H     H_    0.358053 0.827671 0.752011 0.142363
H11   H     H_    0.660519 0.837206 0.886888 0.141141
H12   H     H_    0.479320 0.752730 0.830278 0.142584
H13   H     H_    0.451214 0.672358 0.747978 0.143282
C39   C     C_R   0.575838 0.183801 0.141335 -0.240887
C40   C     C_R   0.456566 0.132982 0.132615 -0.141312
C41   C     C_R   0.316802 0.129104 0.171087 -0.236880
C42   C     C_R   0.294411 0.175118 0.218457 0.098847
C43   C     C_R   0.413532 0.226858 0.226232 -0.023145
C44   C     C_R   0.553597 0.230991 0.187480 0.153883
C45   C     C_R   0.156893 0.170999 0.258333 0.207080
C46   C     C_R   0.137588 0.218886 0.303933 -0.290408
C47   C     C_R   0.253772 0.270173 0.311600 0.151228
C48   C     C_R   0.393735 0.274354 0.272842 -0.022537
C49   C     C_R   0.512949 0.326084 0.280674 0.100306
C50   C     C_R   0.649915 0.330311 0.240689 0.204654
C51   C     C_R   0.669306 0.282395 0.195073 -0.289647
C52   C     C_R   0.232284 0.317140 0.357905 -0.234997
C53   C     C_R   0.352198 0.367797 0.366836 -0.143415
C54   C     C_R   0.491324 0.371914 0.328249 -0.239121
H14   H     H_    0.683130 0.187121 0.111630 0.129871
H15   H     H_    0.581572 0.411543 0.336043 0.139129
H16   H     H_    0.775552 0.285355 0.164974 0.140245
C55   C     C_R   0.294453 0.104067 0.868658 -0.202161
H17   H     H_    0.181875 0.071398 0.869226 0.137057
C56   C     C_R   0.275242 0.139392 0.832861 -0.216992
C57   C     C_R   0.413333 0.183074 0.830716 0.042749
C58   C     C_R   0.571988 0.193061 0.866866 0.180921
C59   C     C_R   0.606317 0.151474 0.898374 0.138318
C60   C     C_R   0.458892 0.108171 0.901281 -0.200977
C61   C     C_R   0.537204 0.212526 0.749911 -0.179618
C62   C     C_R   0.525603 0.246114 0.712161 -0.168060
H18   H     H_    0.639947 0.242344 0.682950 0.111247
C63   C     C_R   0.368389 0.283917 0.712048 0.107713
C64   C     C_R   0.219862 0.285625 0.749724 -0.168191
C65   C     C_R   0.231641 0.251830 0.787492 -0.189267
H19   H     H_    0.117943 0.254865 0.816818 0.111399
C66   C     C_R   0.393204 0.216322 0.788822 0.153447
C67   C     C_R   0.186126 0.332661 0.650369 -0.155005
H20   H     H_    0.052926 0.312498 0.659567 0.099501
C68   C     C_R   0.180476 0.368792 0.614479 -0.153907
C69   C     C_R   0.350413 0.395098 0.600468 -0.132620
C70   C     C_R   0.526078 0.384286 0.623351 -0.154824
H21   H     H_    0.659620 0.404055 0.613851 0.127915
C71   C     C_R   0.531571 0.348362 0.659392 -0.152917
H22   H     H_    0.668988 0.342086 0.676995 0.101188
C72   C     C_R   0.361734 0.321983 0.673383 0.119199
O11   O     O_R   0.308350 0.060850 0.061810 -0.592153
O12   O     O_R   0.633860 0.053770 0.953650 -0.598111
O13   O     O_R   0.798960 0.939210 0.938150 -0.595567
C73   C     C_R   0.466439 0.067221 0.937938 0.945567
O14   O     O_R   0.638360 0.067800 0.062400 -0.593847
O15   O     O_R   0.803500 0.953330 0.047670 -0.593365
C74   C     C_R   0.469666 0.084361 0.082654 0.937444
O16   O     O_R   0.303810 0.046730 0.952290 -0.594094
O17   O     O_3   0.468430 0.962490 0.995010 -0.273365
V3    V     V_3+5 0.745300 0.006960 0.000930 1.137183
O18   O     O_R   0.132880 0.946160 0.046390 -0.597116
C75   C     C_R   0.963548 0.934183 0.062918 0.920727
O19   O     O_R   0.128380 0.932130 0.937650 -0.598141
C76   C     C_R   0.958645 0.915416 0.917563 0.947260
V4    V     V_3+5 0.244670 0.992930 0.999140 1.140534
O20   O     O_3   0.971670 0.037510 0.005000 -0.268915
H23   H     H_    0.146722 0.702399 0.358513 0.115894
H24   H     H_    0.225647 0.882978 0.838600 0.135618
H25   H     H_    0.641879 0.800852 0.142129 0.113038
H26   H     H_    0.226741 0.089445 0.163391 0.139911
C77   C     C_3   0.031159 0.116082 0.254611 -0.397608
C78   C     C_3   0.854582 0.116015 0.219376 -0.852166
H27   H     H_    0.762378 0.154559 0.237827 0.265883
H28   H     H_    0.897388 0.118697 0.178648 0.261156
H29   H     H_    0.769024 0.074387 0.215848 0.241967
H30   H     H_    0.115202 0.074748 0.239719 0.179658
H31   H     H_    0.979604 0.114534 0.295016 0.190457
H32   H     H_    0.031145 0.215972 0.333995 0.139238
H33   H     H_    0.125368 0.313698 0.387678 0.129132
C79   C     C_3   0.774876 0.385379 0.244321 -0.393521
C80   C     C_3   0.952546 0.385520 0.279198 -0.852183
H34   H     H_    0.910956 0.382874 0.320024 0.260317
H35   H     H_    0.044652 0.346992 0.260614 0.265334
H36   H     H_    0.037763 0.427178 0.282523 0.243746
H37   H     H_    0.825141 0.387092 0.203843 0.191182
H38   H     H_    0.690589 0.426628 0.259476 0.181486
H39   H     H_    0.151127 0.132440 0.806382 0.128497
C81   C     C_3   0.689914 0.251012 0.874680 -0.405371
C82   C     C_3   0.569773 0.305143 0.901781 -0.870328
H40   H     H_    0.446578 0.310938 0.876366 0.262987
H41   H     H_    0.514023 0.300136 0.940752 0.255157
H42   H     H_    0.661393 0.346082 0.909265 0.245708
H43   H     H_    0.818390 0.253499 0.900304 0.202468
H44   H     H_    0.745768 0.256299 0.835959 0.187385
C83   C     C_3   0.800276 0.152625 0.926571 -0.349632
C84   C     C_3   0.789699 0.186220 0.985581 -0.831284
H45   H     H_    0.753116 0.233600 0.989533 0.242923
H46   H     H_    0.678660 0.166059 0.006756 0.242804
H47   H     H_    0.931747 0.184501 0.004977 0.244136
H48   H     H_    0.857161 0.107294 0.921640 0.211441
H49   H     H_    0.916798 0.171998 0.906771 0.165650
H50   H     H_    0.660496 0.184094 0.749320 0.108214
H51   H     H_    0.097013 0.314337 0.751046 0.113632
H52   H     H_    0.042518 0.375897 0.597574 0.128093
H53   H     H_    0.980243 0.855221 0.281484 0.115110
H54   H     H_    0.949568 0.792319 0.344624 0.117026
H55   H     H_    0.840456 0.639010 0.212783 0.128161
C85   C     C_3   0.526612 0.634998 0.290370 -0.405441
C86   C     C_3   0.500410 0.574625 0.249876 -0.900613
H56   H     H_    0.630646 0.563234 0.224502 0.251900
H57   H     H_    0.472993 0.538932 0.270686 0.250840
H58   H     H_    0.374625 0.576298 0.223707 0.256861
H59   H     H_    0.398181 0.643167 0.316654 0.194591
H60   H     H_    0.528740 0.670791 0.269022 0.201601

loop_
_geom_bond_atom_site_label_1
_geom_bond_atom_site_label_2
_geom_bond_distance
_ccdc_geom_bond_type
C45   C77   1.516722 S    
O15   C75   1.297738 A    
C37   C38   1.408249 A    
C11   C16   1.404386 A    
C86   H56   1.109338 S    
O17   V4    1.703560 S    
C48   C49   1.419279 A    
C14   H55   1.080743 S    
C85   H60   1.107670 S    
C65   H19   1.083013 S    
C1    O6    1.293191 A    
C78   H27   1.109718 S    
C56   H39   1.083700 S    
C46   H32   1.084607 S    
C71   C72   1.408384 A    
C82   H40   1.107398 S    
C52   C53   1.400564 A    
C26   C27   1.410894 A    
C40   C41   1.405625 A    
C80   H35   1.109853 S    
C13   C14   1.406706 A    
C11   C12   1.402225 A    
C64   H51   1.082510 S    
V3    O20   1.704949 S    
C55   H17   1.083288 S    
C83   H49   1.105790 S    
C85   C86   1.528301 S    
C20   H6    1.083167 S    
C33   C38   1.403698 A    
C12   H54   1.083014 S    
O5    C3    1.294788 A    
C15   H4    1.083103 S    
C13   C22   1.495216 S    
C31   C36   1.405296 A    
C21   H23   1.082475 S    
C44   C51   1.399903 A    
C18   H5    1.084084 S    
C23   C24   1.407225 A    
C57   C66   1.488074 S    
O18   V4    1.979865 S    
C77   H30   1.110018 S    
O11   C74   1.293090 A    
C4    C19   1.486201 S    
C81   H44   1.107467 S    
O13   V3    1.988344 S    
O16   V4    1.986728 S    
O8    V2    1.998356 S    
C6    C7    1.404722 A    
O12   C73   1.296847 A    
C43   C44   1.413697 A    
C3    C24   1.482697 S    
C83   C84   1.527336 S    
C45   C46   1.405782 A    
O1    V2    1.980937 S    
C58   C81   1.532774 S    
O7    V1    2.153340 S    
C73   O16   1.307139 A    
C61   C66   1.403363 A    
C25   H8    1.084376 S    
C26   C29   1.403685 A    
C41   C42   1.413939 A    
C86   H57   1.110638 S    
O1    C2    1.298965 A    
O9    C4    1.297896 A    
C10   C75   1.487814 S    
C39   H14   1.084157 S    
C85   H59   1.107521 S    
C64   C65   1.401818 A    
C71   H22   1.082682 S    
C82   H41   1.111040 S    
C30   H10   1.083650 S    
C37   C76   1.482606 S    
O19   V4    1.998213 S    
C55   C60   1.405316 A    
C80   H36   1.110422 S    
C17   C22   1.423583 A    
C49   C50   1.423107 A    
C33   C34   1.403674 A    
C69   C70   1.406316 A    
C17   C85   1.514480 S    
C51   H16   1.084636 S    
C21   C22   1.407306 A    
C54   H15   1.080643 S    
C53   C54   1.406059 A    
C47   C48   1.413590 A    
C32   C33   1.410895 A    
C43   C48   1.417781 A    
C56   C57   1.396100 A    
C60   C73   1.503994 S    
C6    H25   1.083359 S    
C42   C43   1.419230 A    
C61   H50   1.083459 S    
O2    C1    1.301936 A    
C50   C51   1.406512 A    
C1    C53   1.485389 S    
C14   C15   1.401496 A    
C63   C72   1.493514 S    
C62   C63   1.407388 A    
C68   H52   1.082884 S    
C29   C30   1.399684 A    
C84   H47   1.110398 S    
C23   C28   1.405272 A    
C7    C8    1.404486 A    
C5    H1    1.083158 S    
O14   C74   1.302048 A    
C63   C64   1.409950 A    
C83   H48   1.104277 S    
C84   H45   1.110141 S    
C70   C71   1.399792 A    
V4    O20   2.153759 S    
O14   V3    1.986262 S    
O3    C4    1.297827 A    
C79   H38   1.110259 S    
C30   C31   1.403363 A    
C55   C56   1.390624 A    
C84   H46   1.109312 S    
C67   H20   1.082700 S    
O6    V2    1.994655 S    
C67   C68   1.400338 A    
C49   C54   1.414634 A    
C8    C9    1.402152 A    
C25   C26   1.403739 A    
C59   C83   1.525608 S    
C27   C28   1.412199 A    
C24   C25   1.408276 A    
O11   V4    1.995379 S    
C77   C78   1.525100 S    
O2    V1    1.986221 S    
C78   H29   1.110328 S    
O15   V3    1.986895 S    
C82   H42   1.110617 S    
C34   C35   1.399660 A    
C57   C58   1.420833 A    
O4    C2    1.298729 A    
C7    C16   1.485314 S    
C36   H24   1.084370 S    
C36   C37   1.407217 A    
C19   C20   1.401603 A    
C81   H43   1.101744 S    
C50   C79   1.516933 S    
C40   C74   1.485539 S    
C77   H31   1.112168 S    
C79   C80   1.525420 S    
C78   H28   1.109787 S    
O5    V1    1.988238 S    
C47   C52   1.407077 A    
O19   C76   1.299657 A    
C65   C66   1.403645 A    
C86   H58   1.110416 S    
C39   C44   1.407896 A    
C80   H34   1.109773 S    
C11   H53   1.083094 S    
C67   C72   1.406647 A    
C81   C82   1.528794 S    
C42   C45   1.422962 A    
C5    C10   1.407527 A    
C39   C40   1.401208 A    
O12   V3    1.991474 S    
O9    V2    1.979801 S    
O7    V2    1.705461 S    
C23   H7    1.084359 S    
O4    V1    1.991387 S    
C20   C21   1.399541 A    
O3    V1    1.987080 S    
V1    O10   1.704951 S    
O18   C75   1.298964 A    
C15   C16   1.404106 A    
C35   H13   1.083648 S    
C61   C62   1.397815 A    
C27   C32   1.413585 A    
V2    O10   2.153783 S    
C28   C35   1.403358 A    
C68   C69   1.408303 A    
C5    C6    1.401883 A    
C79   H37   1.112173 S    
C17   C18   1.410151 A    
C18   C19   1.404060 A    
C9    C10   1.407986 A    
C70   H21   1.082964 S    
C9    H3    1.083237 S    
C29   H9    1.083681 S    
C41   H26   1.080539 S    
C46   C47   1.399416 A    
C59   C60   1.438824 A    
O13   C76   1.294774 A    
C58   C59   1.433982 A    
C31   C32   1.412209 A    
C2    C69   1.488840 S    
C12   C13   1.406997 A    
C38   H11   1.084378 S    
C34   H12   1.083683 S    
C52   H33   1.084341 S    
C8    H2    1.083309 S    
C62   H18   1.082638 S    
O17   V3    2.153287 S    
O8    C3    1.299647 A    
