data_mof_unit_58395.cif
_audit_creation_date              2012-12-11T17:37:54-0500
_audit_creation_method            fapswitch 2.2
_symmetry_space_group_name_H-M    P1
_symmetry_Int_Tables_number       1
_space_group_crystal_system       triclinic
_cell_length_a                    13.011751
_cell_length_b                    13.002636
_cell_length_c                    15.311699
_cell_angle_alpha                 116.279686
_cell_angle_beta                  64.075937
_cell_angle_gamma                 96.964465
_cell_volume                      2080.64418855

loop_
_atom_site_label
_atom_site_type_symbol
_atom_type_description
_atom_site_fract_x
_atom_site_fract_y
_atom_site_fract_z
_atom_type_partial_charge
C1    C     C_R   0.004133 0.833454 0.051986 -0.203043
C2    C     C_R   0.675052 0.529889 0.322358 0.042575
C3    C     C_R   0.664212 0.452830 0.924490 0.120108
C4    C     C_R   0.076987 0.789618 0.300084 0.059619
C5    C     C_R   0.338068 0.533658 0.968824 0.440349
C6    C     C_R   0.963995 0.179514 0.781039 -0.119150
C7    C     C_R   0.198265 0.508635 0.695127 -0.100683
C8    C     C_R   0.058147 0.253456 0.082593 -0.124845
C9    C     C_R   0.958188 0.169577 0.987819 -0.118084
C10   C     C_R   0.294823 0.598843 0.793215 -0.120030
C11   C     C_R   0.258040 0.425112 0.057781 -0.219839
C12   C     C_R   0.680243 0.463253 0.220360 -0.133905
C13   C     C_R   0.048019 0.279990 0.684444 -0.147587
C14   C     C_R   0.360524 0.452139 0.994386 0.030429
C15   C     C_R   0.029557 0.171396 0.678887 0.058269
C16   C     C_R   0.291455 0.569856 0.697168 0.018720
C17   C     C_R   0.019337 0.148612 0.034316 0.058431
C18   C     C_R   0.423999 0.700681 0.225895 -0.107481
C19   C     C_R   0.315038 0.756446 0.301486 -0.106931
C20   C     C_R   0.288323 0.870992 0.327362 0.017948
C21   C     C_R   0.373328 0.929616 0.274670 -0.052191
C22   C     C_R   0.483162 0.872038 0.199121 -0.019712
C23   C     C_R   0.756499 0.511986 0.889220 -0.039515
C24   C     C_R   0.508056 0.758524 0.175135 -0.052012
C25   C     C_R   0.155643 0.022110 0.505976 -0.268089
C26   C     C_R   0.044396 0.071541 0.583025 0.069884
C27   C     C_R   0.947190 0.026926 0.567001 0.094101
C28   C     C_R   0.962670 0.931715 0.473437 -0.209501
C29   C     C_R   0.072685 0.882740 0.395899 0.046245
C30   C     C_R   0.171199 0.926492 0.409731 0.014725
C31   C     C_R   0.747325 0.037195 0.706669 0.465676
C32   C     C_R   0.631822 0.079436 0.759594 -0.182346
C33   C     C_R   0.597153 0.164612 0.743532 -0.162393
C34   C     C_R   0.017117 0.696452 0.301237 -0.152013
C35   C     C_R   0.678204 0.210742 0.677240 -0.093366
C36   C     C_R   0.793942 0.171038 0.626070 -0.196228
C37   C     C_R   0.829199 0.083027 0.639101 -0.023065
C38   C     C_R   0.851688 0.328627 0.390211 -0.111406
C39   C     C_R   0.752175 0.373234 0.400644 -0.106196
C40   C     C_R   0.696607 0.480139 0.486593 0.069828
C41   C     C_R   0.740580 0.539655 0.563303 -0.135416
C42   C     C_R   0.839057 0.493822 0.553325 -0.110395
C43   C     C_R   0.894910 0.388691 0.466555 -0.146214
C44   C     C_R   0.493392 0.546536 0.593395 -0.213691
C45   C     C_R   0.678895 0.418502 0.990174 -0.159124
C46   C     C_R   0.386411 0.577711 0.607303 0.066774
C47   C     C_R   0.373830 0.597454 0.529172 0.029693
C48   C     C_R   0.471582 0.582425 0.435644 -0.237477
C49   C     C_R   0.577768 0.547458 0.421026 0.082281
C50   C     C_R   0.589455 0.528026 0.500024 0.024129
C51   C     C_R   0.223384 0.571168 0.462385 -0.174011
C52   C     C_R   0.118642 0.605680 0.474149 -0.196575
C53   C     C_R   0.052261 0.703494 0.565225 -0.044197
C54   C     C_R   0.089712 0.766096 0.645540 -0.016306
C55   C     C_R   0.193854 0.731093 0.634743 -0.180325
C56   C     C_R   0.097693 0.797937 0.207724 -0.102871
C57   C     C_R   0.261776 0.633442 0.542765 0.126871
C58   C     C_2   0.469882 0.415325 0.975120 -0.199004
C59   C     C_2   0.565212 0.434100 0.903347 -0.123016
C60   C     C_2   0.847268 0.963360 0.080436 -0.138683
C61   C     C_2   0.829846 0.044214 0.178822 -0.178285
C62   C     C_R   0.783695 0.554726 0.314431 -0.116121
C63   C     C_R   0.909396 0.751873 0.950360 0.430632
C64   C     C_R   0.921230 0.855666 0.026903 0.020248
H1    H     H_    0.034266 0.894715 0.109310 0.125588
H2    H     H_    0.926915 0.110584 0.802504 0.143966
H3    H     H_    0.165738 0.480741 0.634935 0.108506
H4    H     H_    0.097435 0.271312 0.136419 0.092749
H5    H     H_    0.905686 0.109911 0.953842 0.121152
H6    H     H_    0.348405 0.659577 0.824191 0.182003
H7    H     H_    0.246640 0.372922 0.099329 0.124086
H8    H     H_    0.088485 0.303922 0.618498 0.100439
H9    H     H_    0.592553 0.715103 0.116492 0.141642
H10   H     H_    0.443327 0.612498 0.206790 0.109019
H11   H     H_    0.251107 0.710277 0.340336 0.129404
H12   H     H_    0.610719 0.425836 0.199300 0.108183
H13   H     H_    0.549771 0.914380 0.157458 0.166994
H14   H     H_    0.229247 0.058192 0.520834 0.138811
H15   H     H_    0.888173 0.897894 0.458832 0.144843
H16   H     H_    0.568382 0.044336 0.811207 0.165234
H17   H     H_    0.507319 0.194901 0.782512 0.141492
H18   H     H_    0.651193 0.276409 0.664469 0.124318
H19   H     H_    0.855465 0.205266 0.572521 0.130436
H20   H     H_    0.971537 0.353652 0.458628 0.110855
H21   H     H_    0.779986 0.529963 0.820861 0.159305
H22   H     H_    0.895264 0.247315 0.323134 0.112322
H23   H     H_    0.718804 0.324950 0.341661 0.132190
H24   H     H_    0.698589 0.621603 0.630719 0.176136
H25   H     H_    0.872148 0.539906 0.612831 0.160282
H26   H     H_    0.501213 0.526694 0.652181 0.148810
H27   H     H_    0.465290 0.597994 0.374057 0.127075
H28   H     H_    0.274204 0.495529 0.390986 0.121936
H29   H     H_    0.089436 0.556988 0.412158 0.125437
H30   H     H_    0.971782 0.730494 0.573473 0.169713
H31   H     H_    0.038131 0.841864 0.716096 0.158769
H32   H     H_    0.992572 0.662289 0.359731 0.104113
H33   H     H_    0.222148 0.780734 0.697307 0.122107
H34   H     H_    0.469409 0.388738 0.033095 0.131630
H35   H     H_    0.564680 0.456294 0.843101 0.167592
H36   H     H_    0.799267 0.974699 0.042080 0.191004
H37   H     H_    0.871571 0.036610 0.223728 0.130037
H38   H     H_    0.635875 0.354090 0.016664 0.109935
H39   H     H_    0.149007 0.858391 0.179602 0.110321
H40   H     H_    0.809410 0.603187 0.378731 0.117353
N1    N     N_R   0.037320 0.720000 0.995830 -0.061943
N2    N     N_R   0.946240 0.290870 0.848020 -0.044119
N3    N     N_R   0.146160 0.501170 0.788610 -0.047510
N4    N     N_R   0.025750 0.332680 0.063570 -0.039135
N5    N     N_R   0.962680 0.280000 0.004170 -0.044690
N6    N     N_R   0.209230 0.553860 0.848010 -0.047008
N7    N     N_R   0.175100 0.482030 0.063570 -0.058037
N8    N     N_R   0.996810 0.351820 0.788610 -0.042262
N9    N     N_R   0.790770 0.446140 0.151990 -0.040468
N10   N     N_R   0.824900 0.517970 0.936430 -0.057054
N11   N     N_R   0.003190 0.648180 0.211390 -0.042493
N12   N     N_R   0.774330 0.457010 0.995830 -0.051624
N13   N     N_R   0.053760 0.709130 0.151980 -0.040557
N14   N     N_R   0.853840 0.498830 0.211390 -0.043609
N15   N     N_R   0.974250 0.667320 0.936430 -0.087053
N16   N     N_R   0.225670 0.542990 0.004170 -0.077390
Ni1   Ni    Ni4+2 0.130310 0.630310 0.000000 0.246300
Ni2   Ni    Ni4+2 0.869690 0.369690 0.000000 0.219795
Ni3   Ni    Ni4+2 0.985660 0.509480 0.863750 0.229854
Ni4   Ni    Ni4+2 0.014340 0.490520 0.136250 0.208787
C65   C     C_2   0.347808 0.048371 0.294567 0.481117
H41   H     H_    0.261203 0.089995 0.343950 0.011995
O1    O     O_2   0.423486 0.101333 0.255208 -0.584876
Cl1   Cl    Cl    0.786155 0.924319 0.723322 -0.702620
Cl2   Cl    Cl    0.837736 0.739788 0.872755 -0.701620
Cl3   Cl    Cl    0.423773 0.644637 0.950334 -0.715775

loop_
_geom_bond_atom_site_label_1
_geom_bond_atom_site_label_2
_ccdc_geom_bond_type
C59   H35   S    
C41   C42   A    
C3    C23   A    
C35   C36   A    
C58   H34   S    
N3    Ni3   S    
C2    C12   A    
N2    N8    A    
C53   C54   A    
C52   C53   A    
C28   C29   A    
C26   C27   A    
N12   Ni2   S    
C38   H22   S    
C18   C24   A    
C36   C37   A    
C34   H32   S    
C13   N8    A    
N6    Ni1   S    
C38   C39   A    
C11   C14   A    
C11   H7    S    
C24   H9    S    
C47   C57   S    
C36   H19   S    
N4    N5    A    
C18   C19   A    
C56   N13   A    
C28   H15   S    
N13   Ni1   S    
C6    C15   A    
C54   C55   A    
N9    Ni2   S    
C19   C20   A    
N11   N13   A    
C48   H27   S    
C54   H31   S    
C1    H1    S    
C51   C57   A    
C39   H23   S    
C4    C29   S    
N7    Ni4   S    
C18   H10   S    
C21   C22   A    
C4    C56   A    
C43   H20   S    
N2    Ni2   S    
C31   Cl1   S    
N4    Ni4   S    
C8    N4    A    
C35   H18   S    
C44   C46   A    
C62   H40   S    
C9    N5    A    
C14   C58   S    
C4    C34   A    
C5    N16   A    
C11   N7    A    
C51   C52   A    
C56   H39   S    
N8    Ni3   S    
C16   C46   S    
C39   C40   A    
C15   C26   S    
C20   C30   S    
C34   N11   A    
C25   H14   S    
C3    C45   A    
C31   C37   A    
N7    N16   A    
C61   H37   S    
C29   C30   A    
C2    C49   S    
C51   H28   S    
C32   H16   S    
C63   N15   A    
C47   C48   A    
C48   C49   A    
C55   H33   S    
C6    N2    A    
N1    Ni1   S    
C52   H29   S    
N14   Ni4   S    
C5    C14   A    
N10   Ni3   S    
C10   H6    S    
C9    C17   A    
C40   C41   A    
C8    H4    S    
C55   C57   A    
C12   H12   S    
C65   H41   S    
N3    N6    A    
C22   C24   A    
C58   C59   D    
C42   C43   A    
C21   C65   S    
C1    C64   A    
C44   H26   S    
N16   Ni1   S    
C12   N9    A    
C44   C50   A    
C25   C30   A    
C41   H24   S    
C46   C47   A    
C7    C16   A    
N11   Ni4   S    
C53   H30   S    
C31   C32   A    
N1    N15   A    
C22   H13   S    
C9    H5    S    
C63   C64   A    
C60   H36   S    
N10   N12   A    
C13   H8    S    
N15   Ni3   S    
C8    C17   A    
C60   C64   S    
C42   H25   S    
C32   C33   A    
C13   C15   A    
C25   C26   A    
C38   C43   A    
C10   C16   A    
C23   N10   A    
C45   N12   A    
C27   C37   S    
C40   C50   S    
C19   H11   S    
C33   C35   A    
C10   N6    A    
C7    N3    A    
C63   Cl2   S    
N5    Ni2   S    
C62   N14   A    
C45   H38   S    
C7    H3    S    
N9    N14   A    
C5    Cl3   S    
C6    H2    S    
C20   C21   A    
C49   C50   A    
C23   H21   S    
C27   C28   A    
C65   O1    D    
C60   C61   D    
C33   H17   S    
C2    C62   A    
C1    N1    A    
C3    C59   S    
