data_mof_unit_22612.cif
_audit_creation_date              2013-03-05T15:42:15-0500
_audit_creation_method            fapswitch 2.2
_symmetry_space_group_name_H-M    P1
_symmetry_Int_Tables_number       1
_space_group_crystal_system       triclinic
_cell_length_a                    11.553525
_cell_length_b                    11.548004
_cell_length_c                    19.519914
_cell_angle_alpha                 90.555456
_cell_angle_beta                  90.225996
_cell_angle_gamma                 59.70193
_cell_volume                      2248.5213669

loop_
_atom_site_label
_atom_site_type_symbol
_atom_site_description
_atom_site_fract_x
_atom_site_fract_y
_atom_site_fract_z
_atom_type_partial_charge
O1    O     O_R   0.267740 0.231960 0.575440 -0.508980
O2    O     O_R   0.527280 0.186640 0.570530 -0.490387
C1    C     C_R   0.640726 0.117603 0.599140 0.564793
O3    O     O_R   0.728090 0.003450 0.576380 -0.489920
O4    O     O_R   0.682970 0.789190 0.570490 -0.496142
C2    C     C_R   0.612847 0.745698 0.598534 0.544237
O5    O     O_R   0.499290 0.771880 0.575530 -0.503474
O6    O     O_R   0.285330 0.030870 0.569730 -0.482091
C3    C     C_R   0.240918 0.145494 0.598117 0.554506
O7    O     O_R   0.270980 0.227080 0.423890 -0.547524
O8    O     O_R   0.530280 0.182120 0.430050 -0.499948
C4    C     C_R   0.622020 0.081729 0.394016 0.550060
O9    O     O_R   0.731330 0.998570 0.424830 -0.488047
O10   O     O_R   0.685970 0.784660 0.430010 -0.531842
C5    C     C_R   0.616914 0.734749 0.403317 0.534253
O11   O     O_R   0.502530 0.767000 0.423990 -0.520360
O12   O     O_R   0.288330 0.026350 0.429250 -0.445765
C6    C     C_R   0.237381 0.145741 0.402999 0.575751
Cr1   Cr    Cr6+3 0.404720 0.198220 0.499960 1.026511
Cr2   Cr    Cr6+3 0.698290 0.897110 0.500380 1.038896
Cr3   Cr    Cr6+3 0.396970 0.904720 0.499610 1.071927
O13   O     O_3   0.499990 0.000020 0.499980 -0.282114
C7    C     C_1   0.669589 0.646925 0.860242 0.011404
C8    C     C_1   0.655081 0.683634 0.728451 -0.028987
C9    C     C_1   0.663023 0.666996 0.799761 -0.028936
C10   C     C_1   0.641905 0.703629 0.667938 0.007043
C11   C     C_1   0.126884 0.198281 0.859362 0.012677
C12   C     C_1   0.171434 0.170416 0.727669 -0.028538
C13   C     C_1   0.150261 0.181965 0.798952 -0.027753
C14   C     C_1   0.195143 0.161298 0.667300 0.008913
C15   C     C_1   0.677914 0.191257 0.860881 0.009770
C16   C     C_1   0.658487 0.167420 0.729006 -0.029458
C17   C     C_1   0.665161 0.181013 0.800364 -0.027752
C18   C     C_1   0.653242 0.149868 0.668545 0.005489
H1    H     H_    0.856700 0.592914 0.337799 0.117199
C19   C     C_R   0.666601 0.667641 0.193607 0.034654
C20   C     C_R   0.538218 0.729843 0.223074 0.011496
C21   C     C_R   0.531574 0.702017 0.291960 -0.000093
C22   C     C_R   0.769050 0.622772 0.306121 -0.168554
C23   C     C_R   0.781512 0.609509 0.235614 -0.156750
C24   C     C_R   0.418240 0.796457 0.183789 0.233483
C25   C     C_R   0.303330 0.798605 0.208023 -0.107793
C26   C     C_R   0.304401 0.745994 0.271847 -0.157676
C27   C     C_R   0.415954 0.700417 0.314255 -0.093734
C28   C     C_R   0.643035 0.674101 0.335039 0.010769
H2    H     H_    0.881460 0.553795 0.214007 0.150136
H3    H     H_    0.213070 0.840126 0.177412 0.152957
H4    H     H_    0.216694 0.744749 0.289378 0.167366
H5    H     H_    0.412524 0.658919 0.363133 0.152173
C29   C     C_R   0.142264 0.195373 0.193690 -0.021161
C30   C     C_R   0.190297 0.271027 0.226880 0.012821
C31   C     C_R   0.175255 0.286345 0.298008 -0.006282
C32   C     C_R   0.117447 0.110294 0.304289 0.171368
C33   C     C_R   0.104244 0.117586 0.232866 -0.137244
C34   C     C_R   0.240397 0.342364 0.190818 -0.064800
C35   C     C_R   0.251665 0.444239 0.223131 -0.137257
C36   C     C_R   0.214344 0.475056 0.291375 -0.151099
C37   C     C_R   0.171646 0.400602 0.327803 -0.083960
C38   C     C_R   0.165624 0.186565 0.336699 -0.008645
H6    H     H_    0.268238 0.321641 0.137310 0.146958
H7    H     H_    0.056220 0.068576 0.208140 0.180384
H8    H     H_    0.285429 0.501783 0.194736 0.115669
H9    H     H_    0.217575 0.556881 0.316540 0.104178
H10   H     H_    0.135054 0.434133 0.379327 0.141279
H11   H     H_    0.496910 0.322278 0.332239 0.148744
C39   C     C_R   0.655911 0.171457 0.184984 0.006663
C40   C     C_R   0.719476 0.035659 0.204941 0.049317
C41   C     C_R   0.723851 0.004563 0.275156 0.046748
C42   C     C_R   0.561320 0.240623 0.298052 -0.126220
C43   C     C_R   0.574839 0.272388 0.231422 -0.149475
C44   C     C_R   0.788715 0.930381 0.156793 -0.051624
C45   C     C_R   0.886288 0.804300 0.178288 -0.109784
C46   C     C_R   0.906106 0.778400 0.247712 -0.113811
C47   C     C_R   0.818963 0.872280 0.295257 -0.046437
C48   C     C_R   0.637827 0.108331 0.321834 0.017675
H12   H     H_    0.773123 0.947072 0.102210 0.144776
H13   H     H_    0.527741 0.377032 0.217403 0.134885
H14   H     H_    0.946166 0.726595 0.141231 0.120452
H15   H     H_    0.981693 0.680704 0.264675 0.113894
H16   H     H_    0.833058 0.837157 0.346893 0.164672
O14   O     O_R   0.821500 0.119340 0.952830 -0.508455
O15   O     O_R   0.037130 0.162530 0.957360 -0.475755
C49   C     C_R   0.081892 0.230876 0.928665 0.564213
O16   O     O_R   0.056440 0.344740 0.951340 -0.508441
O17   O     O_R   0.797900 0.560360 0.957470 -0.497176
C50   C     C_R   0.683465 0.604687 0.929596 0.567920
O18   O     O_R   0.596130 0.579390 0.952730 -0.483958
O19   O     O_R   0.639060 0.321160 0.958670 -0.498016
C51   C     C_R   0.707868 0.206476 0.930257 0.542049
O20   O     O_R   0.821240 0.124200 0.104370 -0.524698
O21   O     O_R   0.036890 0.167040 0.097840 -0.476368
C52   C     C_R   0.085232 0.234096 0.124890 0.572004
O22   O     O_R   0.056180 0.349610 0.102880 -0.533384
O23   O     O_R   0.797660 0.564870 0.097950 -0.515549
C53   C     C_R   0.683029 0.612956 0.125142 0.597753
O24   O     O_R   0.595880 0.584250 0.104270 -0.493379
O25   O     O_R   0.638830 0.325670 0.099150 -0.507567
C54   C     C_R   0.704055 0.207897 0.124167 0.533466
Cr4   Cr    Cr6+3 0.926180 0.151990 0.028120 1.067031
Cr5   Cr    Cr6+3 0.921330 0.451820 0.027470 1.028504
Cr6   Cr    Cr6+3 0.626260 0.446870 0.028710 1.058195
O26   O     O_3   0.824590 0.350230 0.028100 -0.268857
N1    N     N_R   0.412761 0.861693 0.120318 0.077213
O27   O     O_R   0.318813 0.887434 0.075781 -0.342726
O28   O     O_R   0.492887 0.908324 0.109963 -0.369760
N2    N     N_R   0.065005 0.041203 0.343237 0.082215
O29   O     O_R   0.018545 0.973379 0.311793 -0.382933
O30   O     O_R   0.037714 0.067797 0.408083 -0.320069

loop_
_geom_bond_atom_site_label_1
_geom_bond_atom_site_label_2
_geom_bond_distance
_ccdc_geom_bond_type
C27   H5    1.081590 S    
C34   C35   1.392238 A    
C24   C25   1.399441 A    
Cr6   O26   1.978862 S    
C11   C13   1.202411 T    
O15   Cr4   1.934022 S    
O20   Cr4   2.050457 S    
C53   O24   1.273031 A    
O25   C54   1.277467 A    
C32   C38   1.402458 A    
O4    Cr2   1.927422 S    
C2    C10   1.424315 S    
O17   C50   1.273947 A    
C41   C48   1.427670 A    
C23   H2    1.083626 S    
O8    Cr1   1.933849 S    
C29   C33   1.413763 A    
C12   C13   1.407078 S    
C8    C10   1.200063 T    
O4    C2    1.275803 A    
N2    O29   1.300227 A    
C41   C47   1.417579 A    
C5    O11   1.246075 A    
C35   C36   1.388389 A    
C46   C47   1.391711 A    
C21   C28   1.430810 A    
C45   H14   1.082609 S    
O18   Cr6   2.040881 S    
C32   N2    1.443891 S    
O6    C3    1.274819 A    
C15   C51   1.427443 S    
C7    C50   1.424271 S    
C15   C17   1.201938 T    
C26   H4    1.077809 S    
C30   C34   1.415910 A    
C22   C28   1.385252 A    
O14   C51   1.265441 A    
C39   C40   1.413470 A    
C47   H16   1.070968 S    
O24   Cr6   2.052396 S    
C43   H13   1.083065 S    
O23   C53   1.265652 A    
C36   H9    1.077967 S    
C37   H10   1.082032 S    
O1    Cr1   2.052394 S    
C40   C41   1.414459 A    
O16   Cr5   2.051628 S    
O10   Cr2   1.934878 S    
C19   C23   1.410125 A    
Cr1   O13   1.976931 S    
O1    C3    1.269192 A    
C8    C9    1.403312 S    
C22   C23   1.383314 A    
C50   O18   1.269234 A    
O14   Cr4   2.049411 S    
C1    C18   1.427658 S    
C29   C30   1.402263 A    
C32   C33   1.400620 A    
O12   Cr3   1.918216 S    
C24   N1    1.440803 S    
C16   C18   1.201997 T    
H1    C22   1.083332 S    
C26   C27   1.392453 A    
C21   C27   1.415550 A    
C20   C21   1.396894 A    
C31   C38   1.434360 A    
C49   O16   1.269234 A    
O23   Cr5   1.933177 S    
O7    Cr1   2.043373 S    
Cr5   O26   1.987235 S    
O12   C6    1.304758 A    
C46   H15   1.075154 S    
N1    O28   1.301685 A    
C4    O9    1.288581 A    
O22   Cr5   2.036514 S    
C31   C37   1.417993 A    
C3    C14   1.428354 S    
C29   C52   1.464617 S    
Cr2   O13   1.978427 S    
C35   H8    1.082311 S    
C25   C26   1.388644 A    
C5    C28   1.459341 S    
C1    O3    1.266326 A    
C44   H12   1.082703 S    
O21   C52   1.271427 A    
C19   C20   1.403789 A    
O9    Cr2   2.045130 S    
O2    Cr1   1.928116 S    
O19   Cr6   1.935192 S    
C45   C46   1.383696 A    
O6    Cr3   1.933568 S    
O8    C4    1.308596 A    
O11   Cr3   2.051148 S    
C2    O5    1.269690 A    
C33   H7    1.081923 S    
C16   C17   1.406373 S    
C39   C54   1.465208 S    
C12   C14   1.202411 T    
O2    C1    1.270408 A    
C30   C31   1.398329 A    
O17   Cr5   1.919904 S    
O5    Cr3   2.036519 S    
C19   C53   1.444151 S    
C36   C37   1.389535 A    
C39   C43   1.393621 A    
N2    O30   1.301495 A    
O7    C6    1.248397 A    
H11   C42   1.082570 S    
C11   C49   1.428351 S    
C52   O22   1.278622 A    
C42   C48   1.406667 A    
C40   C44   1.415534 A    
C25   H3    1.081922 S    
C7    C9    1.200056 T    
C20   C24   1.424218 A    
C42   C43   1.385367 A    
C34   H6    1.082496 S    
O3    Cr2   2.052955 S    
C6    C38   1.481046 S    
C44   C45   1.385193 A    
Cr4   O26   1.976682 S    
O19   C51   1.272977 A    
O15   C49   1.275473 A    
C4    C48   1.476474 S    
N1    O27   1.301668 A    
O10   C5    1.301975 A    
O21   Cr4   1.929869 S    
Cr3   O13   1.987297 S    
O20   C54   1.262173 A    
O25   Cr6   1.923861 S    
