data_mof_unit_61796.cif
_audit_creation_date              2012-12-10T20:13:18-0500
_audit_creation_method            fapswitch 2.2
_symmetry_space_group_name_H-M    P1
_symmetry_Int_Tables_number       1
_space_group_crystal_system       triclinic
_cell_length_a                    19.288974
_cell_length_b                    18.498653
_cell_length_c                    15.749808
_cell_angle_alpha                 89.944215
_cell_angle_beta                  90.99353
_cell_angle_gamma                 90.035117
_cell_volume                      5618.99851744

loop_
_atom_site_label
_atom_site_type_symbol
_atom_type_description
_atom_site_fract_x
_atom_site_fract_y
_atom_site_fract_z
_atom_type_partial_charge
C1    C     C_R   0.365994 0.499985 0.500042 1.047551
C2    C     C_3   0.574141 0.499333 0.952369 -0.383222
C3    C     C_3   0.574330 0.499355 0.050282 -0.333289
C4    C     C_1   0.499006 0.499919 0.825962 -0.036578
C5    C     C_1   0.498910 0.500095 0.174086 0.038330
C6    C     C_1   0.499275 0.500086 0.249354 -0.079063
C7    C     C_R   0.745923 0.435632 0.489292 -0.287286
C8    C     C_R   0.745706 0.564697 0.517477 -0.296740
C9    C     C_R   0.818298 0.435269 0.490768 0.403786
C10   C     C_R   0.818060 0.565314 0.519896 0.404038
C11   C     C_R   0.853889 0.500387 0.506138 -0.009565
C12   C     C_R   0.709757 0.500133 0.502216 -0.118309
C13   C     C_R   0.964073 0.542903 0.447072 -0.100253
C14   C     C_R   0.965927 0.458641 0.565885 -0.098655
C15   C     C_R   0.499769 0.500029 0.338181 0.919884
C16   C     C_R   0.035878 0.542857 0.446818 -0.093378
C17   C     C_R   0.037766 0.458271 0.565276 -0.091855
C18   C     C_R   0.072445 0.500355 0.505709 0.227054
C19   C     C_R   0.929163 0.500789 0.506591 0.193001
C20   C     C_R   0.181352 0.461770 0.440350 0.345327
C21   C     C_R   0.184925 0.537726 0.567528 0.339369
C22   C     C_R   0.253559 0.462135 0.438457 0.284900
C23   C     C_R   0.257146 0.537550 0.566262 0.290426
C24   C     C_R   0.291152 0.499954 0.501513 -0.366002
C25   C     C_R   0.147464 0.499771 0.504668 -0.264499
C26   C     C_R   0.544800 0.731367 0.547870 0.580545
C27   C     C_R   0.544748 0.268610 0.547941 0.569873
C28   C     C_R   0.542685 0.806986 0.541646 -0.219014
C29   C     C_R   0.542646 0.192996 0.541702 -0.220755
C30   C     C_R   0.494779 0.841588 0.487252 0.016783
C31   C     C_R   0.494811 0.158429 0.487209 0.011154
C32   C     C_R   0.634407 0.500027 0.500460 0.910118
C33   C     C_R   0.448760 0.797687 0.440124 -0.242886
C34   C     C_R   0.448885 0.202350 0.439951 -0.240198
C35   C     C_R   0.452500 0.721897 0.447158 0.005988
C36   C     C_R   0.452625 0.278127 0.446991 0.000584
C37   C     C_R   0.431330 0.961885 0.473872 -0.149277
C38   C     C_R   0.431339 0.038093 0.473854 -0.152087
C39   C     C_R   0.493898 0.077285 0.480630 0.137791
C40   C     C_R   0.493880 0.922746 0.480658 0.137230
C41   C     C_R   0.556345 0.037930 0.484249 -0.159895
C42   C     C_R   0.556337 0.962164 0.484256 -0.162036
C43   C     C_R   0.499974 0.499972 0.661882 0.923130
C44   C     C_3   0.460689 0.568571 0.047810 0.189619
C45   C     C_3   0.459482 0.432197 0.048048 0.201378
C46   C     C_3   0.460367 0.432064 0.949780 -0.417023
C47   C     C_3   0.461523 0.568545 0.949540 -0.397473
C48   C     C_1   0.499456 0.499920 0.750705 -0.110048
C49   C     C_3   0.498763 0.500055 0.082538 0.116975
C50   C     C_3   0.498683 0.499962 0.917330 0.180424
H1    H     H_    0.407276 0.570083 0.924243 0.182804
H2    H     H_    0.406115 0.431406 0.924450 0.174961
H3    H     H_    0.063016 0.575390 0.400775 0.162405
H4    H     H_    0.066377 0.425440 0.610826 0.163044
H5    H     H_    0.578170 0.838517 0.580719 0.169468
H6    H     H_    0.578083 0.161440 0.580834 0.170078
H7    H     H_    0.411055 0.821562 0.396825 0.165651
H8    H     H_    0.411260 0.178502 0.396543 0.175339
H9    H     H_    0.417458 0.688790 0.409507 0.164854
H10   H     H_    0.417703 0.311238 0.409193 0.204185
H11   H     H_    0.382163 0.933656 0.471428 0.150293
H12   H     H_    0.382181 0.066280 0.471391 0.150307
H13   H     H_    0.605691 0.065811 0.487200 0.146965
H14   H     H_    0.605679 0.934335 0.487203 0.146744
H15   H     H_    0.405793 0.567368 0.068510 0.129019
H16   H     H_    0.404606 0.434437 0.068701 0.135839
H17   H     H_    0.486208 0.382559 0.925658 0.234757
H18   H     H_    0.488166 0.617574 0.925200 0.237161
H19   H     H_    0.603381 0.547305 0.074364 0.218510
H20   H     H_    0.602509 0.450889 0.074487 0.217941
H21   H     H_    0.602686 0.547625 0.929225 0.198699
H22   H     H_    0.601880 0.450557 0.929350 0.197991
H23   H     H_    0.718009 0.385746 0.477173 0.184481
H24   H     H_    0.717641 0.614472 0.528280 0.190812
H25   H     H_    0.935661 0.575214 0.400821 0.162109
H26   H     H_    0.938945 0.426283 0.612228 0.163240
N1    N     N_R   0.499980 0.689440 0.500010 -0.155563
N2    N     N_R   0.499980 0.310560 0.500010 -0.164403
O1    O     O_R   0.398180 0.560840 0.500000 -0.595623
O2    O     O_R   0.398180 0.439160 0.500000 -0.598379
O3    O     O_R   0.500010 0.560840 0.377160 -0.619482
O4    O     O_R   0.500010 0.439160 0.377160 -0.599806
O5    O     O_R   0.601820 0.560790 0.500040 -0.643332
O6    O     O_R   0.601820 0.439210 0.500040 -0.641976
O7    O     O_R   0.500000 0.560790 0.622880 -0.616381
O8    O     O_R   0.500000 0.439210 0.622880 -0.642916
Zn1   Zn    Zn3+2 0.500000 0.581210 0.500030 0.991598
Zn2   Zn    Zn3+2 0.500000 0.418790 0.500030 0.984620
Cl1   Cl    Cl    0.133332 0.413036 0.362575 -0.481077
Cl2   Cl    Cl    0.141344 0.586393 0.647237 -0.482287
Cl3   Cl    Cl    0.296483 0.417507 0.354988 -0.534074
Cl4   Cl    Cl    0.304687 0.582313 0.647829 -0.507015
O9    O     O_3   0.593088 0.701980 0.603069 -0.778827
H27   H     H_    0.585846 0.649501 0.605232 0.372536
O10   O     O_3   0.592986 0.297974 0.603200 -0.773533
H28   H     H_    0.585725 0.350440 0.605361 0.375390
Cl5   Cl    Cl    0.494531 0.349034 0.089387 -0.570141
Cl6   Cl    Cl    0.497260 0.651133 0.088791 -0.582511
O11   O     O_3   0.855302 0.372711 0.475849 -0.740549
H29   H     H_    0.822434 0.332189 0.466134 0.349379
O12   O     O_3   0.854831 0.628026 0.536617 -0.740405
H30   H     H_    0.821816 0.668405 0.544767 0.351229

loop_
_geom_bond_atom_site_label_1
_geom_bond_atom_site_label_2
_ccdc_geom_bond_type
C44   C49   S    
O5    Zn1   S    
O9    H27   S    
C27   C29   A    
C41   C42   A    
C27   O10   S    
O10   H28   S    
C27   N2    A    
O1    Zn1   S    
C3    C49   S    
C7    H23   S    
C45   C46   S    
C11   C19   S    
O12   H30   S    
C3    H19   S    
C37   C40   A    
C5    C6    T    
O8    Zn2   S    
C20   C25   A    
C46   H2    S    
C35   H9    S    
C16   H3    S    
C2    C50   S    
C6    C15   S    
C44   Cl6   S    
C13   H25   S    
C22   Cl3   S    
C15   O4    A    
C43   C48   S    
C44   C47   S    
C26   O9    S    
C40   C42   A    
C9    O11   S    
C12   C32   S    
C29   C31   A    
C14   C17   A    
C5    C49   S    
C44   H15   S    
C18   C25   S    
C2    H22   S    
C28   H5    S    
C47   C50   S    
C21   Cl2   S    
O7    Zn1   S    
C7    C12   A    
C32   O6    A    
C26   N1    A    
C13   C19   A    
C43   O7    A    
C3    H20   S    
C15   O3    A    
C47   H1    S    
C35   N1    A    
C4    C50   S    
C14   H26   S    
C37   C38   A    
O11   H29   S    
C45   C49   S    
C8    C12   A    
C8    H24   S    
C17   C18   A    
C31   C34   A    
C30   C40   S    
C9    C11   A    
N1    Zn1   S    
O3    Zn1   S    
C8    C10   A    
C20   C22   A    
C21   C23   A    
C1    O1    A    
C22   C24   A    
C41   H13   S    
C2    H21   S    
C42   H14   S    
C47   H18   S    
C4    C48   T    
N2    Zn2   S    
C7    C9    A    
C32   O5    A    
C21   C25   A    
C33   H7    S    
C30   C33   A    
C43   O8    A    
C14   C19   A    
C10   O12   S    
O6    Zn2   S    
C36   H10   S    
C37   H11   S    
C29   H6    S    
C20   Cl1   S    
C46   C50   S    
C26   C28   A    
C28   C30   A    
C2    C3    S    
C46   H17   S    
O2    Zn2   S    
C45   Cl5   S    
C38   C39   A    
O4    Zn2   S    
C33   C35   A    
C31   C39   S    
C34   C36   A    
C10   C11   A    
C23   C24   A    
C39   C41   A    
C1    C24   S    
C16   C18   A    
C13   C16   A    
C45   H16   S    
C34   H8    S    
C1    O2    A    
C23   Cl4   S    
C36   N2    A    
C17   H4    S    
C38   H12   S    
