data_mof_unit_29962.cif
_audit_creation_date              2013-03-05T16:01:28-0500
_audit_creation_method            fapswitch 2.2
_symmetry_space_group_name_H-M    P1
_symmetry_Int_Tables_number       1
_space_group_crystal_system       triclinic
_cell_length_a                    14.659504
_cell_length_b                    14.645042
_cell_length_c                    19.336048
_cell_angle_alpha                 77.386213
_cell_angle_beta                  102.854662
_cell_angle_gamma                 115.193394
_cell_volume                      3626.04729677

loop_
_atom_site_label
_atom_site_type_symbol
_atom_site_description
_atom_site_fract_x
_atom_site_fract_y
_atom_site_fract_z
_atom_type_partial_charge
O1    O     O_R   0.977910 0.338110 0.524620 -0.620601
O2    O     O_R   0.022090 0.661890 0.475380 -0.592656
O3    O     O_R   0.839850 0.379180 0.493080 -0.531843
O4    O     O_R   0.160150 0.620820 0.506920 -0.566167
C1    C     C_R   0.879767 0.311849 0.515286 0.794252
C2    C     C_R   0.120037 0.688051 0.487277 0.857959
O5    O     O_R   0.069040 0.479450 0.615630 -0.564009
O6    O     O_R   0.930960 0.520550 0.384370 -0.570869
O7    O     O_R   0.930990 0.520520 0.584090 -0.542363
O8    O     O_R   0.069010 0.479480 0.415910 -0.534222
C3    C     C_R   0.997947 0.497791 0.632525 0.842549
C4    C     C_R   0.998314 0.496126 0.367587 0.894994
Cu1   Cu    Cu3+1 0.081740 0.475680 0.518680 0.969593
Cu2   Cu    Cu3+1 0.918260 0.524320 0.481320 0.994873
C5    C     C_R   0.020662 0.417561 0.759836 0.426260
C6    C     C_R   0.928540 0.515622 0.236422 0.403949
C7    C     C_R   0.022810 0.415862 0.832511 -0.269050
C8    C     C_R   0.926022 0.504871 0.165971 -0.270280
H1    H     H_    0.049057 0.363265 0.871273 0.198710
H2    H     H_    0.879954 0.535199 0.123595 0.202027
C9    C     C_R   0.985725 0.476204 0.855220 -0.183074
C10   C     C_R   0.984195 0.459785 0.149454 -0.171015
C11   C     C_R   0.946921 0.540840 0.804374 0.278976
C12   C     C_R   0.045655 0.422893 0.205171 0.267939
C13   C     C_R   0.951247 0.548537 0.731116 0.301984
C14   C     C_R   0.048232 0.432539 0.276674 0.308994
C15   C     C_R   0.990593 0.488632 0.708770 -0.275846
C16   C     C_R   0.992774 0.482949 0.292500 -0.266141
N1    N     N_R   0.899389 0.457822 0.955516 -0.153145
N2    N     N_R   0.067303 0.466473 0.049620 -0.144025
N3    N     N_R   0.899116 0.453521 0.024865 -0.220446
N4    N     N_R   0.067495 0.470318 0.980267 -0.206042
C17   C     C_R   0.983081 0.457861 0.073291 0.502370
C18   C     C_R   0.983816 0.467032 0.931995 0.495751
C19   C     C_R   0.812165 0.202624 0.529014 -0.144856
C20   C     C_R   0.187288 0.795600 0.490577 -0.115966
C21   C     C_R   0.783763 0.027174 0.529922 -0.148700
C22   C     C_R   0.223305 0.943964 0.544019 -0.169248
C23   C     C_R   0.848651 0.129367 0.527128 -0.305418
C24   C     C_R   0.153682 0.855099 0.517686 -0.281263
C25   C     C_R   0.711131 0.171156 0.542062 0.326221
C26   C     C_R   0.290016 0.833790 0.480125 0.274356
C27   C     C_R   0.643710 0.066219 0.545618 -0.065661
C28   C     C_R   0.363121 0.913176 0.518925 -0.043535
C29   C     C_R   0.680395 0.995355 0.535120 0.033681
C30   C     C_R   0.328071 0.969589 0.549880 0.028913
C31   C     C_R   0.539150 0.029788 0.553937 -0.006295
C32   C     C_R   0.469587 0.937119 0.529117 0.016684
C33   C     C_R   0.508212 0.867383 0.521472 -0.207393
C34   C     C_R   0.502115 0.078838 0.589220 -0.189957
C35   C     C_R   0.613456 0.893529 0.529621 0.479744
C36   C     C_R   0.397882 0.047578 0.589194 0.437574
H3    H     H_    0.073992 0.830079 0.522142 0.175264
H4    H     H_    0.926930 0.151720 0.520261 0.179298
H5    H     H_    0.814147 0.973805 0.524528 0.192587
H6    H     H_    0.195246 0.988301 0.564869 0.175130
H7    H     H_    0.456855 0.791191 0.511505 0.159718
H8    H     H_    0.552952 0.137570 0.621226 0.219889
N5    N     N_R   0.795420 0.560800 0.453240 -0.201030
N6    N     N_R   0.204580 0.439200 0.546760 -0.201000
C37   C     C_R   0.709440 0.656749 0.372665 -0.257153
C38   C     C_R   0.296003 0.351210 0.630269 -0.217366
C39   C     C_R   0.792807 0.630021 0.394377 0.046057
C40   C     C_R   0.208575 0.370552 0.605687 0.053721
C41   C     C_R   0.718954 0.518244 0.493746 0.116891
C42   C     C_R   0.282983 0.486721 0.507830 0.050344
C43   C     C_R   0.631466 0.542060 0.474809 -0.054186
C44   C     C_R   0.374468 0.469925 0.529468 -0.059735
C45   C     C_R   0.627466 0.612872 0.412227 0.030989
C46   C     C_R   0.381614 0.403807 0.594421 0.029235
C47   C     C_R   0.548352 0.497266 0.515372 -0.002315
C48   C     C_R   0.458707 0.517422 0.489766 -0.014392
C49   C     C_R   0.457412 0.586823 0.426501 -0.238294
C50   C     C_R   0.554318 0.436681 0.582320 -0.214523
C51   C     C_R   0.540980 0.636668 0.389492 0.353777
C52   C     C_R   0.473798 0.391547 0.622202 0.346397
H9    H     H_    0.271902 0.537979 0.460986 0.180349
H10   H     H_    0.728067 0.465186 0.539611 0.195000
H11   H     H_    0.144264 0.332072 0.634564 0.156977
H12   H     H_    0.855436 0.663873 0.363598 0.173109
H13   H     H_    0.709193 0.709948 0.324192 0.194554
H14   H     H_    0.295541 0.295117 0.677137 0.191038
H15   H     H_    0.393614 0.607805 0.405419 0.203380
H16   H     H_    0.623679 0.427563 0.607513 0.206957
O9    O     O_3   0.048731 0.348965 0.739830 -0.594898
C53   C     C_3   0.960816 0.269440 0.710887 0.065953
H17   H     H_    0.983456 0.241830 0.671046 0.159451
H18   H     H_    0.898866 0.294372 0.681419 0.149619
C54   C     C_3   0.919315 0.180027 0.769316 -0.345553
H19   H     H_    0.980871 0.154350 0.797708 0.238240
H20   H     H_    0.892956 0.204824 0.808756 0.228908
C55   C     C_3   0.830147 0.090915 0.737339 -0.870182
H21   H     H_    0.767111 0.114619 0.709451 0.266226
H22   H     H_    0.801302 0.027279 0.780743 0.266100
H23   H     H_    0.854957 0.063282 0.698636 0.254069
O10   O     O_3   0.875011 0.567279 0.248783 -0.579336
C56   C     C_3   0.769783 0.503532 0.244379 0.051504
H24   H     H_    0.751481 0.471944 0.299681 0.186023
H25   H     H_    0.745411 0.437760 0.214425 0.134671
C57   C     C_3   0.708098 0.567145 0.207352 -0.354165
H26   H     H_    0.737765 0.638597 0.231251 0.233970
H27   H     H_    0.716830 0.588157 0.149666 0.234382
C58   C     C_3   0.595290 0.508869 0.214415 -0.794060
H28   H     H_    0.563691 0.437302 0.190309 0.265860
H29   H     H_    0.552666 0.556654 0.186078 0.281083
H30   H     H_    0.584760 0.490217 0.271734 0.261451
N7    N     N_R   0.536566 0.712451 0.328993 0.127331
O11   O     O_R   0.453902 0.695152 0.282532 -0.285902
O12   O     O_R   0.606464 0.804683 0.327714 -0.317881
N8    N     N_R   0.490007 0.338759 0.692916 0.109380
O13   O     O_R   0.549079 0.289323 0.705963 -0.343831
O14   O     O_R   0.464860 0.358131 0.746856 -0.359967
N9    N     N_R   0.905954 0.601243 0.826652 0.140772
O15   O     O_R   0.960062 0.662034 0.874048 -0.356863
O16   O     O_R   0.817209 0.600674 0.796248 -0.328116
N10   N     N_R   0.103425 0.372890 0.190296 0.139165
O17   O     O_R   0.058282 0.295702 0.154580 -0.346617
O18   O     O_R   0.198274 0.396693 0.219158 -0.275052
O19   O     O_3   0.909526 0.608699 0.680867 -0.565435
C59   C     C_3   0.978677 0.711901 0.676980 0.089322
H31   H     H_    0.033818 0.726598 0.640529 0.120532
H32   H     H_    0.022344 0.733611 0.730183 0.154425
C60   C     C_3   0.917737 0.778097 0.647039 -0.280408
H33   H     H_    0.880545 0.764102 0.591406 0.219000
H34   H     H_    0.857441 0.756213 0.680641 0.256992
C61   C     C_3   0.984238 0.891242 0.647411 -0.949935
H35   H     H_    0.022271 0.906627 0.702598 0.273321
H36   H     H_    0.936209 0.935878 0.627816 0.257486
H37   H     H_    0.042443 0.916352 0.611682 0.244834
O20   O     O_3   0.107647 0.394704 0.331030 -0.548203
C62   C     C_3   0.051796 0.289483 0.350895 0.104554
H38   H     H_    0.036596 0.246622 0.305758 0.186036
H39   H     H_    0.977771 0.275465 0.366766 0.105057
C63   C     C_3   0.114037 0.249660 0.414915 -0.293026
H40   H     H_    0.193697 0.276717 0.404547 0.256673
H41   H     H_    0.115727 0.280011 0.463245 0.221044
C64   C     C_3   0.068984 0.133349 0.429237 -0.897698
H42   H     H_    0.987398 0.103410 0.435431 0.250787
H43   H     H_    0.111166 0.107466 0.479193 0.258372
H44   H     H_    0.075745 0.101796 0.384225 0.283241
O21   O     O_3   0.652599 0.824073 0.524899 -0.602622
C65   C     C_3   0.616299 0.733033 0.573341 0.037984
H45   H     H_    0.656255 0.685797 0.568292 0.185637
H46   H     H_    0.533863 0.688024 0.558342 0.146130
C66   C     C_3   0.639306 0.750747 0.652078 -0.473102
H47   H     H_    0.720548 0.801804 0.665010 0.236185
H48   H     H_    0.591784 0.787996 0.661221 0.214142
C67   C     C_3   0.615953 0.649858 0.702135 -0.717680
H49   H     H_    0.533702 0.599994 0.691577 0.251473
H50   H     H_    0.635038 0.664381 0.758651 0.279876
H51   H     H_    0.661603 0.609923 0.694091 0.282814
O22   O     O_3   0.363997 0.097347 0.624544 -0.606365
C68   C     C_3   0.375609 0.063289 0.699201 0.109270
H52   H     H_    0.377666 0.123216 0.726858 0.222830
H53   H     H_    0.448733 0.053472 0.719787 0.143194
C69   C     C_3   0.284826 0.964663 0.719180 -0.462960
H54   H     H_    0.212964 0.976020 0.698061 0.234234
H55   H     H_    0.283181 0.901638 0.695078 0.218782
C70   C     C_3   0.291125 0.934032 0.800169 -0.812706
H56   H     H_    0.361939 0.921018 0.822575 0.262365
H57   H     H_    0.224521 0.862410 0.812609 0.263110
H58   H     H_    0.290312 0.994512 0.825815 0.269276
N11   N     N_R   0.315837 0.807088 0.421359 0.110470
O23   O     O_R   0.384808 0.876472 0.384398 -0.283162
O24   O     O_R   0.258712 0.722417 0.395398 -0.363362
N12   N     N_R   0.677002 0.247003 0.547654 0.093695
O25   O     O_R   0.611675 0.269305 0.496947 -0.352864
O26   O     O_R   0.713221 0.295221 0.603226 -0.424286

loop_
_geom_bond_atom_site_label_1
_geom_bond_atom_site_label_2
_geom_bond_distance
_ccdc_geom_bond_type
C6    C16   1.412125 A    
C42   C44   1.421418 A    
C51   N7    1.436942 S    
C61   H35   1.110701 S    
C49   C51   1.395119 A    
C20   C26   1.410847 A    
N11   O23   1.302018 A    
C67   H51   1.110560 S    
C62   C63   1.529760 S    
C66   C67   1.526210 S    
C63   C64   1.527081 S    
C56   H24   1.111487 S    
C60   H33   1.112050 S    
Cu1   N6    2.019980 S    
O9    C53   1.420030 S    
O5    C3    1.301212 A    
Cu2   N5    2.019982 S    
C64   H43   1.110397 S    
C50   C52   1.393937 A    
C4    C16   1.486055 S    
O1    C1    1.301587 A    
C69   H54   1.110082 S    
N11   O24   1.300638 A    
C12   C14   1.410834 A    
C53   H18   1.115305 S    
C60   H34   1.108879 S    
C23   H4    1.081966 S    
C29   C35   1.405373 A    
C30   C36   1.402731 A    
C33   H7    1.078508 S    
N10   O17   1.301343 A    
C38   C46   1.407019 A    
O4    Cu1   1.927741 S    
C37   C39   1.389328 A    
N8    O13   1.301725 A    
C55   H21   1.111236 S    
C38   C40   1.388527 A    
C66   H48   1.111141 S    
C31   C32   1.414408 A    
C28   C30   1.420929 A    
C33   C35   1.402500 A    
C34   C36   1.395920 A    
N7    O11   1.301305 A    
C70   H57   1.110759 S    
C54   H20   1.111001 S    
C43   C47   1.431799 A    
C14   O20   1.385470 S    
C59   C60   1.528094 S    
O6    C4    1.304650 A    
C5    O9    1.385873 S    
C11   C13   1.409758 A    
C38   H14   1.081198 S    
N6    C42   1.359098 A    
C22   C24   1.386376 A    
Cu1   Cu2   2.689041 S    
C25   N12   1.430216 S    
N12   O26   1.301360 A    
C25   C27   1.426286 A    
C65   C66   1.538989 S    
O2    C2    1.297904 A    
C26   C28   1.423195 A    
C10   C17   1.475447 S    
N1    N3    1.329423 A    
O2    Cu2   1.937792 S    
C13   O19   1.383789 S    
C55   H22   1.110188 S    
C56   H25   1.117812 S    
C59   H32   1.116125 S    
C66   H47   1.109517 S    
C31   C34   1.409649 A    
C39   H12   1.081515 S    
C35   O21   1.390344 S    
C64   H44   1.110810 S    
C6    O10   1.383137 S    
N3    C17   1.357356 A    
C34   H8    1.076919 S    
C20   C24   1.398783 A    
C67   H49   1.111205 S    
O4    C2    1.299887 A    
C50   H16   1.075079 S    
C53   H17   1.109578 S    
C60   C61   1.524130 S    
C63   H41   1.110506 S    
C9    C18   1.466572 S    
C61   H37   1.106691 S    
C41   C43   1.420107 A    
N1    C18   1.355875 A    
O8    Cu1   1.944808 S    
C57   C58   1.526376 S    
C7    C9    1.397854 A    
C44   C48   1.433684 A    
C43   C45   1.419626 A    
N4    C18   1.355811 A    
C19   C23   1.397380 A    
O7    Cu2   1.944808 S    
C2    C20   1.466543 S    
C11   N9    1.436164 S    
O7    C3    1.297816 A    
C5    C15   1.414451 A    
C70   H56   1.110826 S    
C3    C15   1.474855 S    
C36   O22   1.386400 S    
O10   C56   1.417257 S    
C57   H27   1.111441 S    
C70   H58   1.110850 S    
C22   H6    1.081117 S    
C58   H29   1.110340 S    
C54   C55   1.527944 S    
C61   H36   1.109758 S    
C27   C29   1.422392 A    
O3    Cu2   1.927739 S    
O8    C4    1.300489 A    
C52   N8    1.440090 S    
C32   C33   1.407477 A    
C12   N10   1.436852 S    
C9    C11   1.410449 A    
C46   C52   1.410122 A    
N12   O25   1.301451 A    
C40   H11   1.078274 S    
C10   C12   1.411605 A    
C68   H53   1.115603 S    
C21   C29   1.403426 A    
C62   H38   1.113124 S    
O3    C1    1.301395 A    
C56   C57   1.528410 S    
C59   H31   1.111600 S    
N9    O15   1.301286 A    
C37   C45   1.406808 A    
C5    C7    1.393570 A    
C42   H9    1.073176 S    
O6    Cu2   1.939380 S    
C41   H10   1.069028 S    
N2    C17   1.357726 A    
C8    C10   1.399250 A    
C14   C16   1.421237 A    
C69   C70   1.525212 S    
C67   H50   1.110187 S    
C48   C49   1.411698 A    
C62   H39   1.115758 S    
C53   C54   1.530585 S    
C47   C50   1.408786 A    
O19   C59   1.413334 S    
C63   H40   1.111941 S    
C13   C15   1.412905 A    
C64   H42   1.109670 S    
N5    C39   1.354374 A    
N6    C40   1.353722 A    
C69   H55   1.110675 S    
O20   C62   1.414129 S    
C54   H19   1.111476 S    
C47   C48   1.426941 A    
C21   C23   1.386792 A    
C37   H13   1.080492 S    
O21   C65   1.417920 S    
N5    C41   1.356869 A    
N2    N4    1.330437 A    
C26   N11   1.448753 S    
N7    O12   1.301311 A    
C1    C19   1.480984 S    
C68   C69   1.534652 S    
C57   H26   1.109960 S    
C7    H1    1.083965 S    
N10   O18   1.301287 A    
C45   C51   1.408327 A    
C58   H30   1.111223 S    
C8    H2    1.083941 S    
C55   H23   1.111208 S    
C19   C25   1.415661 A    
N8    O14   1.301374 A    
C22   C30   1.401028 A    
C21   H5    1.082955 S    
O5    Cu1   1.939381 S    
O1    Cu1   1.937791 S    
O22   C68   1.417789 S    
C6    C8    1.395774 A    
C24   H3    1.083054 S    
C58   H28   1.111000 S    
C44   C46   1.422186 A    
C65   H45   1.109533 S    
C68   H52   1.110142 S    
C27   C31   1.426881 A    
C49   H15   1.074993 S    
C65   H46   1.108322 S    
C28   C32   1.423060 A    
N9    O16   1.300292 A    
