data_mof_unit_53774.cif
_audit_creation_date              2012-12-10T19:46:25-0500
_audit_creation_method            fapswitch 2.2
_symmetry_space_group_name_H-M    P1
_symmetry_Int_Tables_number       1
_space_group_crystal_system       triclinic
_cell_length_a                    10.884367
_cell_length_b                    10.876783
_cell_length_c                    10.417937
_cell_angle_alpha                 91.303409
_cell_angle_beta                  90.841851
_cell_angle_gamma                 89.768253
_cell_volume                      1232.88653727

loop_
_atom_site_label
_atom_site_type_symbol
_atom_type_description
_atom_site_fract_x
_atom_site_fract_y
_atom_site_fract_z
_atom_type_partial_charge
C1    C     C_R   0.502790 0.261450 0.498523 0.796478
C2    C     C_R   0.526154 0.861412 0.829798 -0.093908
C3    C     C_R   0.579171 0.110450 0.266087 0.140481
C4    C     C_R   0.434736 0.889484 0.738859 0.130134
C5    C     C_R   0.700464 0.152643 0.259787 -0.216623
C6    C     C_R   0.310606 0.879217 0.771046 -0.255402
C7    C     C_R   0.749094 0.187844 0.142187 0.055267
C8    C     C_R   0.277550 0.841043 0.893617 0.058844
C9    C     C_R   0.673520 0.185220 0.031481 -0.115961
C10   C     C_R   0.370168 0.811365 0.983355 -0.112883
C11   C     C_R   0.529592 0.930477 0.390916 -0.236055
C12   C     C_R   0.498051 0.738583 0.501611 0.807784
C13   C     C_R   0.471186 0.069591 0.609426 -0.242096
C14   C     C_R   0.498123 0.872085 0.504099 -0.088137
C15   C     C_R   0.503642 0.127959 0.496515 -0.089745
C16   C     C_R   0.261447 0.497216 0.498609 0.799029
C17   C     C_R   0.738552 0.502227 0.501308 0.798613
C18   C     C_R   0.468965 0.942561 0.615149 0.004376
C19   C     C_R   0.534336 0.057525 0.386002 0.004738
C20   C     C_1   0.499946 0.499888 0.071917 0.070661
C21   C     C_1   0.499876 0.499859 0.928078 0.080668
C22   C     C_R   0.138134 0.495024 0.030959 -0.085179
C23   C     C_R   0.872038 0.502306 0.503427 -0.082556
C24   C     C_R   0.812363 0.514469 0.951481 -0.119291
C25   C     C_R   0.092839 0.523838 0.152916 -0.101500
C26   C     C_R   0.856955 0.477119 0.831427 -0.081650
C27   C     C_R   0.113050 0.443631 0.255060 0.093859
C28   C     C_R   0.886773 0.565248 0.740670 0.111418
C29   C     C_R   0.177654 0.333252 0.232834 -0.094142
C30   C     C_R   0.872528 0.690669 0.771695 -0.167556
C31   C     C_R   0.222103 0.304551 0.110379 -0.070438
C32   C     C_R   0.829355 0.727482 0.892413 -0.111270
C33   C     C_R   0.202579 0.385370 0.009661 -0.100118
C34   C     C_R   0.127927 0.495320 0.496214 -0.080950
C35   C     C_R   0.799075 0.639458 0.982129 -0.125974
C36   C     C_R   0.931505 0.475925 0.387810 -0.255109
C37   C     C_R   0.068298 0.522417 0.611702 -0.237741
C38   C     C_2   0.880057 0.221706 0.136058 0.302408
C39   C     C_2   0.146332 0.836410 0.927243 0.313698
C40   C     C_R   0.941320 0.527207 0.616757 -0.002205
C41   C     C_R   0.058655 0.472018 0.382143 -0.001183
C42   C     C_R   0.552229 0.144416 0.037997 -0.184939
C43   C     C_R   0.493866 0.821570 0.951245 -0.185168
C44   C     C_R   0.505895 0.104935 0.154336 -0.142364
Cu1   Cu    Cu3+1 0.500000 0.500000 0.625300 0.975807
Cu2   Cu    Cu3+1 0.500000 0.500000 0.374700 0.975372
H1    H     H_    0.236785 0.362688 0.914959 0.126071
H2    H     H_    0.868586 0.380064 0.809214 0.150364
H3    H     H_    0.192101 0.269146 0.309716 0.105257
H4    H     H_    0.896682 0.759687 0.703211 0.116471
H5    H     H_    0.270283 0.218996 0.092887 0.118946
H6    H     H_    0.820133 0.824308 0.916765 0.135874
H7    H     H_    0.878649 0.456829 0.300574 0.156928
H8    H     H_    0.120792 0.543117 0.698819 0.156067
H9    H     H_    0.708678 0.212749 0.939804 0.154543
H10   H     H_    0.347070 0.781638 0.078516 0.170065
H11   H     H_    0.494984 0.140595 0.952151 0.140514
H12   H     H_    0.765523 0.668017 0.075489 0.128129
H13   H     H_    0.564727 0.800295 0.021317 0.136408
H14   H     H_    0.413778 0.068047 0.157270 0.129862
H15   H     H_    0.622044 0.872219 0.806793 0.122546
H16   H     H_    0.935278 0.227119 0.223515 0.077009
H17   H     H_    0.076438 0.857286 0.855598 0.071742
H18   H     H_    0.758249 0.153120 0.345466 0.107054
H19   H     H_    0.240074 0.903950 0.701645 0.120817
H20   H     H_    0.554417 0.876904 0.305973 0.159205
H21   H     H_    0.446864 0.123095 0.694556 0.157640
H22   H     H_    0.122171 0.557034 0.952640 0.148802
H23   H     H_    0.788354 0.446878 0.021199 0.152705
H24   H     H_    0.041279 0.608177 0.167812 0.170976
N1    N     N_1   0.500010 0.499990 0.186410 -0.144615
N2    N     N_1   0.499990 0.500010 0.813590 -0.142700
O1    O     O_R   0.499990 0.319650 0.605810 -0.589974
O2    O     O_2   0.114621 0.810944 0.035333 -0.572257
O3    O     O_R   0.500010 0.680350 0.394190 -0.587169
O4    O     O_R   0.499990 0.319640 0.394190 -0.569364
O5    O     O_R   0.500010 0.680360 0.605810 -0.565585
O6    O     O_R   0.319640 0.500010 0.605810 -0.586914
O7    O     O_R   0.680360 0.499990 0.394190 -0.588334
O8    O     O_R   0.319650 0.500010 0.394190 -0.567568
O9    O     O_R   0.680350 0.499990 0.605810 -0.571070
O10   O     O_2   0.928398 0.241667 0.033642 -0.567936

loop_
_geom_bond_atom_site_label_1
_geom_bond_atom_site_label_2
_ccdc_geom_bond_type
C30   C32   A    
C27   C29   A    
C34   C37   A    
C14   C18   A    
Cu2   O4    S    
C29   H3    S    
Cu1   Cu2   S    
C15   C19   A    
C11   C19   A    
C9    C42   A    
C17   C23   S    
C13   C18   A    
C35   H12   S    
C24   C26   A    
C37   C40   A    
Cu2   O7    S    
C11   C14   A    
C28   C40   S    
C23   C40   A    
C17   O7    A    
Cu1   O1    S    
C39   O2    D    
C32   H6    S    
C36   H7    S    
C16   C34   S    
C6    H19   S    
C22   C25   A    
C31   C33   A    
C20   N1    T    
C3    C19   S    
Cu1   O6    S    
C1    C15   S    
C8    C39   S    
C10   H10   S    
C16   O6    A    
C2    H15   S    
C43   H13   S    
C4    C18   S    
C30   H4    S    
C38   O10   D    
Cu1   N2    S    
C36   C41   A    
C34   C41   A    
C42   C44   A    
C42   H11   S    
Cu2   O3    S    
C24   H23   S    
C3    C44   A    
C24   C35   A    
C21   N2    T    
C32   C35   A    
C4    C6    A    
C5    C7    A    
C6    C8    A    
C5    H18   S    
C16   O8    A    
C2    C4    A    
C27   C41   S    
C2    C43   A    
C12   O5    A    
C22   H22   S    
Cu2   N1    S    
C9    H9    S    
C37   H8    S    
C12   C14   S    
C13   C15   A    
C33   H1    S    
C13   H21   S    
C7    C9    A    
C22   C33   A    
C10   C43   A    
C1    O4    A    
Cu1   O9    S    
C31   H5    S    
C3    C5    A    
C11   H20   S    
C26   H2    S    
C25   C27   A    
C39   H17   S    
C26   C28   A    
C1    O1    A    
C28   C30   A    
C29   C31   A    
Cu2   O8    S    
C44   H14   S    
C7    C38   S    
C17   O9    A    
C20   C21   S    
C8    C10   A    
C23   C36   A    
C12   O3    A    
Cu1   O5    S    
C25   H24   S    
C38   H16   S    
