data_mof_unit_11499.cif
_audit_creation_date              2012-12-11T17:41:49-0500
_audit_creation_method            fapswitch 2.2
_symmetry_space_group_name_H-M    P1
_symmetry_Int_Tables_number       1
_space_group_crystal_system       monoclinic
_cell_length_a                    7.227109
_cell_length_b                    23.816043
_cell_length_c                    26.172067
_cell_angle_alpha                 90.011434
_cell_angle_beta                  90.0
_cell_angle_gamma                 90.0
_cell_volume                      4504.76588473

loop_
_atom_site_label
_atom_site_type_symbol
_atom_type_description
_atom_site_fract_x
_atom_site_fract_y
_atom_site_fract_z
_atom_type_partial_charge
O1    O     O_R   0.607880 0.800910 0.198150 -0.535269
O2    O     O_R   0.392120 0.199090 0.801850 -0.533710
O3    O     O_R   0.392120 0.199090 0.698150 -0.532244
O4    O     O_R   0.607880 0.800910 0.301850 -0.534021
O5    O     O_R   0.107880 0.699090 0.301850 -0.535269
O6    O     O_R   0.892120 0.300910 0.698150 -0.533710
O7    O     O_R   0.892120 0.300910 0.801850 -0.532244
O8    O     O_R   0.107880 0.699090 0.198150 -0.534021
O9    O     O_R   0.278160 0.807580 0.301500 -0.540190
O10   O     O_R   0.721840 0.192420 0.698500 -0.540766
O11   O     O_R   0.721840 0.192420 0.801500 -0.541539
O12   O     O_R   0.278160 0.807580 0.198500 -0.537549
O13   O     O_R   0.778160 0.692420 0.198500 -0.540190
O14   O     O_R   0.221840 0.307580 0.801500 -0.540766
O15   O     O_R   0.221840 0.307580 0.698500 -0.541539
O16   O     O_R   0.778160 0.692420 0.301500 -0.537549
C1    C     C_R   0.446854 0.821206 0.318386 0.709199
C2    C     C_R   0.553177 0.178776 0.681687 0.709447
C3    C     C_R   0.553114 0.178850 0.818464 0.714243
C4    C     C_R   0.446837 0.821170 0.181641 0.713913
C5    C     C_R   0.946854 0.678794 0.181614 0.709199
C6    C     C_R   0.053177 0.321224 0.818313 0.709447
C7    C     C_R   0.053114 0.321150 0.681536 0.714243
C8    C     C_R   0.946837 0.678830 0.318358 0.713913
O17   O     O_3   0.441370 0.714400 0.250000 -0.374395
O18   O     O_3   0.558630 0.285600 0.750000 -0.371595
O19   O     O_3   0.941370 0.785600 0.250000 -0.374395
O20   O     O_3   0.058630 0.214400 0.750000 -0.371595
V1    V     V_3+5 0.166530 0.756600 0.250000 1.442632
V2    V     V_3+5 0.833470 0.243400 0.750000 1.449545
V3    V     V_3+5 0.666530 0.743400 0.250000 1.442632
V4    V     V_3+5 0.333470 0.256600 0.750000 1.449545
C9    C     C_R   0.179505 0.440524 0.590193 0.479121
C10   C     C_R   0.828630 0.553735 0.403528 0.412726
C11   C     C_R   0.818569 0.589962 0.065346 0.386418
C12   C     C_R   0.171235 0.446971 0.902686 0.395528
C13   C     C_R   0.679503 0.059475 0.909805 0.479124
C14   C     C_R   0.328629 0.946265 0.096471 0.412722
C15   C     C_R   0.318569 0.910038 0.434654 0.386417
C16   C     C_R   0.671234 0.053028 0.597314 0.395528
C17   C     C_R   0.190029 0.400435 0.629726 -0.224098
C18   C     C_R   0.819274 0.594774 0.364851 -0.209259
C19   C     C_R   0.807027 0.628310 0.106230 -0.229501
C20   C     C_R   0.179956 0.405830 0.864082 -0.201642
C21   C     C_R   0.690027 0.099564 0.870273 -0.224098
C22   C     C_R   0.319273 0.905225 0.135149 -0.209261
C23   C     C_R   0.307027 0.871690 0.393770 -0.229501
C24   C     C_R   0.679956 0.094170 0.635918 -0.201642
H1    H     H_    0.313129 0.398375 0.653214 0.179852
H2    H     H_    0.705232 0.593962 0.338007 0.173376
H3    H     H_    0.681885 0.652626 0.111461 0.169283
H4    H     H_    0.292666 0.406878 0.836815 0.175860
H5    H     H_    0.813126 0.101623 0.846784 0.179853
H6    H     H_    0.205230 0.906037 0.161992 0.173376
H7    H     H_    0.181885 0.847374 0.388539 0.169283
H8    H     H_    0.792665 0.093121 0.663185 0.175859
C25   C     C_R   0.042375 0.363436 0.639514 -0.123391
C26   C     C_R   0.956824 0.636123 0.359876 -0.120739
C27   C     C_R   0.957102 0.636486 0.139655 -0.116899
C28   C     C_R   0.043425 0.364098 0.859695 -0.116955
C29   C     C_R   0.542375 0.136564 0.860486 -0.123389
C30   C     C_R   0.456824 0.863876 0.140124 -0.120737
C31   C     C_R   0.457102 0.863514 0.360345 -0.116899
C32   C     C_R   0.543425 0.135902 0.640305 -0.116955
C33   C     C_R   0.883869 0.366885 0.608456 -0.139028
C34   C     C_R   0.104088 0.636334 0.394943 -0.137669
C35   C     C_R   0.118571 0.604591 0.132016 -0.132452
C36   C     C_R   0.897526 0.363709 0.895184 -0.143390
C37   C     C_R   0.383871 0.133116 0.891544 -0.139030
C38   C     C_R   0.604090 0.863666 0.105057 -0.137673
C39   C     C_R   0.618571 0.895409 0.367984 -0.132452
C40   C     C_R   0.397527 0.136291 0.604816 -0.143390
H9    H     H_    0.768016 0.338815 0.614484 0.139988
H10   H     H_    0.211860 0.667812 0.392389 0.137976
H11   H     H_    0.236395 0.609468 0.157199 0.145788
H12   H     H_    0.790335 0.332016 0.892992 0.132789
H13   H     H_    0.268020 0.161187 0.885517 0.139987
H14   H     H_    0.711862 0.832188 0.107611 0.137977
H15   H     H_    0.736395 0.890532 0.342801 0.145788
H16   H     H_    0.290336 0.167984 0.607007 0.132789
C41   C     C_R   0.874018 0.405722 0.568413 -0.096157
C42   C     C_R   0.111609 0.596877 0.434573 -0.079620
C43   C     C_R   0.129397 0.565414 0.092201 -0.080194
C44   C     C_R   0.890821 0.403251 0.934783 -0.092013
C45   C     C_R   0.374020 0.094279 0.931588 -0.096164
C46   C     C_R   0.611611 0.903123 0.065427 -0.079619
C47   C     C_R   0.629397 0.934586 0.407798 -0.080195
C48   C     C_R   0.390821 0.096749 0.565217 -0.092013
H17   H     H_    0.751926 0.406362 0.544506 0.214562
H18   H     H_    0.224464 0.599000 0.461748 0.180254
H19   H     H_    0.254260 0.540837 0.087888 0.197923
H20   H     H_    0.778936 0.401044 0.962262 0.173814
H21   H     H_    0.251931 0.093640 0.955495 0.214559
H22   H     H_    0.724467 0.901000 0.038252 0.180265
H23   H     H_    0.754261 0.959163 0.412112 0.197923
H24   H     H_    0.278936 0.098956 0.537738 0.173814
C49   C     C_R   0.020116 0.442959 0.558916 -0.043439
C50   C     C_R   0.975253 0.555287 0.439419 -0.048365
C51   C     C_R   0.981398 0.558020 0.058260 -0.040997
C52   C     C_R   0.026673 0.445068 0.939193 -0.039872
C53   C     C_R   0.520117 0.057041 0.941084 -0.043440
C54   C     C_R   0.475254 0.944713 0.060581 -0.048367
C55   C     C_R   0.481398 0.941980 0.441740 -0.040997
C56   C     C_R   0.526673 0.054932 0.560807 -0.039872
C57   C     C_1   0.003650 0.482616 0.516763 0.177009
C58   C     C_1   0.989591 0.515558 0.481539 0.136788
C59   C     C_1   0.999672 0.517870 0.016518 0.145093
C60   C     C_1   0.013530 0.484766 0.981392 0.128896
C61   C     C_1   0.503651 0.017383 0.983237 0.177016
C62   C     C_1   0.489592 0.984441 0.018461 0.136799
C63   C     C_1   0.499672 0.982130 0.483482 0.145093
C64   C     C_1   0.513530 0.015234 0.518608 0.128894
S1    S     S_3+6 0.368916 0.486008 0.579762 0.025406
O21   O     O_2   0.505426 0.482380 0.622978 -0.314725
O22   O     O_2   0.462070 0.468990 0.530905 -0.305022
O23   O     O_3   0.292640 0.552465 0.574412 -0.488882
H25   H     H_    0.398012 0.573633 0.559757 0.379089
S2    S     S_3+6 0.651340 0.502570 0.405906 0.048049
O24   O     O_2   0.496652 0.525043 0.438223 -0.290810
O25   O     O_2   0.578159 0.491567 0.353072 -0.319298
O26   O     O_3   0.726819 0.441828 0.431156 -0.474034
H26   H     H_    0.824642 0.428692 0.407490 0.339568
S3    S     S_3+6 0.627467 0.582194 0.023861 0.064767
O27   O     O_2   0.547106 0.524688 0.031658 -0.295661
O28   O     O_2   0.481369 0.625543 0.034621 -0.326673
O29   O     O_3   0.697691 0.588241 0.962857 -0.417748
H27   H     H_    0.760964 0.625084 0.961173 0.343613
S4    S     S_3+6 0.346678 0.498740 0.904042 0.106335
O30   O     O_2   0.506527 0.476159 0.934313 -0.268949
O31   O     O_2   0.412066 0.510901 0.850648 -0.295371
O32   O     O_3   0.272691 0.558794 0.930970 -0.424176
H28   H     H_    0.172448 0.572313 0.908279 0.349454
S5    S     S_3+6 0.868911 0.013989 0.920235 0.025407
O33   O     O_2   0.005411 0.017615 0.877017 -0.314729
O34   O     O_2   0.962079 0.031008 0.969090 -0.305016
O35   O     O_3   0.792630 0.947533 0.925589 -0.488890
H29   H     H_    0.898021 0.926362 0.940230 0.379095
S6    S     S_3+6 0.151338 0.997429 0.094092 0.048046
O36   O     O_2   0.996658 0.974957 0.061772 -0.290805
O37   O     O_2   0.078144 0.008429 0.146925 -0.319300
O38   O     O_3   0.226820 0.058172 0.068845 -0.474037
H30   H     H_    0.324641 0.071306 0.092512 0.339567
S7    S     S_3+6 0.127467 0.917806 0.476139 0.064767
O39   O     O_2   0.047106 0.975312 0.468342 -0.295661
O40   O     O_2   0.981369 0.874457 0.465379 -0.326673
O41   O     O_3   0.197691 0.911759 0.537143 -0.417748
H31   H     H_    0.260964 0.874916 0.538827 0.343614
S8    S     S_3+6 0.846677 0.001259 0.595958 0.106336
O42   O     O_2   0.006527 0.023840 0.565687 -0.268949
O43   O     O_2   0.912063 0.989098 0.649352 -0.295370
O44   O     O_3   0.772691 0.941206 0.569030 -0.424175
H32   H     H_    0.672445 0.927688 0.591720 0.349453

loop_
_geom_bond_atom_site_label_1
_geom_bond_atom_site_label_2
_ccdc_geom_bond_type
C10   S2    S    
S7    O41   S    
C13   C53   A    
C48   H24   S    
C42   H18   S    
O17   V3    S    
O29   H27   S    
O12   V1    S    
O19   V1    S    
C37   H13   S    
C63   C64   T    
C10   C18   A    
S8    O44   S    
C2    C32   S    
S4    O30   D    
C18   C26   A    
C39   H15   S    
C15   S7    S    
C45   C53   A    
S3    O27   D    
O16   V3    S    
O18   V4    S    
O11   C3    A    
C22   C30   A    
O8    V1    S    
O2    V4    S    
S8    O43   D    
C5    C27   S    
C6    C28   S    
C3    C29   S    
S3    O28   D    
C38   H14   S    
C53   C61   S    
S7    O39   D    
C34   H10   S    
S7    O40   D    
O1    V3    S    
C33   H9    S    
O23   H25   S    
C30   C38   A    
O3    C2    A    
C55   C63   S    
C16   C24   A    
S2    O24   D    
C46   H22   S    
C27   C35   A    
S1    O21   D    
C45   H21   S    
C26   C34   A    
O11   V2    S    
C47   H23   S    
S5    O35   S    
C59   C60   T    
C11   C19   A    
O9    V1    S    
S1    O23   S    
C41   H17   S    
C20   H4    S    
O15   C7    A    
C23   H7    S    
C21   H5    S    
O16   C8    A    
O7    V2    S    
C43   C51   A    
C42   C50   A    
C22   H6    S    
C12   S4    S    
C11   C51   A    
C17   H1    S    
C40   C48   A    
O5    V1    S    
C52   C60   S    
C16   S8    S    
C44   C52   A    
O15   V4    S    
S8    O42   D    
O14   V4    S    
C56   C64   S    
S3    O29   S    
C40   H16   S    
S2    O26   S    
C36   C44   A    
C16   C56   A    
O10   V2    S    
C33   C41   A    
O44   H32   S    
O12   C4    A    
O8    C5    A    
C14   S6    S    
O13   C5    A    
C12   C52   A    
C35   C43   A    
C20   C28   A    
O26   H26   S    
S6    O37   D    
C18   H2    S    
C7    C25   S    
O4    C1    A    
O9    C1    A    
O6    V2    S    
C31   C39   A    
S5    O33   D    
C39   C47   A    
C12   C20   A    
C35   H11   S    
C13   C21   A    
O32   H28   S    
C46   C54   A    
S4    O32   S    
C37   C45   A    
C15   C23   A    
O41   H31   S    
C29   C37   A    
C24   H8    S    
O1    C4    A    
O2    C3    A    
O13   V3    S    
C25   C33   A    
O35   H29   S    
S6    O38   S    
S4    O31   D    
C15   C55   A    
C19   C27   A    
C36   H12   S    
O7    C6    A    
C51   C59   S    
C57   C58   T    
C9    S1    S    
C50   C58   S    
C9    C17   A    
O14   C6    A    
C11   S3    S    
C47   C55   A    
C49   C57   S    
O20   V2    S    
C14   C54   A    
C61   C62   T    
C1    C31   S    
C23   C31   A    
C19   H3    S    
O5    C8    A    
C41   C49   A    
O10   C2    A    
C54   C62   S    
O6    C7    A    
C43   H19   S    
C21   C29   A    
C10   C50   A    
C9    C49   A    
C32   C40   A    
C4    C30   S    
O3    V4    S    
C13   S5    S    
S2    O25   D    
C14   C22   A    
O4    V3    S    
C24   C32   A    
S6    O36   D    
C17   C25   A    
C28   C36   A    
C8    C26   S    
S5    O34   D    
C44   H20   S    
O38   H30   S    
C48   C56   A    
C34   C42   A    
S1    O22   D    
C38   C46   A    
