data_mof_unit_29397.cif
_audit_creation_date              2012-12-11T17:00:20-0500
_audit_creation_method            fapswitch 2.2
_symmetry_space_group_name_H-M    P1
_symmetry_Int_Tables_number       1
_space_group_crystal_system       triclinic
_cell_length_a                    6.972428
_cell_length_b                    13.541597
_cell_length_c                    20.228018
_cell_angle_alpha                 102.805942
_cell_angle_beta                  90.661003
_cell_angle_gamma                 89.979649
_cell_volume                      1862.25070711

loop_
_atom_site_label
_atom_site_type_symbol
_atom_type_description
_atom_site_fract_x
_atom_site_fract_y
_atom_site_fract_z
_atom_type_partial_charge
O1    O     O_R   0.506770 0.599700 0.449550 -0.526336
O2    O     O_R   0.179980 0.595740 0.587960 -0.542264
O3    O     O_R   0.004580 0.400300 0.550450 -0.543921
C1    C     C_R   0.348687 0.617874 0.614986 0.727293
O4    O     O_R   0.177380 0.611700 0.452380 -0.528704
O5    O     O_R   0.001970 0.416370 0.413900 -0.552706
C2    C     C_R   0.344959 0.639487 0.436301 0.791937
O6    O     O_R   0.509390 0.583630 0.586100 -0.540779
O7    O     O_3   0.337530 0.435890 0.487530 -0.384121
V1    V     V_3+5 0.064660 0.511890 0.502310 1.476650
O8    O     O_R   0.671950 0.404260 0.412040 -0.541238
C3    C     C_R   0.840020 0.383197 0.384649 0.716452
O9    O     O_R   0.674540 0.388300 0.547620 -0.544033
C4    C     C_R   0.844103 0.361185 0.563829 0.680417
V2    V     V_3+5 0.564030 0.488110 0.497690 1.466964
O10   O     O_3   0.841030 0.564110 0.512470 -0.361600
C5    C     C_R   0.899193 0.110084 0.611098 -0.112190
H1    H     H_    0.894960 0.159989 0.517557 0.111219
H2    H     H_    0.924801 0.985333 0.694927 0.140601
H3    H     H_    0.921031 0.031655 0.585695 0.168668
C6    C     C_R   0.855295 0.284042 0.603799 -0.033915
C7    C     C_R   0.829773 0.316891 0.930619 -0.126076
C8    C     C_R   0.813522 0.392807 0.894677 -0.112924
C9    C     C_R   0.823239 0.369576 0.824146 -0.162940
C10   C     C_R   0.849811 0.268475 0.787439 0.081620
C11   C     C_R   0.867334 0.191086 0.824734 0.066876
C12   C     C_R   0.859360 0.241536 0.715146 0.071829
C13   C     C_R   0.887369 0.138361 0.682041 0.128457
C14   C     C_R   0.903821 0.064102 0.719811 -0.177916
C15   C     C_R   0.893617 0.089841 0.789961 -0.198333
C16   C     C_R   0.842608 0.313372 0.674300 -0.211632
C17   C     C_R   0.884054 0.182702 0.572216 -0.167903
C18   C     C_R   0.857066 0.216494 0.896359 -0.090448
H4    H     H_    0.821140 0.392866 0.695384 0.090354
H5    H     H_    0.820604 0.336398 0.985437 0.163734
H6    H     H_    0.809197 0.432698 0.800147 0.107137
H7    H     H_    0.792593 0.470463 0.921686 0.126424
H8    H     H_    0.906736 0.029316 0.816798 0.104919
C19   C     C_R   0.700196 0.194811 0.222070 -0.004462
C20   C     C_R   0.865365 0.186858 0.183068 -0.067576
C21   C     C_R   0.021681 0.247466 0.211022 -0.108625
H9    H     H_    0.142610 0.251550 0.179716 0.157121
C22   C     C_R   0.014497 0.310314 0.276579 -0.093981
H10   H     H_    0.133161 0.360778 0.294432 0.141487
C23   C     C_R   0.850014 0.313555 0.316768 -0.057650
C24   C     C_R   0.694858 0.252040 0.288756 0.009911
C25   C     C_3   0.494763 0.285180 0.280184 -0.426202
C26   C     C_3   0.506030 0.230582 0.206094 0.318697
H11   H     H_    0.481804 0.368948 0.289656 0.233906
H12   H     H_    0.393977 0.248633 0.309674 0.115610
H13   H     H_    0.405143 0.165866 0.191081 0.009375
C27   C     C_R   0.501970 0.680245 0.730097 0.084445
C28   C     C_R   0.352527 0.684171 0.684062 -0.097861
C29   C     C_R   0.195690 0.747744 0.707794 -0.137675
H14   H     H_    0.075948 0.752786 0.674305 0.148648
C30   C     C_R   0.196673 0.810238 0.773555 -0.177342
H15   H     H_    0.078793 0.861795 0.788545 0.124561
C31   C     C_R   0.354850 0.811461 0.817523 -0.105274
C32   C     C_R   0.503634 0.742786 0.794953 0.104539
C33   C     C_3   0.713730 0.761731 0.792485 -0.398834
C34   C     C_3   0.711714 0.693461 0.721932 -0.405166
H16   H     H_    0.795805 0.729598 0.830197 0.170120
H17   H     H_    0.745854 0.842191 0.792695 0.168441
H18   H     H_    0.792168 0.621716 0.718873 0.161551
H19   H     H_    0.742807 0.734196 0.681209 0.183646
C35   C     C_R   0.263340 0.891563 0.390502 -0.187203
H20   H     H_    0.197390 0.009555 0.303418 0.113749
H21   H     H_    0.209230 0.965926 0.414127 0.146446
C36   C     C_R   0.347676 0.721091 0.399101 -0.155349
C37   C     C_R   0.455329 0.692641 0.078383 -0.248813
C38   C     C_R   0.540738 0.633685 0.118736 -0.080687
C39   C     C_R   0.541875 0.665572 0.189394 0.453509
C40   C     C_R   0.422492 0.748150 0.220150 -0.028652
C41   C     C_R   0.353479 0.814214 0.179094 0.037192
C42   C     C_R   0.377207 0.770694 0.290404 0.131757
C43   C     C_R   0.301355 0.866945 0.320779 0.080381
C44   C     C_R   0.256526 0.935931 0.280785 -0.160504
C45   C     C_R   0.275711 0.908702 0.210693 -0.160845
C46   C     C_R   0.388153 0.697105 0.329863 -0.172263
C47   C     C_R   0.287589 0.819489 0.429780 0.380362
C48   C     C_R   0.374351 0.786555 0.107707 -0.074547
H22   H     H_    0.413537 0.618832 0.306262 0.185526
H23   H     H_    0.473796 0.670794 0.023956 0.128478
H24   H     H_    0.624603 0.568654 0.094444 0.191235
H25   H     H_    0.229615 0.962658 0.181557 0.112698
O11   O     O_R   0.203450 0.916320 0.913910 -0.545455
O12   O     O_R   0.535520 0.888300 0.047620 -0.542793
O13   O     O_R   0.710860 0.083650 0.086100 -0.519806
C49   C     C_R   0.368823 0.862796 0.065736 0.691306
O14   O     O_R   0.532860 0.904250 0.912040 -0.546169
O15   O     O_R   0.708190 0.099710 0.949550 -0.521792
C50   C     C_R   0.363990 0.882667 0.884809 0.690230
O16   O     O_R   0.206120 0.900260 0.050460 -0.541659
O17   O     O_3   0.375280 0.064080 0.012470 -0.347222
V3    V     V_3+5 0.648180 0.988110 0.997690 1.479449
O18   O     O_R   0.038220 0.111740 0.952370 -0.544162
C51   C     C_R   0.868592 0.138919 0.936289 0.714531
O19   O     O_R   0.040880 0.095790 0.087940 -0.561994
C52   C     C_R   0.872608 0.119032 0.114523 0.719882
V4    V     V_3+5 0.148800 0.011950 0.002300 1.441196
O20   O     O_3   0.871820 0.935920 0.987530 -0.379873
S1    S     S_3+6 0.506926 0.318635 0.150118 0.024055
O21   O     O_2   0.368074 0.403416 0.175049 -0.330468
O22   O     O_2   0.702607 0.363748 0.147173 -0.271057
O23   O     O_3   0.441825 0.259157 0.071207 -0.489797
H26   H     H_    0.300289 0.264893 0.069649 0.339487
Cl1   Cl    Cl    0.232910 0.853262 0.516693 -0.697864
S2    S     S_3+6 0.740556 0.625226 0.233039 0.015211
O24   O     O_2   0.691729 0.530447 0.256263 -0.311692
O25   O     O_2   0.908517 0.603622 0.186073 -0.311678
O26   O     O_3   0.803925 0.716697 0.300572 -0.516526
H27   H     H_    0.917318 0.689583 0.320560 0.359208

loop_
_geom_bond_atom_site_label_1
_geom_bond_atom_site_label_2
_ccdc_geom_bond_type
C35   H21   S    
C1    C28   S    
C40   C42   A    
C21   H9    S    
O26   H27   S    
H20   C44   S    
C1    O6    A    
C20   C52   S    
O14   V3    S    
C25   H11   S    
C44   C45   A    
C30   H15   S    
C7    H5    S    
C6    C16   A    
C47   Cl1   S    
C9    H6    S    
C33   H17   S    
C4    C6    S    
C13   C14   A    
C27   C34   S    
O5    C3    A    
V2    O10   S    
C5    H3    S    
S2    O24   D    
C15   H8    S    
S1    O23   S    
C33   H16   S    
C40   C41   A    
C37   C48   A    
C29   H14   S    
O8    V2    S    
C26   H13   S    
C39   S2    S    
S2    O25   D    
O12   V3    S    
C8    C9    A    
C37   C38   A    
O1    V2    S    
O11   V4    S    
O7    V1    S    
C48   C49   S    
O13   V3    S    
C35   C43   A    
C32   C33   S    
O9    C4    A    
C21   C22   A    
O17   V3    S    
C25   H12   S    
C6    C17   A    
C29   C30   A    
C12   C16   A    
C9    C10   A    
C19   C20   A    
O4    C2    A    
C3    C23   S    
C10   C11   A    
C8    H7    S    
O15   C51   A    
C33   C34   S    
C34   H18   S    
O2    C1    A    
C42   C43   A    
O5    V1    S    
C14   C15   A    
C27   C32   A    
C34   H19   S    
C11   C18   A    
O14   C50   A    
C25   C26   S    
O17   V4    S    
C26   S1    S    
O18   C51   A    
C16   H4    S    
C43   C44   A    
S1    O22   D    
C37   H23   S    
C22   C23   A    
O16   V4    S    
O3    C4    A    
C19   C24   A    
C45   H25   S    
C20   C21   A    
C11   C15   A    
O6    V2    S    
O19   V4    S    
O12   C49   A    
C22   H10   S    
C36   C46   A    
H1    C17   S    
C41   C48   A    
O2    V1    S    
C27   C28   A    
C38   H24   S    
C7    C18   A    
C24   C25   S    
O1    C2    A    
C5    C13   A    
C39   C40   A    
C2    C36   S    
C46   H22   S    
O8    C3    A    
C28   C29   A    
C10   C12   A    
C35   C47   A    
O23   H26   S    
S2    O26   S    
O9    V2    S    
O7    V2    S    
O4    V1    S    
O3    V1    S    
O11   C50   A    
C31   C50   S    
O18   V4    S    
V4    O20   S    
C30   C31   A    
C18   C51   S    
C49   O16   A    
S1    O21   D    
C31   C32   A    
O13   C52   A    
O15   V3    S    
C23   C24   A    
C38   C39   A    
O19   C52   A    
C41   C45   A    
C12   C13   A    
C5    C17   A    
C7    C8    A    
C36   C47   A    
V1    O10   S    
C42   C46   A    
V3    O20   S    
C19   C26   S    
H2    C14   S    
