data_mof_unit_49161.cif
_audit_creation_date              2013-03-05T16:10:12-0500
_audit_creation_method            fapswitch 2.2
_symmetry_space_group_name_H-M    P1
_symmetry_Int_Tables_number       1
_space_group_crystal_system       triclinic
_cell_length_a                    15.156902
_cell_length_b                    7.356832
_cell_length_c                    13.265166
_cell_angle_alpha                 90.000022
_cell_angle_beta                  100.715758
_cell_angle_gamma                 90.000586
_cell_volume                      1453.36199677

loop_
_atom_site_label
_atom_site_type_symbol
_atom_site_description
_atom_site_fract_x
_atom_site_fract_y
_atom_site_fract_z
_atom_type_partial_charge
O1    O     O_R   0.648180 0.355050 0.151550 -0.527736
O2    O     O_R   0.351820 0.644950 0.848450 -0.527618
O3    O     O_R   0.851820 0.855050 0.348450 -0.527617
O4    O     O_R   0.148180 0.144950 0.651550 -0.527636
O5    O     O_R   0.835240 0.681980 0.154280 -0.546711
O6    O     O_R   0.164760 0.318020 0.845720 -0.546722
O7    O     O_R   0.664760 0.181980 0.345720 -0.546755
O8    O     O_R   0.335240 0.818020 0.654280 -0.546714
C1    C     C_R   0.862214 0.515481 0.131144 0.970883
C2    C     C_R   0.137784 0.484519 0.868854 0.970898
C3    C     C_R   0.637782 0.015480 0.368851 0.970931
C4    C     C_R   0.362215 0.984520 0.631146 0.970881
O9    O     O_R   0.647870 0.684600 0.139630 -0.549834
O10   O     O_R   0.352130 0.315400 0.860370 -0.549969
O11   O     O_R   0.852130 0.184600 0.360370 -0.549965
O12   O     O_R   0.147870 0.815400 0.639630 -0.549955
O13   O     O_R   0.663110 0.857440 0.333700 -0.615821
O14   O     O_R   0.336890 0.142560 0.666300 -0.615842
O15   O     O_R   0.836890 0.357440 0.166300 -0.615846
O16   O     O_R   0.163110 0.642560 0.833700 -0.615831
C5    C     C_R   0.613420 0.516482 0.115993 1.014873
C6    C     C_R   0.386579 0.483518 0.884007 1.014951
C7    C     C_R   0.886580 0.016483 0.384007 1.014942
C8    C     C_R   0.113421 0.983517 0.615992 1.014935
O17   O     O_3   0.755220 0.522230 0.313690 -0.263430
O18   O     O_3   0.244780 0.477770 0.686310 -0.263423
O19   O     O_3   0.744780 0.022230 0.186310 -0.263409
O20   O     O_3   0.255220 0.977770 0.813690 -0.263436
V1    V     V_3+5 0.749030 0.796100 0.238190 1.337714
V2    V     V_3+5 0.250970 0.203900 0.761810 1.337647
V3    V     V_3+5 0.750970 0.296100 0.261810 1.337624
V4    V     V_3+5 0.249030 0.703900 0.738190 1.337668
C9    C     C_1   0.966834 0.005760 0.465699 -0.015238
C10   C     C_1   0.033166 0.994240 0.534299 -0.015235
C11   C     C_1   0.533165 0.505760 0.034301 -0.015232
C12   C     C_1   0.466833 0.494242 0.965701 -0.015229
C13   C     C_R   0.555664 0.000473 0.720983 -0.130950
C14   C     C_R   0.444343 0.999478 0.279028 -0.130878
C15   C     C_R   0.944337 0.500472 0.779019 -0.130935
C16   C     C_R   0.055660 0.499547 0.220980 -0.130977
C17   C     C_R   0.646933 0.977019 0.766969 -0.211170
C18   C     C_R   0.353082 0.023012 0.233036 -0.211215
C19   C     C_R   0.853069 0.477011 0.733031 -0.211170
C20   C     C_R   0.146929 0.523008 0.266966 -0.211160
C21   C     C_R   0.711287 0.960077 0.704650 0.238869
C22   C     C_R   0.288724 0.039968 0.295350 0.238855
C23   C     C_R   0.788714 0.460069 0.795349 0.238867
C24   C     C_R   0.211283 0.539960 0.204648 0.238913
C25   C     C_R   0.685147 0.970731 0.597341 0.233052
C26   C     C_R   0.314858 0.029294 0.402661 0.233060
C27   C     C_R   0.814853 0.470725 0.902659 0.233036
C28   C     C_R   0.185143 0.529307 0.097338 0.233064
C29   C     C_R   0.593158 0.988122 0.547146 0.010175
C30   C     C_R   0.406845 0.011883 0.452860 0.010168
C31   C     C_R   0.906842 0.488122 0.952855 0.010160
C32   C     C_R   0.093155 0.511894 0.047143 0.010171
C33   C     C_R   0.526135 0.993548 0.610692 0.058038
C34   C     C_R   0.473868 0.006433 0.389316 0.057967
C35   C     C_R   0.973865 0.493549 0.889310 0.058024
C36   C     C_R   0.026132 0.506464 0.110689 0.058037
C37   C     C_R   0.567515 0.002521 0.436504 -0.255762
C38   C     C_R   0.432487 0.997473 0.563501 -0.255725
C39   C     C_R   0.932484 0.502532 0.063497 -0.255723
C40   C     C_R   0.067513 0.497474 0.936501 -0.255732
C41   C     C_2   0.678661 0.994458 0.880506 0.828624
H1    H     H_    0.746614 0.038036 0.911148 0.043329
O21   O     O_2   0.630163 0.961439 0.942075 -0.485160
C42   C     C_2   0.321363 0.005610 0.119496 0.828709
H2    H     H_    0.253410 0.962048 0.088841 0.043345
O22   O     O_2   0.369870 0.038658 0.057941 -0.485135
C43   C     C_2   0.821341 0.494449 0.619493 0.828618
H3    H     H_    0.753388 0.538020 0.588850 0.043352
O23   O     O_2   0.869841 0.461435 0.557926 -0.485201
C44   C     C_2   0.178658 0.505562 0.380504 0.828609
H4    H     H_    0.246611 0.461986 0.411144 0.043357
O24   O     O_2   0.130160 0.538571 0.442075 -0.485217
C45   C     C_2   0.498215 0.074816 0.789316 0.646158
H5    H     H_    0.490495 0.220800 0.793416 0.001720
O25   O     O_2   0.461427 0.974445 0.842122 -0.493846
C46   C     C_2   0.501765 0.924918 0.210730 0.646002
H6    H     H_    0.509491 0.778931 0.206757 0.001733
O26   O     O_2   0.538554 0.025113 0.157842 -0.493788
C47   C     C_2   0.001784 0.574834 0.710689 0.646135
H7    H     H_    0.009509 0.720819 0.706604 0.001720
O27   O     O_2   0.038569 0.474478 0.657873 -0.493854
C48   C     C_2   0.998212 0.425212 0.289316 0.646161
H8    H     H_    0.990500 0.279224 0.293432 0.001725
O28   O     O_2   0.961421 0.525591 0.342115 -0.493867
N1    N     N_R   0.194218 0.046195 0.249713 0.216957
O29   O     O_R   0.164897 0.156614 0.174623 -0.476953
O30   O     O_R   0.138132 0.929739 0.276125 -0.372722
N2    N     N_R   0.805794 0.953847 0.750282 0.216950
O31   O     O_R   0.835117 0.843426 0.825371 -0.476945
O32   O     O_R   0.861881 0.070293 0.723862 -0.372732
N3    N     N_R   0.305791 0.546193 0.250280 0.216935
O33   O     O_R   0.335112 0.656603 0.325375 -0.476980
O34   O     O_R   0.361877 0.429752 0.223858 -0.372778
N4    N     N_R   0.694207 0.453848 0.749716 0.216957
O35   O     O_R   0.664880 0.343428 0.674628 -0.476957
O36   O     O_R   0.638125 0.570307 0.776133 -0.372719
N5    N     N_R   0.755893 0.983775 0.541711 0.199548
O37   O     O_R   0.784688 0.145291 0.526494 -0.386170
O38   O     O_R   0.808842 0.845835 0.540073 -0.468382
N6    N     N_R   0.244107 0.016241 0.458285 0.199553
O39   O     O_R   0.215317 0.854721 0.473502 -0.386173
O40   O     O_R   0.191151 0.154173 0.459916 -0.468377
N7    N     N_R   0.744105 0.483780 0.958286 0.199549
O41   O     O_R   0.715324 0.645304 0.973511 -0.386158
O42   O     O_R   0.691139 0.345858 0.959906 -0.468390
N8    N     N_R   0.255890 0.516273 0.041709 0.199548
O43   O     O_R   0.284689 0.354761 0.026494 -0.386212
O44   O     O_R   0.308834 0.654222 0.040066 -0.468384

loop_
_geom_bond_atom_site_label_1
_geom_bond_atom_site_label_2
_geom_bond_distance
_ccdc_geom_bond_type
O17   V3    1.796898 S    
O1    C5    1.348370 A    
N5    O37   1.294575 A    
C16   C36   1.449091 A    
C24   N3    1.448429 S    
C31   C35   1.436165 A    
O19   V1    1.796899 S    
O13   V1    2.029368 S    
O3    C7    1.348366 A    
N3    O33   1.298055 A    
O15   V3    2.029361 S    
N6    O40   1.296489 A    
O4    V2    1.976669 S    
C33   C38   1.441185 A    
C22   N1    1.448424 S    
C45   H5    1.082799 S    
O7    C3    1.344771 A    
C35   C40   1.441181 A    
C26   C30   1.434739 A    
C23   N4    1.448424 S    
C44   O24   1.220512 D    
C36   C39   1.441180 A    
O9    V1    1.996906 S    
C14   C18   1.414822 A    
C25   N5    1.413451 S    
O4    C8    1.348367 A    
C48   O28   1.221510 D    
O1    V3    1.976676 S    
O2    V4    1.976673 S    
C18   C22   1.396508 A    
C16   C48   1.473939 S    
O3    V1    1.976667 S    
C21   N2    1.448426 S    
N8    O43   1.294569 A    
C14   C34   1.449050 A    
C29   C37   1.450605 A    
C1    O15   1.335363 A    
C11   C12   1.227123 T    
C2    O16   1.335361 A    
C42   H2    1.083106 S    
C41   O21   1.220508 D    
C31   C39   1.450611 A    
O2    C6    1.348369 A    
N7    O41   1.294579 A    
C32   C40   1.450613 A    
O14   V2    2.029367 S    
C21   C25   1.407009 A    
N1    O30   1.300067 A    
C16   C20   1.414839 A    
C34   C37   1.441159 A    
O11   C7    1.356387 A    
O12   C8    1.356385 A    
C18   C42   1.498885 S    
N7    O42   1.296493 A    
O10   V2    1.996905 S    
N6    O39   1.294574 A    
O5    V1    2.047464 S    
C45   O25   1.221503 D    
C15   C19   1.414837 A    
O7    V3    2.047454 S    
C44   H4    1.083108 S    
O8    V4    2.047452 S    
C46   O26   1.221449 D    
C43   O23   1.220509 D    
C29   C33   1.436170 A    
C48   H8    1.082822 S    
C17   C41   1.498902 S    
C30   C38   1.450602 A    
C7    C9    1.473099 S    
C13   C45   1.473937 S    
C8    C10   1.473100 S    
C32   C36   1.436166 A    
O5    C1    1.344766 A    
C4    C38   1.517928 S    
C47   H7    1.082802 S    
C28   N8    1.413451 S    
O8    C4    1.344767 A    
C15   C35   1.449085 A    
N2    O32   1.300068 A    
C9    C10   1.227125 T    
O9    C5    1.356381 A    
C20   C44   1.498910 S    
C27   N7    1.413456 S    
O6    V2    2.047464 S    
N4    O35   1.298061 A    
N4    O36   1.300065 A    
C30   C34   1.436146 A    
O16   V4    2.029363 S    
C3    O13   1.335361 A    
C19   C43   1.498905 S    
C47   O27   1.221504 D    
C1    C39   1.517933 S    
C2    C40   1.517943 S    
C46   H6    1.082714 S    
C3    C37   1.517950 S    
O6    C2    1.344773 A    
C23   C27   1.407009 A    
N3    O34   1.300069 A    
O11   V3    1.996919 S    
C5    C11   1.473100 S    
O12   V4    1.996919 S    
C6    C12   1.473099 S    
C22   C26   1.407022 A    
N5    O38   1.296484 A    
O10   C6    1.356384 A    
O20   V2    1.796900 S    
C15   C47   1.473936 S    
C43   H3    1.083108 S    
C14   C46   1.473917 S    
C25   C29   1.434732 A    
N2    O31   1.298056 A    
C27   C31   1.434742 A    
C13   C17   1.414839 A    
N8    O44   1.296485 A    
C28   C32   1.434740 A    
C24   C28   1.407012 A    
C42   O22   1.220514 D    
C41   H1    1.083107 S    
C4    O14   1.335360 A    
C17   C21   1.396492 A    
N1    O29   1.298054 A    
C19   C23   1.396494 A    
O18   V4    1.796898 S    
C13   C33   1.449085 A    
C26   N6    1.413459 S    
C20   C24   1.396491 A    
