data_mof_unit_53095.cif
_audit_creation_date              2013-03-05T16:12:50-0500
_audit_creation_method            fapswitch 2.2
_symmetry_space_group_name_H-M    P1
_symmetry_Int_Tables_number       1
_space_group_crystal_system       triclinic
_cell_length_a                    25.816144
_cell_length_b                    6.90419
_cell_length_c                    21.716981
_cell_angle_alpha                 90.008274
_cell_angle_beta                  96.15456
_cell_angle_gamma                 90.008914
_cell_volume                      3848.5148484

loop_
_atom_site_label
_atom_site_type_symbol
_atom_site_description
_atom_site_fract_x
_atom_site_fract_y
_atom_site_fract_z
_atom_type_partial_charge
O1    O     O_R   0.208650 0.594520 0.175450 -0.583515
O2    O     O_R   0.791350 0.405480 0.824550 -0.585063
O3    O     O_R   0.291350 0.094520 0.324550 -0.583547
O4    O     O_R   0.708650 0.905480 0.675450 -0.585154
O5    O     O_R   0.192980 0.260780 0.300160 -0.592261
O6    O     O_R   0.807020 0.739220 0.699840 -0.593974
O7    O     O_R   0.307020 0.760780 0.199840 -0.592259
O8    O     O_R   0.692980 0.239220 0.800160 -0.593965
C1    C     C_R   0.179137 0.432931 0.318781 0.956109
C2    C     C_R   0.820871 0.567066 0.681230 0.955605
C3    C     C_R   0.320863 0.932934 0.181220 0.956009
C4    C     C_R   0.679129 0.067063 0.818770 0.955613
O9    O     O_R   0.202550 0.264660 0.174420 -0.593490
O10   O     O_R   0.797450 0.735340 0.825580 -0.589226
O11   O     O_R   0.297450 0.764660 0.325580 -0.593379
O12   O     O_R   0.702550 0.235340 0.674420 -0.589179
O13   O     O_R   0.300990 0.096480 0.197920 -0.598148
O14   O     O_R   0.699010 0.903520 0.802080 -0.596947
O15   O     O_R   0.199010 0.596480 0.302080 -0.598137
O16   O     O_R   0.800990 0.403520 0.697920 -0.596949
C5    C     C_R   0.191089 0.433289 0.151045 0.963957
C6    C     C_R   0.809022 0.566658 0.848820 0.962762
C7    C     C_R   0.308911 0.933345 0.348949 0.963934
C8    C     C_R   0.690983 0.066603 0.651179 0.962725
O17   O     O_3   0.282290 0.427760 0.257860 -0.269822
O18   O     O_3   0.717710 0.572240 0.742140 -0.269557
O19   O     O_3   0.217710 0.927760 0.242140 -0.269848
O20   O     O_3   0.782290 0.072240 0.757860 -0.269555
V1    V     V_3+5 0.244010 0.152080 0.248540 1.181607
V2    V     V_3+5 0.755990 0.847920 0.751460 1.182875
V3    V     V_3+5 0.255990 0.652080 0.251460 1.181633
V4    V     V_3+5 0.744010 0.347920 0.748540 1.182888
C9    C     C_R   0.657203 0.060411 0.591985 -0.165785
C10   C     C_R   0.342177 0.938964 0.408600 -0.168147
C11   C     C_R   0.842828 0.560767 0.908004 -0.165884
C12   C     C_R   0.157836 0.438595 0.091372 -0.168275
C13   C     C_R   0.648455 0.085253 0.480004 0.389549
C14   C     C_R   0.353813 0.855484 0.517730 0.387494
C15   C     C_R   0.851739 0.589528 0.019897 0.389699
C16   C     C_R   0.146000 0.351979 0.982483 0.387536
C17   C     C_R   0.679438 0.080760 0.536877 -0.244644
C18   C     C_R   0.322707 0.865393 0.461063 -0.233288
C19   C     C_R   0.820694 0.583828 0.963078 -0.244279
C20   C     C_R   0.177160 0.363021 0.039088 -0.232671
C21   C     C_R   0.603185 0.037443 0.590553 -0.187559
C22   C     C_R   0.394472 0.996270 0.411856 -0.188616
C23   C     C_R   0.896799 0.536326 0.909442 -0.187505
C24   C     C_R   0.105624 0.496972 0.087999 -0.188517
C25   C     C_R   0.569753 0.047419 0.533922 0.106665
C26   C     C_R   0.427836 0.988891 0.468612 0.106839
C27   C     C_R   0.930308 0.547652 0.965993 0.106760
C28   C     C_R   0.072208 0.488532 0.031291 0.106996
C29   C     C_R   0.593038 0.084855 0.478389 -0.174502
C30   C     C_R   0.405595 0.930439 0.523077 -0.173131
C31   C     C_R   0.907148 0.587774 0.021432 -0.174300
C32   C     C_R   0.094313 0.427783 0.976974 -0.172833
C33   C     C_R   0.514192 0.020621 0.530750 0.046456
C34   C     C_R   0.482649 0.032887 0.472673 0.047707
C35   C     C_R   0.985830 0.519790 0.969171 0.046564
C36   C     C_R   0.017455 0.533557 0.027159 0.047861
C37   C     C_R   0.506772 0.091893 0.420618 -0.288195
C38   C     C_R   0.488990 0.986295 0.584103 -0.288689
C39   C     C_R   0.993481 0.595112 0.079041 -0.287865
C40   C     C_R   0.010920 0.483020 0.915892 -0.288454
C41   C     C_R   0.560339 0.123867 0.423202 0.354112
C42   C     C_R   0.435688 0.948608 0.581207 0.356822
C43   C     C_R   0.939963 0.628169 0.076429 0.354319
C44   C     C_R   0.064175 0.444464 0.918828 0.357137
H1    H     H_    0.283401 0.807898 0.457233 0.163149
H2    H     H_    0.721498 0.087237 0.538092 0.168408
H3    H     H_    0.216377 0.304712 0.043041 0.163001
H4    H     H_    0.778652 0.591577 0.961897 0.168322
H5    H     H_    0.484593 0.123190 0.377004 0.167553
H6    H     H_    0.509367 0.995329 0.629835 0.169447
H7    H     H_    0.015761 0.627719 0.122494 0.167451
H8    H     H_    0.990500 0.490769 0.870158 0.169406
C45   C     C_R   0.436634 0.813595 0.092246 -0.026262
C46   C     C_R   0.563338 0.186354 0.907716 -0.025843
C47   C     C_R   0.063367 0.313559 0.407760 -0.026304
C48   C     C_R   0.936665 0.686389 0.592284 -0.025903
H9    H     H_    0.463211 0.693952 0.088320 0.190336
H10   H     H_    0.536759 0.305991 0.911641 0.190217
H11   H     H_    0.036790 0.193894 0.411688 0.190364
H12   H     H_    0.963245 0.806047 0.588358 0.190250
C49   C     C_R   0.397126 0.794397 0.131474 -0.109183
C50   C     C_R   0.602851 0.205573 0.868496 -0.113363
C51   C     C_R   0.102874 0.294361 0.368531 -0.109120
C52   C     C_R   0.897151 0.705608 0.631502 -0.113361
H13   H     H_    0.394237 0.660682 0.156949 0.142061
H14   H     H_    0.605742 0.339295 0.843026 0.142141
H15   H     H_    0.105761 0.160624 0.343058 0.142117
H16   H     H_    0.894260 0.839353 0.656970 0.142197
C53   C     C_R   0.362383 0.947314 0.138437 -0.186280
C54   C     C_R   0.637597 0.052665 0.861537 -0.186348
C55   C     C_R   0.137618 0.447307 0.361566 -0.186322
C56   C     C_R   0.862403 0.552671 0.638463 -0.186408
C57   C     C_R   0.367637 0.118381 0.104249 -0.238967
C58   C     C_R   0.632336 0.881578 0.895713 -0.236871
C59   C     C_R   0.132367 0.618401 0.395753 -0.238994
C60   C     C_R   0.867663 0.381555 0.604288 -0.236866
H17   H     H_    0.340978 0.237340 0.108830 0.173979
H18   H     H_    0.658991 0.762610 0.891129 0.173701
H19   H     H_    0.159027 0.737383 0.391170 0.173944
H20   H     H_    0.841008 0.262563 0.608874 0.173715
C61   C     C_R   0.406777 0.139450 0.064105 0.367419
C62   C     C_R   0.593197 0.860500 0.935857 0.366125
C63   C     C_R   0.093228 0.639471 0.435898 0.367429
C64   C     C_R   0.906803 0.360476 0.564146 0.366100
C65   C     C_R   0.441993 0.984470 0.058320 -0.066144
C66   C     C_R   0.557979 0.015473 0.941640 -0.065843
C67   C     C_R   0.058011 0.484463 0.441685 -0.066170
C68   C     C_R   0.942023 0.515477 0.558362 -0.065846
C69   C     C_1   0.482926 0.995055 0.017144 0.163011
C70   C     C_1   0.517045 0.004880 0.982815 0.162822
C71   C     C_1   0.017077 0.495051 0.482860 0.162985
C72   C     C_1   0.982958 0.504880 0.517189 0.162799
N1    N     N_R   0.579814 0.215107 0.370812 0.263302
O21   O     O_R   0.562216 0.163288 0.314826 -0.314959
O22   O     O_R   0.607849 0.371635 0.378696 -0.308752
N2    N     N_R   0.412115 0.947541 0.638267 0.267755
O23   O     O_R   0.436006 0.866677 0.687499 -0.322837
O24   O     O_R   0.371476 0.055097 0.643824 -0.269903
N3    N     N_R   0.920683 0.721916 0.128516 0.263205
O25   O     O_R   0.938267 0.671863 0.184669 -0.314997
O26   O     O_R   0.892887 0.878826 0.120099 -0.310086
N4    N     N_R   0.087671 0.440886 0.861726 0.267790
O27   O     O_R   0.063636 0.358666 0.812810 -0.323144
O28   O     O_R   0.128412 0.547487 0.855726 -0.269532
H21   H     H_    0.407863 0.040558 0.368769 0.111014
H22   H     H_    0.588866 0.014498 0.634718 0.107904
H23   H     H_    0.092308 0.542678 0.130986 0.111247
H24   H     H_    0.911033 0.511438 0.865330 0.108032
N5    N     N_R   0.674137 0.071792 0.424641 0.265577
O29   O     O_R   0.659517 0.940677 0.383326 -0.274203
O30   O     O_R   0.717693 0.163729 0.420821 -0.278781
N6    N     N_R   0.334046 0.748684 0.566969 0.260448
O31   O     O_R   0.361655 0.609141 0.594120 -0.315057
O32   O     O_R   0.285311 0.764919 0.576473 -0.275446
N7    N     N_R   0.826101 0.578845 0.075349 0.265722
O33   O     O_R   0.840565 0.448990 0.117123 -0.273551
O34   O     O_R   0.782701 0.672031 0.078906 -0.279351
N8    N     N_R   0.165581 0.243147 0.933547 0.260342
O35   O     O_R   0.137802 0.103106 0.906923 -0.316312
O36   O     O_R   0.214310 0.258219 0.923892 -0.275651
N9    N     N_R   0.409416 0.317473 0.029696 0.232974
O37   O     O_R   0.368731 0.429297 0.020476 -0.361771
O38   O     O_R   0.452862 0.375791 0.010599 -0.378279
N10   N     N_R   0.590566 0.682484 0.970272 0.233136
O39   O     O_R   0.631259 0.570698 0.979502 -0.363582
O40   O     O_R   0.547124 0.624148 0.989373 -0.377979
N11   N     N_R   0.090593 0.817525 0.470308 0.232981
O41   O     O_R   0.131279 0.929397 0.479525 -0.361782
O42   O     O_R   0.047150 0.875816 0.489408 -0.378265
N12   N     N_R   0.909432 0.182428 0.529732 0.233132
O43   O     O_R   0.868737 0.070600 0.520498 -0.363528
O44   O     O_R   0.952875 0.124109 0.510637 -0.377980

loop_
_geom_bond_atom_site_label_1
_geom_bond_atom_site_label_2
_geom_bond_distance
_ccdc_geom_bond_type
O17   V3    1.690882 S    
C59   H19   1.083023 S    
C52   C56   1.404042 A    
O1    C5    1.293735 A    
C19   H4    1.084239 S    
C16   N8    1.436880 S    
O19   V1    1.690652 S    
C9    C21   1.400504 A    
O3    C7    1.293599 A    
C10   C18   1.389823 A    
C60   H20   1.083022 S    
C48   H12   1.083074 S    
C11   C23   1.400552 A    
C22   H21   1.076101 S    
C47   C51   1.403523 A    
N9    O37   1.301750 A    
C62   N10   1.443930 S    
N3    O25   1.301560 A    
C5    C12   1.476195 S    
O7    C3    1.317174 A    
C6    C11   1.474719 S    
C35   C40   1.408377 A    
C26   C30   1.427331 A    
C36   C39   1.408064 A    
C40   C44   1.395142 A    
O9    V1    1.992986 S    
N10   O40   1.300662 A    
C14   C18   1.397208 A    
C51   H15   1.082998 S    
N1    O22   1.301599 A    
O16   V4    1.966315 S    
O4    C8    1.293097 A    
C55   C59   1.409387 A    
N3    O26   1.301595 A    
C54   C58   1.409398 A    
C71   C72   1.215342 T    
O1    V3    1.985819 S    
O13   V1    1.966344 S    
C20   H3    1.084425 S    
O2    V4    1.985814 S    
O3    V1    1.985987 S    
C61   C65   1.418446 A    
C50   C54   1.404043 A    
C49   C53   1.404048 A    
C1    O15   1.307527 A    
C15   C31   1.427316 A    
C52   H16   1.082996 S    
C2    O16   1.307523 A    
C16   C32   1.426427 A    
C51   C55   1.404045 A    
O2    C6    1.293214 A    
N11   O41   1.301751 A    
C24   H23   1.076119 S    
C21   H22   1.075988 S    
C10   C22   1.401249 A    
C45   H9    1.083077 S    
C11   C19   1.388839 A    
C1    C55   1.495198 S    
C16   C20   1.397139 A    
N12   O44   1.300664 A    
C65   C69   1.457492 S    
C63   N11   1.443923 S    
C46   C50   1.403526 A    
C34   C37   1.408113 A    
O11   C7    1.291897 A    
O15   V3    1.966312 S    
C35   C36   1.428634 A    
O12   C8    1.291713 A    
C42   N2    1.437934 S    
C4    C54   1.495198 S    
O10   V2    1.992984 S    
N9    O38   1.300665 A    
N2    O24   1.301569 A    
O5    V1    1.967791 S    
O17   V1    2.144001 S    
C39   C43   1.395536 A    
C60   C64   1.411035 A    
O7    V3    1.967760 S    
C38   C42   1.395172 A    
O19   V3    2.144326 S    
C26   C34   1.440682 A    
O20   V4    2.144324 S    
N10   O39   1.301763 A    
N6    O32   1.301483 A    
C50   H14   1.082999 S    
C49   H13   1.082999 S    
O18   V4    1.690884 S    
C15   C19   1.397998 A    
C27   C31   1.427612 A    
C37   H5    1.074920 S    
C58   H18   1.083023 S    
C18   H1    1.084414 S    
C64   C68   1.418444 A    
O8    V4    1.967760 S    
O5    C1    1.317158 A    
C46   H10   1.083076 S    
C53   C57   1.409387 A    
C31   C43   1.415934 A    
C14   C30   1.426479 A    
C2    C56   1.495200 S    
O8    C4    1.317181 A    
C7    C10   1.476032 S    
C61   N9    1.443923 S    
C48   C68   1.405667 A    
C21   C25   1.426410 A    
C40   H8    1.074691 S    
O9    C5    1.291811 A    
C46   C66   1.405665 A    
C45   C65   1.405651 A    
N12   O43   1.301762 A    
O14   V2    1.966339 S    
O6    V2    1.967792 S    
O18   V2    2.144001 S    
C14   N6    1.436898 S    
N5    O29   1.301524 A    
C13   N5    1.436901 S    
C12   C20   1.389880 A    
C27   C35   1.440534 A    
C33   C38   1.408418 A    
C44   N4    1.437924 S    
C68   C72   1.457488 S    
C29   C41   1.415906 A    
N2    O23   1.301581 A    
C69   C70   1.215342 T    
C62   C66   1.418445 A    
C66   C70   1.457487 S    
C3    O13   1.307550 A    
N4    O28   1.301559 A    
C63   C67   1.418445 A    
C57   C61   1.411062 A    
N6    O31   1.301598 A    
C43   N3    1.437640 S    
O6    C2    1.317166 A    
C25   C33   1.440518 A    
C23   C27   1.426489 A    
N7    O33   1.301521 A    
O11   V3    1.992673 S    
C30   C42   1.415127 A    
O12   V4    1.992675 S    
C59   C63   1.411062 A    
C22   C26   1.426918 A    
C8    C9    1.474630 S    
C58   C62   1.411038 A    
C47   C67   1.405653 A    
C23   H24   1.075985 S    
C9    C17   1.388815 A    
O10   C6    1.291611 A    
O20   V2    1.690651 S    
C13   C29   1.427342 A    
C48   C52   1.403531 A    
C32   C44   1.415137 A    
N1    O21   1.301559 A    
C47   H11   1.083076 S    
N7    O34   1.301525 A    
C3    C53   1.495194 S    
C33   C34   1.428596 A    
C39   H7    1.074949 S    
N4    O27   1.301587 A    
C25   C29   1.427615 A    
C56   C60   1.409399 A    
C12   C24   1.401318 A    
N8    O36   1.301484 A    
N11   O42   1.300664 A    
C13   C17   1.398004 A    
C57   H17   1.083023 S    
C45   C49   1.403520 A    
C37   C41   1.395539 A    
C24   C28   1.427028 A    
C64   N12   1.443928 S    
C28   C36   1.440698 A    
C4    O14   1.307549 A    
N5    O30   1.301522 A    
C41   N1    1.437653 S    
N8    O35   1.301592 A    
C38   H6    1.074695 S    
C67   C71   1.457494 S    
C15   N7    1.436905 S    
O4    V2    1.985992 S    
C28   C32   1.427353 A    
C17   H2    1.084241 S    
