data_mof_unit_45088.cif
_audit_creation_date              2012-12-11T17:08:36-0500
_audit_creation_method            fapswitch 2.2
_symmetry_space_group_name_H-M    P1
_symmetry_Int_Tables_number       1
_space_group_crystal_system       triclinic
_cell_length_a                    6.969531
_cell_length_b                    14.515711
_cell_length_c                    16.079967
_cell_angle_alpha                 90.017784
_cell_angle_beta                  90.028567
_cell_angle_gamma                 90.007875
_cell_volume                      1626.77294615

loop_
_atom_site_label
_atom_site_type_symbol
_atom_type_description
_atom_site_fract_x
_atom_site_fract_y
_atom_site_fract_z
_atom_type_partial_charge
O1    O     O_R   0.505700 0.583890 0.413310 -0.534866
O2    O     O_R   0.175960 0.594920 0.586080 -0.526770
O3    O     O_R   0.005660 0.416110 0.586690 -0.539999
C1    C     C_R   0.344721 0.617223 0.614567 0.721899
O4    O     O_R   0.175980 0.594920 0.413930 -0.536113
O5    O     O_R   0.005680 0.416110 0.413310 -0.543665
C2    C     C_R   0.344704 0.617047 0.385298 0.711726
O6    O     O_R   0.505680 0.583890 0.586690 -0.535983
O7    O     O_3   0.339200 0.441330 0.500000 -0.379046
V1    V     V_3+5 0.064350 0.510880 0.500000 1.435637
O8    O     O_R   0.675960 0.405080 0.413920 -0.541769
C3    C     C_R   0.844956 0.382879 0.385366 0.685356
O9    O     O_R   0.675940 0.405080 0.586070 -0.546316
C4    C     C_R   0.844732 0.383079 0.614793 0.686622
V2    V     V_3+5 0.564340 0.489120 0.500000 1.411289
O10   O     O_3   0.839360 0.558670 0.500000 -0.349468
C5    C     C_R   0.007237 0.317129 0.741261 0.095606
C6    C     C_R   0.852718 0.317582 0.685460 -0.110346
C7    C     C_R   0.701010 0.255914 0.701282 -0.173234
H1    H     H_    0.578374 0.253857 0.660219 0.135284
C8    C     C_R   0.712196 0.191703 0.766814 -0.169666
H2    H     H_    0.597239 0.142393 0.774408 0.131043
C9    C     C_R   0.875736 0.186999 0.818323 -0.110670
C10   C     C_R   0.018743 0.253337 0.805873 0.099241
C11   C     C_3   0.229030 0.240724 0.793832 -0.405814
C12   C     C_3   0.216617 0.310623 0.723740 -0.399115
H3    H     H_    0.264629 0.170093 0.772067 0.171628
H4    H     H_    0.313465 0.265579 0.848042 0.172514
H5    H     H_    0.245805 0.280760 0.661350 0.173634
H6    H     H_    0.293127 0.376068 0.737577 0.163248
C13   C     C_R   0.725488 0.247335 0.189602 0.100050
C14   C     C_R   0.882035 0.187526 0.181359 -0.111247
C15   C     C_R   0.034538 0.198274 0.238036 -0.173868
H7    H     H_    0.157874 0.153445 0.234349 0.133308
C16   C     C_R   0.022879 0.262185 0.303876 -0.175595
H8    H     H_    0.138706 0.265530 0.348512 0.131090
C17   C     C_R   0.857725 0.316725 0.315329 -0.106999
C18   C     C_R   0.713547 0.310276 0.254942 0.096334
C19   C     C_3   0.504209 0.293626 0.265732 -0.415467
C20   C     C_3   0.517132 0.225416 0.194282 -0.394148
H9    H     H_    0.417196 0.355607 0.250706 0.169533
H10   H     H_    0.471477 0.260559 0.326422 0.173505
H11   H     H_    0.438179 0.248111 0.137808 0.172275
H12   H     H_    0.491140 0.152877 0.213396 0.169640
C21   C     C_R   0.503482 0.751240 0.687020 0.116806
C22   C     C_R   0.352215 0.687949 0.681008 -0.125621
C23   C     C_R   0.202264 0.696284 0.739358 -0.144427
H13   H     H_    0.080904 0.649998 0.736676 0.122416
C24   C     C_R   0.213852 0.760130 0.805331 -0.175040
H14   H     H_    0.100225 0.761747 0.851092 0.123033
C25   C     C_R   0.376536 0.816842 0.815299 -0.106924
C26   C     C_R   0.515747 0.813517 0.752658 0.072719
C27   C     C_3   0.728030 0.803533 0.758427 -0.437627
C28   C     C_3   0.714970 0.736493 0.685696 0.012278
H15   H     H_    0.772093 0.770036 0.817527 0.149022
H16   H     H_    0.804014 0.868852 0.743820 0.199671
H17   H     H_    0.754654 0.664623 0.702098 0.106278
C29   C     C_R   0.509074 0.747654 0.310679 0.135735
C30   C     C_R   0.352652 0.687730 0.318842 -0.111939
C31   C     C_R   0.200159 0.698453 0.262159 -0.176712
H18   H     H_    0.076822 0.653606 0.265820 0.129827
C32   C     C_R   0.211850 0.762316 0.196308 -0.180265
H19   H     H_    0.096056 0.765586 0.151655 0.129385
C33   C     C_R   0.377008 0.816870 0.184841 -0.112438
C34   C     C_R   0.521041 0.810554 0.245324 0.105028
C35   C     C_3   0.730487 0.794091 0.234709 -0.425998
C36   C     C_3   0.717524 0.725934 0.306167 -0.390290
H20   H     H_    0.817227 0.856164 0.249795 0.182532
H21   H     H_    0.763574 0.761000 0.174052 0.168708
H22   H     H_    0.796219 0.748768 0.362662 0.207203
H23   H     H_    0.743850 0.653401 0.287103 0.159206
O11   O     O_R   0.229000 0.916070 0.913330 -0.538560
O12   O     O_R   0.558770 0.905070 0.086080 -0.540062
O13   O     O_R   0.729000 0.083900 0.086690 -0.536319
C37   C     C_R   0.389789 0.882920 0.114711 0.692578
O14   O     O_R   0.558720 0.905070 0.913930 -0.540108
O15   O     O_R   0.728960 0.083900 0.913310 -0.539533
C38   C     C_R   0.389646 0.882898 0.885364 0.700350
O16   O     O_R   0.229050 0.916070 0.086710 -0.540255
O17   O     O_3   0.395460 0.058650 0.000020 -0.370157
V3    V     V_3+5 0.670340 0.989120 0.000000 1.394551
O18   O     O_R   0.058670 0.094960 0.913900 -0.538638
C39   C     C_R   0.889605 0.116793 0.885045 0.700549
O19   O     O_R   0.058720 0.094960 0.086050 -0.543074
C40   C     C_R   0.890021 0.116953 0.114794 0.696862
V4    V     V_3+5 0.170330 0.010930 0.999970 1.393738
O20   O     O_3   0.895340 0.941350 0.999980 -0.371704
I1    I     I_    0.839548 0.788952 0.573514 -0.413083

loop_
_geom_bond_atom_site_label_1
_geom_bond_atom_site_label_2
_ccdc_geom_bond_type
C35   H20   S    
C4    C6    S    
C7    H1    S    
C1    O6    A    
C23   C24   A    
C1    C22   S    
C21   C22   A    
C11   H4    S    
C17   C18   A    
C9    C39   S    
C5    C12   S    
C7    C8    A    
O14   C38   A    
O5    C3    A    
C18   C19   S    
C35   H21   S    
O15   C39   A    
V2    O10   S    
C13   C20   S    
C31   C32   A    
C6    C7    A    
O12   V3    S    
C3    C17   S    
O17   V4    S    
O8    V2    S    
C20   H11   S    
C13   C14   A    
C24   C25   A    
C32   C33   A    
C9    C10   A    
O1    V2    S    
O7    V1    S    
C35   C36   S    
C30   C31   A    
O9    C4    A    
O12   C37   A    
C2    C30   S    
C15   H7    S    
C19   H10   S    
C27   H15   S    
C5    C10   A    
C25   C26   A    
C10   C11   S    
C19   H9    S    
C19   C20   S    
O4    C2    A    
V4    O20   S    
C21   C26   A    
C29   C30   A    
O18   V4    S    
O18   C39   A    
C31   H18   S    
C16   H8    S    
O2    C1    A    
C32   H19   S    
C29   C34   A    
C23   H13   S    
O15   V3    S    
C5    C6    A    
O19   C40   A    
V3    O20   S    
O3    C4    A    
C21   C28   S    
C12   H6    S    
O6    V2    S    
O9    V2    S    
O13   V3    S    
O2    V1    S    
C26   C27   S    
C27   H16   S    
C22   C23   A    
C16   C17   A    
O1    C2    A    
O19   V4    S    
O17   V3    S    
O14   V3    S    
O5    V1    S    
O11   V4    S    
O8    C3    A    
C27   C28   S    
C11   H3    S    
C13   C18   A    
C36   H22   S    
C14   C15   A    
C8    C9    A    
C11   C12   S    
C25   C38   S    
O4    V1    S    
O3    V1    S    
V1    O10   S    
C33   C34   A    
C28   I1    S    
C14   C40   S    
C15   C16   A    
C33   C37   S    
C36   H23   S    
C34   C35   S    
O13   C40   A    
O7    V2    S    
C29   C36   S    
C20   H12   S    
C12   H5    S    
C24   H14   S    
O11   C38   A    
C8    H2    S    
C37   O16   A    
O16   V4    S    
C28   H17   S    
