data_mof_unit_56675.cif
_audit_creation_date              2012-12-10T17:37:31-0500
_audit_creation_method            fapswitch 2.2
_symmetry_space_group_name_H-M    P1
_symmetry_Int_Tables_number       1
_space_group_crystal_system       triclinic
_cell_length_a                    11.984454
_cell_length_b                    12.881123
_cell_length_c                    16.49456
_cell_angle_alpha                 90.936502
_cell_angle_beta                  80.356508
_cell_angle_gamma                 93.710301
_cell_volume                      2505.03595739

loop_
_atom_site_label
_atom_site_type_symbol
_atom_type_description
_atom_site_fract_x
_atom_site_fract_y
_atom_site_fract_z
_atom_type_partial_charge
C1    C     C_R   0.522441 0.700527 0.499756 0.897304
C2    C     C_R   0.558198 0.132509 0.474401 -0.216940
C3    C     C_R   0.446350 0.974024 0.515014 0.124651
C4    C     C_R   0.553579 0.026063 0.484845 0.126295
C5    C     C_R   0.963002 0.396147 0.428575 -0.281258
C6    C     C_R   0.036985 0.603836 0.571404 -0.287594
C7    C     C_R   0.845904 0.406847 0.435047 0.065038
C8    C     C_R   0.154083 0.593173 0.564916 0.061330
C9    C     C_R   0.854491 0.545767 0.530339 -0.035969
C10   C     C_R   0.145509 0.454191 0.469682 -0.038115
C11   C     C_R   0.972579 0.537959 0.525802 0.077532
C12   C     C_R   0.477559 0.299493 0.500227 0.895001
C13   C     C_R   0.027414 0.461994 0.474204 0.074540
C14   C     C_R   0.482834 0.497949 0.654663 0.850448
C15   C     C_R   0.516231 0.495622 0.345382 0.855729
C16   C     C_R   0.464684 0.467801 0.740318 -0.025666
C17   C     C_R   0.525331 0.463583 0.260073 -0.030144
C18   C     C_R   0.538201 0.506095 0.792414 -0.186913
C19   C     C_R   0.464680 0.510966 0.207424 -0.188351
C20   C     C_R   0.525287 0.468115 0.871982 -0.100715
C21   C     C_R   0.466494 0.472083 0.128221 -0.104177
C22   C     C_R   0.442460 0.387566 0.898675 0.127064
C23   C     C_R   0.463279 0.188142 0.501019 -0.071822
C24   C     C_R   0.524173 0.382102 0.102482 0.127259
C25   C     C_R   0.367941 0.350727 0.846392 -0.161284
C26   C     C_R   0.586268 0.336019 0.155298 -0.157410
C27   C     C_R   0.378366 0.391377 0.767828 -0.170625
C28   C     C_R   0.587673 0.377188 0.233490 -0.177362
C29   C     C_2   0.430419 0.346872 0.983076 -0.058690
C30   C     C_2   0.524187 0.340624 0.018497 -0.061439
C31   C     C_2   0.634692 0.312451 0.969998 0.378217
C32   C     C_2   0.313863 0.333829 0.031817 0.376229
C33   C     C_2   0.769323 0.017821 0.440000 0.365463
C34   C     C_R   0.536694 0.811927 0.498921 -0.080189
C35   C     C_2   0.230648 0.982357 0.560119 0.366426
C36   C     C_R   0.652706 0.969761 0.464755 0.005165
C37   C     C_R   0.347262 0.030360 0.535248 0.006403
C38   C     C_R   0.641709 0.862079 0.469390 -0.291517
C39   C     C_R   0.358312 0.138039 0.530731 -0.287765
C40   C     C_R   0.441702 0.867557 0.525355 -0.219953
H1    H     H_    0.604974 0.565110 0.771592 0.135173
H2    H     H_    0.632114 0.267513 0.136559 0.130787
H3    H     H_    0.635677 0.173764 0.445707 0.196356
H4    H     H_    0.364150 0.826287 0.553886 0.199471
H5    H     H_    0.284635 0.182871 0.549361 0.159199
H6    H     H_    0.715458 0.817282 0.450962 0.161587
H7    H     H_    0.189044 0.396357 0.430175 0.139034
H8    H     H_    0.810963 0.603590 0.569860 0.127506
H9    H     H_    0.712942 0.331899 0.993333 0.054497
H10   H     H_    0.242785 0.363275 0.008275 0.054408
H11   H     H_    0.421802 0.511764 0.087254 0.115617
H12   H     H_    0.416482 0.577723 0.227525 0.144491
H13   H     H_    0.580849 0.501014 0.912490 0.114048
H14   H     H_    0.830688 0.976769 0.397427 0.077598
H15   H     H_    0.169446 0.023348 0.602877 0.077114
H16   H     H_    0.203433 0.644224 0.600058 0.137335
H17   H     H_    0.796543 0.355857 0.399858 0.131040
H18   H     H_    0.002667 0.336914 0.388330 0.163667
H19   H     H_    0.997317 0.663088 0.611627 0.156010
H20   H     H_    0.633657 0.338942 0.274502 0.138268
H21   H     H_    0.321976 0.360028 0.727269 0.148627
H22   H     H_    0.302990 0.289652 0.865843 0.131342
N1    N     N_R   0.206400 0.519440 0.514690 -0.107636
N2    N     N_R   0.793600 0.480560 0.485310 -0.104769
O1    O     O_R   0.421320 0.658850 0.503920 -0.616416
O2    O     O_2   0.295934 0.288062 0.097444 -0.536573
O3    O     O_2   0.800605 0.099151 0.470719 -0.569084
O4    O     O_2   0.199173 0.901169 0.529296 -0.574080
O5    O     O_R   0.578680 0.341150 0.496080 -0.616526
O6    O     O_R   0.609840 0.646370 0.494500 -0.623447
O7    O     O_R   0.390160 0.353630 0.505500 -0.625974
O8    O     O_R   0.394600 0.506990 0.621070 -0.626259
O9    O     O_R   0.605400 0.493010 0.378930 -0.623703
O10   O     O_R   0.583120 0.494520 0.611640 -0.598375
O11   O     O_R   0.416880 0.505480 0.388360 -0.600676
O12   O     O_2   0.638976 0.265250 0.904827 -0.529257
Zn1   Zn    Zn3+2 0.374120 0.508330 0.506290 0.954666
Zn2   Zn    Zn3+2 0.625880 0.491670 0.493710 0.958740

loop_
_geom_bond_atom_site_label_1
_geom_bond_atom_site_label_2
_ccdc_geom_bond_type
C15   O11   A    
C12   O5    A    
C4    C36   A    
C22   C29   S    
O6    Zn2   S    
C9    N2    A    
C10   N1    A    
O7    Zn1   S    
C8    H16   S    
C12   C23   S    
C26   H2    S    
C29   C30   D    
C5    H18   S    
C34   C40   A    
C14   O10   A    
C35   C37   S    
C24   C26   A    
C29   C32   S    
C30   C31   S    
C33   C36   S    
C27   H21   S    
C19   H12   S    
C22   C25   A    
C1    O1    A    
O9    Zn2   S    
C5    C13   A    
C39   H5    S    
C16   C27   A    
O5    Zn2   S    
N2    Zn2   S    
C31   H9    S    
C1    C34   S    
C28   H20   S    
C10   H7    S    
O1    Zn1   S    
C35   H15   S    
C18   H1    S    
C6    C11   A    
C5    C7    A    
C6    C8    A    
C2    C4    A    
O8    Zn1   S    
O11   Zn1   S    
C2    H3    S    
C9    C11   A    
C32   H10   S    
C15   O9    A    
C12   O7    A    
C20   C22   A    
C3    C40   A    
C14   C16   S    
C3    C4    A    
C21   H11   S    
C33   O3    D    
C32   O2    D    
N1    Zn1   S    
C33   H14   S    
C15   C17   S    
C19   C21   A    
C34   C38   A    
C17   C28   A    
C14   O8    A    
C6    H19   S    
C20   H13   S    
C10   C13   A    
C25   C27   A    
C26   C28   A    
C1    O6    A    
C36   C38   A    
C37   C39   A    
C11   C13   A    
C31   O12   D    
C35   O4    D    
C23   C39   A    
C17   C19   A    
C18   C20   A    
C25   H22   S    
C24   C30   S    
C7    N2    A    
C38   H6    S    
C8    N1    A    
C40   H4    S    
C3    C37   A    
C9    H8    S    
C16   C18   A    
O10   Zn2   S    
C21   C24   A    
C2    C23   A    
C7    H17   S    
