data_mof_unit_12231.cif
_audit_creation_date              2012-12-11T17:44:07-0500
_audit_creation_method            fapswitch 2.2
_symmetry_space_group_name_H-M    P1
_symmetry_Int_Tables_number       1
_space_group_crystal_system       triclinic
_cell_length_a                    20.243848
_cell_length_b                    22.729942
_cell_length_c                    6.943146
_cell_angle_alpha                 89.994573
_cell_angle_beta                  86.796961
_cell_angle_gamma                 89.999326
_cell_volume                      3189.83858116

loop_
_atom_site_label
_atom_site_type_symbol
_atom_type_description
_atom_site_fract_x
_atom_site_fract_y
_atom_site_fract_z
_atom_type_partial_charge
O1    O     O_R   0.751270 0.447300 0.600030 -0.541534
O2    O     O_R   0.248730 0.947300 0.399970 -0.541405
O3    O     O_R   0.613530 0.440160 0.952150 -0.536961
O4    O     O_R   0.386470 0.940160 0.047850 -0.536579
O5    O     O_R   0.613050 0.552700 0.122560 -0.535122
O6    O     O_R   0.386950 0.052700 0.877440 -0.534311
C1    C     C_R   0.591557 0.425423 0.787098 0.700956
C2    C     C_R   0.408431 0.925411 0.212929 0.701676
O7    O     O_R   0.750780 0.440350 0.929820 -0.543836
O8    O     O_R   0.249220 0.940350 0.070180 -0.543776
O9    O     O_R   0.751280 0.552900 0.100070 -0.542069
O10   O     O_R   0.248720 0.052900 0.899930 -0.542237
C3    C     C_R   0.773912 0.426110 0.757358 0.694213
C4    C     C_R   0.226085 0.926113 0.242650 0.695011
O11   O     O_R   0.613040 0.447100 0.622520 -0.535423
O12   O     O_R   0.386960 0.947100 0.377480 -0.535246
O13   O     O_3   0.682160 0.536920 0.777780 -0.367275
O14   O     O_3   0.317840 0.036920 0.222220 -0.367791
V1    V     V_3+5 0.682160 0.493150 0.052630 1.415327
V2    V     V_3+5 0.317840 0.993150 0.947370 1.417922
O15   O     O_R   0.750790 0.559840 0.429870 -0.543770
O16   O     O_R   0.249210 0.059840 0.570130 -0.543834
C5    C     C_R   0.773778 0.574222 0.257390 0.689939
C6    C     C_R   0.226222 0.074222 0.742601 0.689653
O17   O     O_R   0.613540 0.559650 0.452200 -0.535296
O18   O     O_R   0.386460 0.059650 0.547800 -0.536237
C7    C     C_R   0.591650 0.574440 0.287098 0.707928
C8    C     C_R   0.408358 0.074433 0.712874 0.706766
V3    V     V_3+5 0.682160 0.506850 0.552630 1.418130
V4    V     V_3+5 0.317840 0.006850 0.447370 1.418075
O19   O     O_3   0.682150 0.463080 0.277610 -0.368183
O20   O     O_3   0.317850 0.963080 0.722390 -0.367565
C9    C     C_R   0.579047 0.860030 0.156153 -0.155350
C10   C     C_R   0.421039 0.359924 0.845652 -0.159486
H1    H     H_    0.537830 0.946526 0.135825 0.111987
H2    H     H_    0.462223 0.446423 0.866112 0.109232
H3    H     H_    0.669856 0.776056 0.144805 0.128513
H4    H     H_    0.330281 0.275926 0.857690 0.128091
H5    H     H_    0.628828 0.875661 0.120659 0.120519
H6    H     H_    0.371286 0.375503 0.882020 0.117052
C11   C     C_R   0.462652 0.882062 0.211235 -0.044924
C12   C     C_R   0.537350 0.382062 0.788925 -0.044071
C13   C     C_R   0.472831 0.595709 0.333856 -0.204341
C14   C     C_R   0.527107 0.095747 0.664877 -0.168924
C15   C     C_R   0.418306 0.633573 0.344555 0.261438
C16   C     C_R   0.581518 0.133398 0.652693 0.260425
C17   C     C_R   0.427447 0.693842 0.312708 -0.159296
C18   C     C_R   0.572592 0.193842 0.685948 -0.196422
C19   C     C_R   0.490974 0.717826 0.268268 0.026215
C20   C     C_R   0.509078 0.217808 0.731362 0.042315
C21   C     C_R   0.546199 0.678371 0.255532 0.064263
C22   C     C_R   0.453849 0.178347 0.744632 0.064330
C23   C     C_R   0.501485 0.779632 0.236384 0.089110
C24   C     C_R   0.498570 0.279610 0.763732 0.089107
C25   C     C_R   0.566895 0.800032 0.190802 0.138397
C26   C     C_R   0.433191 0.299957 0.810398 0.138126
C27   C     C_R   0.619940 0.760559 0.179205 -0.197554
C28   C     C_R   0.380168 0.260466 0.822483 -0.200702
C29   C     C_R   0.609911 0.700817 0.211352 -0.176570
C30   C     C_R   0.390176 0.200754 0.789802 -0.177130
C31   C     C_R   0.449677 0.822150 0.247160 -0.213011
C32   C     C_R   0.550327 0.322187 0.752352 -0.213986
C33   C     C_R   0.527353 0.900540 0.165159 -0.168119
C34   C     C_R   0.472695 0.400467 0.836193 -0.171536
C35   C     C_R   0.536513 0.617185 0.289135 -0.121288
C36   C     C_R   0.463487 0.117180 0.710661 -0.139354
H7    H     H_    0.398795 0.810330 0.280701 0.095227
H8    H     H_    0.601187 0.310472 0.717892 0.094994
H9    H     H_    0.465704 0.549082 0.360655 0.104591
H10   H     H_    0.534567 0.049160 0.637817 0.120195
H11   H     H_    0.383562 0.720672 0.324154 0.125417
H12   H     H_    0.616222 0.220941 0.674849 0.108344
H13   H     H_    0.652750 0.672227 0.200902 0.109207
H14   H     H_    0.347350 0.172152 0.800677 0.110223
C37   C     C_R   0.170943 0.882568 0.260970 -0.047515
C38   C     C_R   0.829046 0.382558 0.739047 -0.047309
C39   C     C_R   0.143529 0.858622 0.096182 -0.215642
C40   C     C_R   0.856485 0.358629 0.903836 -0.217235
C41   C     C_R   0.091105 0.818299 0.113716 -0.140815
C42   C     C_R   0.908903 0.318299 0.886298 -0.142181
C43   C     C_R   0.064673 0.800827 0.297599 0.428421
C44   C     C_R   0.935303 0.300806 0.702411 0.428311
C45   C     C_R   0.092246 0.824562 0.461219 -0.180724
C46   C     C_R   0.907702 0.324523 0.538794 -0.183623
C47   C     C_R   0.144571 0.864871 0.443751 -0.196976
C48   C     C_R   0.855384 0.364837 0.556265 -0.199659
C49   C     C_R   0.908235 0.682543 0.386290 -0.142324
C50   C     C_R   0.091735 0.182521 0.613697 -0.142803
C51   C     C_R   0.856021 0.642009 0.403840 -0.215849
C52   C     C_R   0.143951 0.141989 0.596143 -0.215996
C53   C     C_R   0.934431 0.700249 0.202398 0.428290
C54   C     C_R   0.065566 0.200244 0.797592 0.428091
N1    N     N_2   0.011081 0.760040 0.325670 -0.308616
N2    N     N_2   0.988890 0.260016 0.674333 -0.309336
N3    N     N_2   0.987968 0.741094 0.174315 -0.308735
N4    N     N_2   0.012033 0.241090 0.825682 -0.309311
C55   C     C_R   0.828603 0.618068 0.239060 -0.046860
C56   C     C_R   0.171396 0.118066 0.760922 -0.046745
H15   H     H_    0.837340 0.629278 0.546966 0.132838
H16   H     H_    0.162610 0.129245 0.453018 0.132721
H17   H     H_    0.927928 0.699726 0.516672 0.134662
H18   H     H_    0.072020 0.199691 0.483318 0.134429
H19   H     H_    0.072875 0.811807 0.603685 0.120451
H20   H     H_    0.927048 0.311750 0.396326 0.120310
H21   H     H_    0.164218 0.882258 0.573983 0.133073
H22   H     H_    0.835715 0.382211 0.426032 0.133058
C57   C     C_R   0.854652 0.636079 0.056276 -0.199803
C58   C     C_R   0.145375 0.136094 0.943707 -0.199902
C59   C     C_R   0.906771 0.676596 0.038790 -0.183415
C60   C     C_R   0.093255 0.176609 0.961197 -0.183859
H23   H     H_    0.834939 0.618750 0.926056 0.133607
H24   H     H_    0.165110 0.118780 0.073927 0.133496
H25   H     H_    0.071477 0.801052 0.983329 0.134839
H26   H     H_    0.928553 0.301066 0.016682 0.134455
H27   H     H_    0.925948 0.689543 0.896318 0.120678
H28   H     H_    0.074100 0.189569 0.103669 0.120422
H29   H     H_    0.162414 0.871149 0.953057 0.132819
H30   H     H_    0.837626 0.371174 0.046960 0.132425
N5    N     N_3   0.352822 0.611636 0.390607 -0.661622
H31   H     H_    0.325365 0.617703 0.269034 0.228255
H32   H     H_    0.354053 0.566326 0.416177 0.225037
N6    N     N_3   0.646028 0.109262 0.606674 -0.661142
H33   H     H_    0.682114 0.142144 0.608070 0.226897
H34   H     H_    0.646469 0.093408 0.465231 0.228008

loop_
_geom_bond_atom_site_label_1
_geom_bond_atom_site_label_2
_ccdc_geom_bond_type
C9    C25   A    
C10   C26   A    
C44   N2    S    
C49   C53   A    
O13   V3    S    
C14   C36   A    
C11   C31   A    
O4    C2    A    
V1    O19   S    
C17   C19   A    
O9    V1    S    
C9    H5    S    
C45   H19   S    
C51   H15   S    
C6    C56   S    
C38   C40   A    
C40   H30   S    
C46   C48   A    
C60   H28   S    
O3    C1    A    
C40   C42   A    
C27   C29   A    
C28   C30   A    
C54   N4    S    
C56   C58   A    
C21   C35   A    
C15   C17   A    
O9    C5    A    
C52   H16   S    
O7    C3    A    
C22   C30   A    
C49   H17   S    
C23   C31   A    
O7    V1    S    
O6    C8    A    
C50   C54   A    
O8    V2    S    
C19   C21   A    
C20   C22   A    
O3    V1    S    
O14   V4    S    
C12   C32   A    
C9    C33   A    
C15   N5    S    
N5    H32   S    
C2    O12   A    
O5    C7    A    
C57   C59   A    
C48   H22   S    
C18   H12   S    
C47   H21   S    
C10   C34   A    
O18   C8    A    
C43   C45   A    
C14   C16   A    
O11   V3    S    
C16   C18   A    
C23   C25   A    
O15   C5    A    
O17   V3    S    
C24   C26   A    
C2    C11   S    
C42   C44   A    
O8    C4    A    
C41   C43   A    
C1    O11   A    
C24   C32   A    
O15   V3    S    
C58   H24   S    
C51   C55   A    
O4    V2    S    
C8    C36   S    
C1    C12   S    
C7    C35   S    
C43   N1    S    
C31   H7    S    
C3    C38   S    
C13   C35   A    
O10   V2    S    
O1    V3    S    
C39   C41   A    
H4    C28   S    
N2    N4    D    
C18   C20   A    
C37   C39   A    
C17   H11   S    
C10   H6    S    
C45   C47   A    
C42   H26   S    
O18   V4    S    
C44   C46   A    
C25   C27   A    
C46   H20   S    
O16   C6    A    
O1    C3    A    
C11   C33   A    
N6    H34   S    
C12   C34   A    
C20   C24   A    
C22   C36   A    
C14   H10   S    
C37   C47   A    
V2    O20   S    
C29   H13   S    
O16   V4    S    
C5    C55   S    
C57   H23   S    
C13   H9    S    
C50   C52   A    
C50   H18   S    
N5    H31   S    
C58   C60   A    
O5    V1    S    
O17   C7    A    
O6    V2    S    
O10   C6    A    
C39   H29   S    
C32   H8    S    
O2    V4    S    
C4    C37   S    
C53   C59   A    
C41   H25   S    
C13   C15   A    
V4    O20   S    
C54   C60   A    
N1    N3    D    
C19   C23   A    
C30   H14   S    
O13   V1    S    
C26   C28   A    
O14   V2    S    
O2    C4    A    
C59   H27   S    
C53   N3    S    
C55   C57   A    
C21   C29   A    
V3    O19   S    
C38   C48   A    
C49   C51   A    
C16   N6    S    
H1    C33   S    
N6    H33   S    
H2    C34   S    
O12   V4    S    
C52   C56   A    
H3    C27   S    
