data_mof_unit_55937.cif
_audit_creation_date              2012-12-11T17:10:35-0500
_audit_creation_method            fapswitch 2.2
_symmetry_space_group_name_H-M    P1
_symmetry_Int_Tables_number       1
_space_group_crystal_system       triclinic
_cell_length_a                    15.069293
_cell_length_b                    14.979446
_cell_length_c                    14.874835
_cell_angle_alpha                 109.001109
_cell_angle_beta                  110.186677
_cell_angle_gamma                 108.684431
_cell_volume                      2601.50570939

loop_
_atom_site_label
_atom_site_type_symbol
_atom_type_description
_atom_site_fract_x
_atom_site_fract_y
_atom_site_fract_z
_atom_type_partial_charge
C1    C     C_R   0.203114 0.296632 0.197448 0.522497
C2    C     C_R   0.405610 0.496591 0.195145 -0.127151
C3    C     C_R   0.559355 0.813689 0.589405 -0.061541
C4    C     C_R   0.523941 0.432254 0.746050 -0.124915
C5    C     C_R   0.723405 0.464521 0.408397 -0.140459
C6    C     C_R   0.545354 0.821837 0.495773 0.135079
C7    C     C_R   0.825014 0.538761 0.501710 0.060794
C8    C     C_R   0.437045 0.436684 0.133086 0.096754
C9    C     C_R   0.815575 0.814966 0.843808 0.058720
C10   C     C_R   0.075882 0.588782 0.178644 -0.140121
C11   C     C_R   0.083473 0.618594 0.281639 -0.139840
C12   C     C_R   0.446762 0.446812 0.770904 0.076729
C13   C     C_R   0.015737 0.543137 0.297133 0.106933
C14   C     C_R   0.938904 0.438475 0.207979 -0.180256
C15   C     C_R   0.932463 0.408842 0.105733 -0.080761
C16   C     C_R   0.499129 0.199510 0.406903 -0.066651
C17   C     C_R   0.001394 0.483727 0.091310 -0.054200
C18   C     C_R   0.933294 0.564118 0.413165 -0.249629
C19   C     C_R   0.929348 0.571890 0.507830 0.050282
C20   C     C_R   0.023147 0.600722 0.602513 0.143716
C21   C     C_R   0.114953 0.615140 0.597113 -0.179362
C22   C     C_R   0.116060 0.594448 0.499155 0.042253
C23   C     C_R   0.557096 0.193790 0.496589 0.130394
C24   C     C_R   0.024712 0.571556 0.405940 0.049235
C25   C     C_R   0.092743 0.701064 0.805115 0.535510
C26   C     C_R   0.097304 0.701196 0.901264 -0.418978
C27   C     C_R   0.040846 0.604841 0.897903 -0.215066
C28   C     C_R   0.299025 0.606721 0.587904 0.502520
C29   C     C_R   0.980842 0.506472 0.799726 0.601741
C30   C     C_R   0.976147 0.505623 0.703303 -0.414155
C31   C     C_R   0.029123 0.602744 0.704969 -0.043390
C32   C     C_R   0.461443 0.360771 0.883738 0.069121
C33   C     C_R   0.403636 0.401100 0.829382 -0.106792
C34   C     C_R   0.203844 0.574749 0.495885 -0.117314
C35   C     C_R   0.332847 0.427962 0.860305 0.626206
C36   C     C_R   0.334499 0.427666 0.955641 -0.383591
C37   C     C_R   0.406028 0.402838 0.018562 -0.004969
C38   C     C_R   0.463283 0.362223 0.977870 0.137963
C39   C     C_3   0.444689 0.248988 0.939064 -0.484150
C40   C     C_R   0.591622 0.287532 0.589847 -0.157819
C41   C     C_3   0.442143 0.247286 0.836434 -0.426163
C42   C     C_R   0.514681 0.916377 0.391655 -0.139444
C43   C     C_R   0.578814 0.920164 0.488242 -0.018376
C44   C     C_R   0.662397 0.021695 0.580638 0.626751
C45   C     C_R   0.476023 0.719215 0.406190 -0.129134
C46   C     C_R   0.663482 0.116260 0.579354 -0.374268
C47   C     C_R   0.582796 0.107362 0.488451 0.045548
C48   C     C_R   0.518707 0.008643 0.390707 -0.161755
C49   C     C_3   0.399522 0.949839 0.304647 1.054819
C50   C     C_3   0.394980 0.848558 0.309790 0.170768
C51   C     C_R   0.000964 0.105079 0.025585 0.122482
C52   C     C_R   0.200619 0.503684 0.406728 -0.167582
C53   C     C_R   0.100083 0.112576 0.038857 0.041205
C54   C     C_R   0.102365 0.023307 0.972414 -0.163798
C55   C     C_R   0.008362 0.923679 0.907747 -0.193636
C56   C     C_R   0.811359 0.564564 0.591344 -0.099474
C57   C     C_R   0.913887 0.914969 0.910953 0.052426
C58   C     C_R   0.909180 0.007456 0.961762 0.150648
C59   C     C_3   0.864937 0.031230 0.036756 -0.547362
C60   C     C_3   0.966956 0.139760 0.109019 -0.451453
C61   C     C_R   0.433716 0.525561 0.747004 -0.090640
C62   C     C_R   0.288156 0.199178 0.197862 -0.201976
C63   C     C_R   0.196572 0.201286 0.136246 -0.103321
C64   C     C_3   0.249978 0.534574 0.854247 -0.250220
C65   C     C_3   0.770871 0.107030 0.771198 -0.292697
C66   C     C_3   0.230246 0.936563 0.266319 -0.073863
C67   C     C_R   0.498921 0.407700 0.197635 -0.142291
C68   C     C_3   0.454671 0.942397 0.170274 -0.425278
C69   C     C_R   0.716038 0.807191 0.792074 -0.088791
C70   C     C_R   0.807331 0.715629 0.794273 -0.160683
H1    H     H_    0.870835 0.624889 0.674277 0.111617
H2    H     H_    0.141767 0.699855 0.349145 0.155675
H3    H     H_    0.554304 0.377763 0.755563 0.113352
H4    H     H_    0.885904 0.379207 0.218525 0.114050
H5    H     H_    0.874566 0.327641 0.037901 0.096933
H6    H     H_    0.862394 0.544940 0.341660 0.134269
H7    H     H_    0.181215 0.627758 0.667928 0.153307
H8    H     H_    0.144291 0.775962 0.978815 0.177889
H9    H     H_    0.044623 0.606822 0.972404 0.143022
H10   H     H_    0.930000 0.429994 0.626630 0.158356
H11   H     H_    0.475553 0.150469 0.322573 0.118981
H12   H     H_    0.523969 0.348851 0.170639 0.097503
H13   H     H_    0.283290 0.450139 0.982793 0.149388
H14   H     H_    0.515712 0.245475 0.990912 0.180713
H15   H     H_    0.365654 0.191836 0.923927 0.204030
H16   H     H_    0.511484 0.242452 0.828726 0.182197
H17   H     H_    0.361503 0.189443 0.761004 0.206445
H18   H     H_    0.721026 0.194974 0.650757 0.145890
H19   H     H_    0.373401 0.781723 0.231139 0.017513
H20   H     H_    0.177521 0.028289 0.977946 0.132550
H21   H     H_    0.010684 0.853696 0.859341 0.156979
H22   H     H_    0.790891 0.037348 0.998949 0.190396
H23   H     H_    0.692196 0.867612 0.816474 0.096770
H24   H     H_    0.858721 0.978447 0.074894 0.208096
H25   H     H_    0.951128 0.208235 0.113682 0.207187
H26   H     H_    0.019940 0.150174 0.189638 0.196415
H27   H     H_    0.650853 0.315681 0.673321 0.111234
H28   H     H_    0.143371 0.466923 0.320993 0.198782
H29   H     H_    0.382627 0.559613 0.757506 0.177291
H30   H     H_    0.313076 0.139883 0.171847 0.141700
H31   H     H_    0.449170 0.696071 0.320966 0.098053
H32   H     H_    0.109574 0.306837 0.078265 0.310134
H33   H     H_    0.191237 0.855834 0.883203 0.311580
H34   H     H_    0.866853 0.691405 0.823688 0.108913
H35   H     H_    0.892140 0.350722 0.725874 0.309931
H36   H     H_    0.329078 0.602774 0.926671 0.123561
H37   H     H_    0.190150 0.505731 0.879568 0.168084
H38   H     H_    0.218411 0.566642 0.800699 0.179353
H39   H     H_    0.700744 0.113925 0.775298 0.129709
H40   H     H_    0.834230 0.185381 0.791390 0.181774
H41   H     H_    0.807147 0.087057 0.835226 0.173540
H42   H     H_    0.183411 0.951674 0.307283 0.142671
H43   H     H_    0.220542 0.971366 0.210280 0.138867
H44   H     H_    0.195106 0.847421 0.218256 0.116641
H45   H     H_    0.345459 0.520124 0.165812 0.108194
H46   H     H_    0.475987 0.879194 0.175696 0.155071
H47   H     H_    0.528031 0.023518 0.221572 0.168427
H48   H     H_    0.422151 0.924642 0.083594 0.210732
H49   H     H_    0.301215 0.737637 0.324371 0.311933
H50   H     H_    0.324468 0.749197 0.676582 0.324445
H51   H     H_    0.603365 0.878756 0.672692 0.128858
H52   H     H_    0.703818 0.426079 0.323727 0.096336
H53   H     H_    0.996964 0.460103 0.012407 0.148636
H54   H     H_    0.127951 0.646784 0.166392 0.107453
N1    N     N_R   0.291070 0.347930 0.293870 -0.069081
N2    N     N_R   0.497240 0.291100 0.443210 -0.049435
N3    N     N_R   0.347890 0.554050 0.556810 -0.073270
N4    N     N_R   0.554050 0.347900 0.556830 -0.044625
N5    N     N_R   0.291070 0.497250 0.443190 -0.068112
N6    N     N_R   0.497240 0.554030 0.706140 -0.050077
N7    N     N_R   0.347890 0.291110 0.293870 -0.063768
N8    N     N_R   0.445950 0.652100 0.443170 -0.049628
N9    N     N_R   0.708930 0.502750 0.556810 -0.046476
N10   N     N_R   0.502760 0.445970 0.293860 -0.042879
N11   N     N_R   0.652110 0.708890 0.706130 -0.042402
N12   N     N_R   0.708930 0.652070 0.706130 -0.042024
N13   N     N_R   0.445950 0.502780 0.293850 -0.042771
N14   N     N_R   0.502760 0.708900 0.556790 -0.050841
N15   N     N_R   0.652110 0.445950 0.443190 -0.045119
N16   N     N_R   0.554050 0.497220 0.706150 -0.049527
Ni1   Ni    Ni4+2 0.369690 0.500010 0.369700 0.245469
Ni2   Ni    Ni4+2 0.630310 0.499990 0.630300 0.218349
Ni3   Ni    Ni4+2 0.500000 0.369720 0.369720 0.202741
Ni4   Ni    Ni4+2 0.500000 0.630280 0.630280 0.260945
O1    O     O_3   0.150787 0.348107 0.159636 -0.800781
O2    O     O_3   0.148560 0.795279 0.806531 -0.766872
O3    O     O_3   0.928232 0.412905 0.800580 -0.803349
O4    O     O_3   0.260314 0.447958 0.792932 -0.625071
O5    O     O_3   0.739435 0.024188 0.668238 -0.623595
O6    O     O_3   0.340284 0.988234 0.347735 -0.619739
O7    O     O_3   0.374381 0.941866 0.199076 -0.687469
O8    O     O_3   0.335438 0.817396 0.359230 -0.727603
O9    O     O_3   0.356286 0.702097 0.686126 -0.792192

loop_
_geom_bond_atom_site_label_1
_geom_bond_atom_site_label_2
_ccdc_geom_bond_type
C25   C31   A    
C15   H5    S    
C66   H43   S    
C27   C29   A    
C53   C63   S    
C1    O1    S    
C35   C36   A    
C3    C6    A    
N6    N16   A    
N10   N13   A    
C56   N9    A    
N11   N12   A    
C39   C41   S    
C53   C54   A    
C41   H16   S    
C26   C27   A    
C26   H8    S    
C49   O6    S    
C18   C24   A    
C52   N5    A    
C14   H4    S    
C16   H11   S    
C36   C37   A    
C6    C45   A    
C37   C38   A    
N16   Ni2   S    
C39   H14   S    
C54   H20   S    
C10   H54   S    
H32   O1    S    
C30   C31   A    
C70   H34   S    
N5    Ni1   S    
C10   C17   A    
N8    N14   A    
C23   C40   A    
C40   N4    A    
N2    Ni3   S    
N8    Ni1   S    
C18   C19   A    
C65   H41   S    
N12   Ni2   S    
C3    N14   A    
C68   H48   S    
N10   Ni3   S    
C46   C47   A    
N15   Ni3   S    
C17   H53   S    
C19   C20   A    
N1    Ni1   S    
C55   H21   S    
C32   C41   S    
C64   H38   S    
C25   O2    S    
C59   H24   S    
C32   C38   A    
C4    C12   A    
C29   C30   A    
N6    Ni4   S    
C28   N3    A    
C59   H22   S    
C30   H10   S    
C28   C34   A    
C59   C60   S    
C69   N11   A    
C13   C14   A    
C64   O4    S    
C70   N12   A    
N3    Ni4   S    
C61   H29   S    
C7    C56   A    
C22   C34   S    
C1    C63   A    
C44   C46   A    
C5    N15   A    
C46   H18   S    
C41   H17   S    
C23   C47   S    
C49   O7    S    
C67   N10   A    
C9    C70   A    
C40   H27   S    
C5    C7    A    
C11   H2    S    
C58   C59   S    
C5    H52   S    
C13   C24   S    
C51   C53   A    
C43   C44   A    
N3    N5    A    
C62   C63   A    
C68   H47   S    
C4    N16   A    
C2    H45   S    
N1    N7    A    
C50   H19   S    
C47   C48   A    
C56   H1    S    
N9    Ni2   S    
C51   C58   A    
C42   C48   A    
C65   H39   S    
C4    H3    S    
C45   H31   S    
C61   N6    A    
C42   C50   S    
C62   H30   S    
C60   H26   S    
C48   C49   S    
C68   H46   S    
N9    N15   A    
C16   C23   A    
C7    C19   S    
C6    C43   S    
C55   C57   A    
C28   O9    S    
C22   C24   A    
C8    C37   S    
C39   H15   S    
C45   N8    A    
N7    Ni3   S    
C64   H37   S    
C69   H23   S    
H49   O8    S    
C15   C17   A    
N13   Ni1   S    
C54   C55   A    
N11   Ni4   S    
N2    N4    A    
C66   H44   S    
C2    N13   A    
C34   C52   A    
C62   N7    A    
C2    C8    A    
C8    C67   A    
C9    C69   A    
C29   O3    S    
C66   O6    S    
C64   H36   S    
C27   H9    S    
C44   O5    S    
C1    N1    A    
C32   C33   A    
C25   C26   A    
C68   O7    S    
N14   Ni4   S    
C12   C61   A    
C11   C13   A    
C57   C58   A    
C38   C39   S    
N4    Ni2   S    
C52   H28   S    
H50   O9    S    
C33   C35   A    
C9    C57   S    
C35   O4    S    
C65   O5    S    
C65   H40   S    
C10   C11   A    
C60   H25   S    
C50   O8    S    
C20   C21   A    
C67   H12   S    
C49   C50   S    
C42   C43   A    
C21   H7    S    
C14   C15   A    
C51   C60   S    
C36   H13   S    
C66   H42   S    
C12   C33   S    
C21   C22   A    
C16   N2    A    
C3    H51   S    
H33   O2    S    
C18   H6    S    
C20   C31   S    
H35   O3    S    
