data_mof_unit_49742.cif
_audit_creation_date              2013-03-05T16:48:29-0500
_audit_creation_method            fapswitch 2.2
_symmetry_space_group_name_H-M    P1
_symmetry_Int_Tables_number       1
_space_group_crystal_system       triclinic
_cell_length_a                    10.87852
_cell_length_b                    14.614975
_cell_length_c                    14.919429
_cell_angle_alpha                 64.589663
_cell_angle_beta                  105.109979
_cell_angle_gamma                 100.522058
_cell_volume                      2061.65936461

loop_
_atom_site_label
_atom_site_type_symbol
_atom_site_description
_atom_site_fract_x
_atom_site_fract_y
_atom_site_fract_z
_atom_type_partial_charge
O1    O     O_R   0.455540 0.022090 0.338120 -0.575837
O2    O     O_R   0.544460 0.977910 0.661880 -0.619433
O3    O     O_R   0.512510 0.160150 0.379180 -0.542008
O4    O     O_R   0.487490 0.839850 0.620820 -0.531875
C1    C     C_R   0.475219 0.120252 0.312459 0.778499
C2    C     C_R   0.520393 0.880516 0.687438 0.795711
O5    O     O_R   0.291160 0.930970 0.479480 -0.593250
O6    O     O_R   0.708840 0.069030 0.520520 -0.590125
O7    O     O_R   0.348130 0.069020 0.520540 -0.608700
O8    O     O_R   0.651870 0.930980 0.479460 -0.546164
C3    C     C_R   0.263510 0.999832 0.503577 0.757566
C4    C     C_R   0.736540 0.998221 0.499315 0.787921
Cu1   Cu    Cu3+1 0.466270 0.918260 0.475690 0.980308
Cu2   Cu    Cu3+1 0.533730 0.081740 0.524310 0.934034
H1    H     H_    0.331514 0.292365 0.746292 0.148567
H2    H     H_    0.622502 0.755858 0.217106 0.124319
C5    C     C_R   0.327822 0.145584 0.743863 0.493902
C6    C     C_R   0.645470 0.893950 0.246386 0.509299
C7    C     C_R   0.267531 0.080500 0.693730 -0.233304
C8    C     C_R   0.723171 0.942189 0.307477 -0.132306
H3    H     H_    0.292644 0.002943 0.724070 0.118855
H4    H     H_    0.706279 0.018871 0.292000 0.126393
C9    C     C_R   0.169016 0.114946 0.607289 0.054550
C10   C     C_R   0.821100 0.892645 0.388418 0.052297
C11   C     C_R   0.129305 0.213045 0.574298 -0.191158
C12   C     C_R   0.843350 0.794021 0.406186 -0.166809
H5    H     H_    0.050832 0.240241 0.510193 0.152746
H6    H     H_    0.918350 0.754177 0.467845 0.138063
C13   C     C_R   0.189572 0.276916 0.622823 -0.247725
C14   C     C_R   0.771558 0.746928 0.343301 -0.193794
C15   C     C_R   0.287582 0.243046 0.707385 -0.162647
C16   C     C_R   0.674145 0.796090 0.263471 -0.251432
C17   C     C_R   0.960025 0.038317 0.558323 -0.234385
C18   C     C_R   0.039050 0.949316 0.454548 -0.238715
H7    H     H_    0.929162 0.070954 0.601100 0.164853
H8    H     H_    0.068721 0.915070 0.412715 0.159105
C19   C     C_R   0.869400 0.992992 0.501281 -0.086908
C20   C     C_R   0.130363 0.999923 0.507282 -0.092015
C21   C     C_R   0.908850 0.945697 0.449470 0.027678
C22   C     C_R   0.089539 0.047006 0.559323 0.033927
C23   C     C_R   0.444148 0.190903 0.205559 -0.046932
C24   C     C_R   0.535525 0.814611 0.795689 -0.057611
C25   C     C_R   0.310841 0.234806 0.037967 -0.198133
C26   C     C_R   0.650058 0.775929 0.968173 -0.220014
C27   C     C_R   0.355974 0.161692 0.133897 -0.168468
C28   C     C_R   0.628498 0.841802 0.866446 -0.224617
C29   C     C_R   0.490618 0.292858 0.179130 -0.223367
C30   C     C_R   0.461397 0.722264 0.827886 -0.260738
C31   C     C_R   0.442958 0.368935 0.084484 0.079889
C32   C     C_R   0.490345 0.649494 0.928607 0.092408
C33   C     C_R   0.351513 0.338118 0.013499 0.166847
C34   C     C_R   0.585450 0.678850 0.999051 0.167024
C35   C     C_R   0.483819 0.474128 0.058380 0.069466
C36   C     C_R   0.435895 0.546725 0.959340 0.064001
C37   C     C_R   0.340270 0.512927 0.892892 -0.243566
C38   C     C_R   0.572084 0.509079 0.127555 -0.233324
C39   C     C_R   0.300085 0.410596 0.919367 -0.236454
C40   C     C_R   0.620203 0.609701 0.098558 -0.248674
H9    H     H_    0.228433 0.387965 0.865246 0.137814
H10   H     H_    0.690416 0.632280 0.153434 0.141945
H11   H     H_    0.386468 0.707856 0.771318 0.131722
H12   H     H_    0.562540 0.310392 0.235508 0.163686
H13   H     H_    0.686962 0.912869 0.842389 0.144806
H14   H     H_    0.317889 0.083336 0.153480 0.159093
H15   H     H_    0.241095 0.210942 0.983843 0.137179
H16   H     H_    0.722990 0.798488 0.021671 0.134217
H17   H     H_    0.295036 0.563556 0.818855 0.137070
H18   H     H_    0.608365 0.460690 0.205038 0.146935
N1    N     N_R   0.584450 0.204570 0.560790 -0.226877
N2    N     N_R   0.415550 0.795430 0.439210 -0.216498
C41   C     C_R   0.731897 0.281819 0.662827 -0.309358
C42   C     C_R   0.320388 0.737936 0.307732 -0.327799
C43   C     C_R   0.680875 0.196908 0.641884 -0.029829
C44   C     C_R   0.330457 0.806623 0.351483 0.015017
C45   C     C_R   0.540065 0.298308 0.493161 0.567947
C46   C     C_R   0.488643 0.713676 0.490200 0.575418
C47   C     C_R   0.590286 0.387998 0.510656 -0.089827
C48   C     C_R   0.490983 0.646255 0.444080 -0.101589
C49   C     C_R   0.685093 0.376697 0.599223 0.116069
C50   C     C_R   0.403792 0.660517 0.351181 0.106142
C51   C     C_R   0.544460 0.487093 0.448154 0.077078
C52   C     C_R   0.571129 0.562969 0.487784 0.069965
C53   C     C_R   0.678859 0.553171 0.566928 -0.200911
C54   C     C_R   0.476209 0.515655 0.347301 -0.178150
C55   C     C_R   0.734550 0.461167 0.622141 -0.224043
C56   C     C_R   0.404352 0.599637 0.300478 -0.235494
H19   H     H_    0.813667 0.455133 0.685537 0.139808
H20   H     H_    0.346596 0.615499 0.225067 0.146830
H21   H     H_    0.274841 0.872095 0.312671 0.137876
H22   H     H_    0.720129 0.124497 0.689812 0.144434
H23   H     H_    0.807711 0.273231 0.728852 0.146391
H24   H     H_    0.252741 0.748815 0.236993 0.145897
H25   H     H_    0.722693 0.616326 0.586452 0.204403
H26   H     H_    0.476296 0.474232 0.302769 0.205902
O9    O     O_3   0.562148 0.700425 0.584799 -0.572965
C57   C     C_3   0.504567 0.618933 0.659635 0.048753
H27   H     H_    0.471559 0.551259 0.640891 0.125561
H28   H     H_    0.419825 0.643644 0.668690 0.147685
C58   C     C_3   0.601396 0.585076 0.759861 -0.760591
H29   H     H_    0.640320 0.650413 0.780848 0.262403
H30   H     H_    0.555746 0.525200 0.820506 0.217550
H31   H     H_    0.682190 0.552883 0.754035 0.229743
O10   O     O_3   0.455582 0.307412 0.402863 -0.613015
C59   C     C_3   0.328681 0.276431 0.416716 0.134333
H32   H     H_    0.322334 0.241331 0.497370 0.167091
H33   H     H_    0.289337 0.221297 0.381499 0.186767
C60   C     C_3   0.242010 0.363456 0.360857 -0.895458
H34   H     H_    0.255938 0.406902 0.281803 0.260803
H35   H     H_    0.140652 0.332414 0.357328 0.212517
H36   H     H_    0.259982 0.413796 0.402063 0.258168
O11   O     O_3   0.415334 0.114553 0.835153 -0.607020
C61   C     C_3   0.508664 0.058162 0.837029 0.046789
H37   H     H_    0.524101 0.076042 0.760507 0.171791
H38   H     H_    0.479313 0.975885 0.873028 0.162459
C62   C     C_3   0.634681 0.083126 0.899375 -0.799264
H39   H     H_    0.623422 0.067096 0.976652 0.274967
H40   H     H_    0.709830 0.037484 0.905588 0.186474
H41   H     H_    0.665715 0.164963 0.862519 0.249913
O12   O     O_3   0.543737 0.946599 0.174526 -0.589658
C63   C     C_3   0.472380 0.898409 0.110726 0.039863
H42   H     H_    0.438126 0.819192 0.154139 0.152308
H43   H     H_    0.530777 0.899032 0.059463 0.149856
C64   C     C_3   0.353940 0.954840 0.048243 -0.746381
H44   H     H_    0.380234 0.037735 0.013968 0.299309
H45   H     H_    0.306519 0.927907 0.987410 0.205665
H46   H     H_    0.285712 0.940713 0.097551 0.210040
H47   H     H_    0.158553 0.352215 0.595876 0.154766
H48   H     H_    0.791192 0.671592 0.356726 0.157770

loop_
_geom_bond_atom_site_label_1
_geom_bond_atom_site_label_2
_geom_bond_distance
_ccdc_geom_bond_type
C14   C16   1.394072 A    
O9    C57   1.417180 S    
C26   H16   1.084152 S    
O11   C61   1.407772 S    
C29   H12   1.074238 S    
C59   H33   1.108454 S    
C51   C52   1.421011 A    
C64   H44   1.108638 S    
C29   C31   1.407279 A    
C35   C36   1.426830 A    
O5    C3    1.307688 A    
C32   C36   1.429211 A    
O1    C1    1.307583 A    
C44   H21   1.081778 S    
C7    H3    1.082885 S    
C46   C48   1.430096 A    
C43   H22   1.081692 S    
C46   O9    1.379300 S    
C42   H24   1.083735 S    
C48   C50   1.415283 A    
C39   H9    1.084376 S    
Cu1   N2    2.035539 S    
C40   H10   1.084618 S    
C9    C22   1.489717 S    
C53   H25   1.077855 S    
C57   C58   1.524654 S    
O4    Cu1   1.939443 S    
C10   C21   1.491506 S    
C56   H20   1.084036 S    
C24   C28   1.397102 A    
C4    C19   1.453259 S    
C59   H32   1.102950 S    
C50   C56   1.394979 A    
C17   H7    1.085822 S    
C13   H47   1.082495 S    
C8    C10   1.406456 A    
C26   C28   1.388612 A    
C31   C33   1.417928 A    
C57   H28   1.107671 S    
N2    C44   1.355223 A    
C32   C34   1.420214 A    
C60   H34   1.110197 S    
N1    C43   1.357066 A    
C33   C39   1.391939 A    
C6    C8    1.405135 A    
C63   C64   1.520341 S    
C25   H15   1.083977 S    
C26   C34   1.401039 A    
C30   C32   1.411543 A    
Cu1   Cu2   2.709749 S    
C45   O10   1.386580 S    
C60   H35   1.109917 S    
O2    C2    1.300067 A    
C5    O11   1.385138 S    
C41   C49   1.399708 A    
C61   H37   1.108052 S    
C63   H43   1.110770 S    
C47   C49   1.414721 A    
C11   C13   1.390799 A    
C34   C40   1.388381 A    
C14   H48   1.082738 S    
C17   C22   1.388061 A    
C55   H19   1.083914 S    
C18   C21   1.390969 A    
C42   C44   1.389498 A    
C41   C43   1.391592 A    
C64   H46   1.110417 S    
C54   H26   1.074076 S    
C62   H40   1.108369 S    
C38   H18   1.074589 S    
C17   C19   1.393870 A    
C42   C50   1.400901 A    
C3    C20   1.464089 S    
C7    C9    1.408716 A    
O7    Cu2   1.981661 S    
C25   C27   1.394299 A    
C48   C52   1.441189 A    
C58   H29   1.108593 S    
C47   C51   1.441484 A    
O6    C4    1.306300 A    
C62   H41   1.109846 S    
C57   H27   1.113855 S    
C23   C29   1.398541 A    
C41   H23   1.083721 S    
C24   C30   1.396652 A    
C59   C60   1.523096 S    
C45   C47   1.429199 A    
O3    Cu2   1.939443 S    
O8    C4    1.295720 A    
C61   H38   1.109624 S    
O4    C2    1.308803 A    
Cu2   N1    2.035539 S    
C58   H30   1.107733 S    
C8    H4    1.083546 S    
C12   C14   1.392746 A    
O7    C3    1.300817 A    
N2    C46   1.374831 A    
C11   H5    1.083273 S    
C5    C15   1.398213 A    
C60   H36   1.109242 S    
C6    C16   1.420014 A    
C49   C55   1.397931 A    
C51   C54   1.407573 A    
C63   H42   1.106119 S    
C35   C38   1.415870 A    
C1    C23   1.468749 S    
C36   C37   1.415578 A    
O6    Cu2   1.964918 S    
C53   C55   1.392987 A    
C18   C20   1.405837 A    
C10   C12   1.404458 A    
O3    C1    1.302575 A    
O8    Cu1   1.981661 S    
C37   H17   1.076080 S    
O12   C63   1.412464 S    
H1    C15   1.083296 S    
H2    C16   1.079664 S    
C27   H14   1.082183 S    
C12   H6    1.083290 S    
C28   H13   1.081627 S    
C37   C39   1.388564 A    
C19   C21   1.413959 A    
C20   C22   1.422487 A    
C25   C33   1.405709 A    
C30   H11   1.073407 S    
C31   C35   1.428159 A    
C5    C7    1.421738 A    
C38   C40   1.383731 A    
N1    C45   1.389010 A    
C18   H8    1.084604 S    
C9    C11   1.412144 A    
O2    Cu2   1.948294 S    
C64   H45   1.110466 S    
O5    Cu1   1.964917 S    
C58   H31   1.107866 S    
O1    Cu1   1.948293 S    
C13   C15   1.388889 A    
C52   C53   1.408160 A    
C2    C24   1.465441 S    
O10   C59   1.411963 S    
C23   C27   1.397481 A    
C54   C56   1.391204 A    
C6    O12   1.396689 S    
C61   C62   1.523622 S    
C62   H39   1.109257 S    
