data_mof_unit_30151.cif
_audit_creation_date              2012-12-10T18:01:17-0500
_audit_creation_method            fapswitch 2.2
_symmetry_space_group_name_H-M    P1
_symmetry_Int_Tables_number       1
_space_group_crystal_system       triclinic
_cell_length_a                    9.587584
_cell_length_b                    10.814856
_cell_length_c                    17.402724
_cell_angle_alpha                 92.02833
_cell_angle_beta                  85.091233
_cell_angle_gamma                 89.107939
_cell_volume                      1796.40133893

loop_
_atom_site_label
_atom_site_type_symbol
_atom_type_description
_atom_site_fract_x
_atom_site_fract_y
_atom_site_fract_z
_atom_type_partial_charge
C1    C     C_R   0.499188 0.737710 0.500664 0.781873
C2    C     C_R   0.500510 0.262293 0.500083 0.783964
C3    C     C_R   0.615477 0.935551 0.523604 -0.182673
C4    C     C_R   0.382281 0.064519 0.479492 -0.181259
C5    C     C_R   0.615920 0.063524 0.523653 -0.183488
C6    C     C_R   0.381081 0.936569 0.480294 -0.191699
C7    C     C_R   0.500196 0.128346 0.500682 -0.013239
C8    C     C_R   0.498216 0.871686 0.501665 -0.015534
C9    C     C_R   0.914361 0.578214 0.548071 -0.059674
C10   C     C_R   0.085846 0.424512 0.450265 -0.062130
C11   C     C_R   0.061967 0.577718 0.550069 0.255825
C12   C     C_R   0.937933 0.421011 0.450691 0.256340
C13   C     C_R   0.481229 0.499879 0.649704 0.786119
C14   C     C_R   0.519051 0.500654 0.350272 0.786048
C15   C     C_R   0.473340 0.497655 0.733824 -0.023183
C16   C     C_R   0.529312 0.506060 0.266183 -0.025132
C17   C     C_R   0.592806 0.526817 0.771525 -0.204057
C18   C     C_R   0.406437 0.505351 0.227764 -0.204327
C19   C     C_R   0.591442 0.518834 0.850777 -0.144872
C20   C     C_R   0.413433 0.514742 0.148378 -0.152053
C21   C     C_R   0.469170 0.484018 0.894280 0.192730
C22   C     C_R   0.543661 0.523633 0.105927 0.192374
C23   C     C_R   0.349858 0.453987 0.856630 -0.173406
C24   C     C_R   0.666522 0.525990 0.144036 -0.168086
C25   C     C_R   0.351966 0.460431 0.776708 -0.194638
C26   C     C_R   0.659652 0.516386 0.223868 -0.201059
C27   C     C_2   0.463465 0.475109 0.978554 -0.227517
C28   C     C_2   0.553203 0.533334 0.021974 -0.230846
Cu1   Cu    Cu3+1 0.359340 0.499980 0.500000 0.930279
Cu2   Cu    Cu3+1 0.640660 0.500020 0.500000 0.931132
H1    H     H_    0.688679 0.554396 0.739671 0.149320
H2    H     H_    0.304272 0.498876 0.258992 0.150663
H3    H     H_    0.755764 0.518023 0.252350 0.146793
H4    H     H_    0.260524 0.433287 0.748484 0.150162
H5    H     H_    0.637125 0.588493 0.996433 0.142752
H6    H     H_    0.381119 0.419509 0.005755 0.144195
H7    H     H_    0.255237 0.424996 0.889082 0.122334
H8    H     H_    0.767653 0.534053 0.111888 0.122059
H9    H     H_    0.316607 0.517374 0.120684 0.123373
H10   H     H_    0.687666 0.537512 0.876728 0.120392
H11   H     H_    0.706109 0.886800 0.541519 0.142773
H12   H     H_    0.291498 0.113266 0.461751 0.145621
H13   H     H_    0.705424 0.111624 0.542819 0.149213
H14   H     H_    0.289704 0.888566 0.463162 0.148876
H15   H     H_    0.848721 0.641080 0.585688 0.138795
H16   H     H_    0.151792 0.365340 0.410410 0.141595
N1    N     N_R   0.147930 0.499970 0.499980 -0.197577
N2    N     N_R   0.852070 0.500030 0.500020 -0.197254
O1    O     O_R   0.381260 0.680340 0.500000 -0.607742
O2    O     O_R   0.618740 0.319660 0.500000 -0.587440
O3    O     O_R   0.618830 0.680370 0.500010 -0.584962
O4    O     O_R   0.381170 0.319630 0.499990 -0.584157
O5    O     O_R   0.367440 0.500000 0.613600 -0.586439
O6    O     O_R   0.632560 0.500000 0.386400 -0.606731
O7    O     O_R   0.605010 0.500030 0.613600 -0.585759
O8    O     O_R   0.394990 0.499970 0.386400 -0.588115
C29   C     C_3   0.115751 0.667732 0.608863 -0.373850
C30   C     C_3   0.063790 0.636354 0.691375 -0.883020
H17   H     H_    0.076825 0.535844 0.699897 0.258820
H18   H     H_    0.124245 0.688380 0.733129 0.250517
H19   H     H_    0.951457 0.662369 0.703822 0.234239
H20   H     H_    0.229334 0.672381 0.606234 0.263631
H21   H     H_    0.078645 0.762739 0.597520 0.165995
C31   C     C_3   0.883840 0.327457 0.394053 -0.378109
C32   C     C_3   0.925320 0.194880 0.411811 -0.880894
H22   H     H_    0.905144 0.179181 0.474369 0.257800
H23   H     H_    0.863677 0.128178 0.379179 0.251614
H24   H     H_    0.038036 0.176362 0.394471 0.235060
H25   H     H_    0.770712 0.330288 0.392213 0.264117
H26   H     H_    0.928070 0.347721 0.334775 0.163524

loop_
_geom_bond_atom_site_label_1
_geom_bond_atom_site_label_2
_ccdc_geom_bond_type
C22   C28   S    
C10   H16   S    
C14   O8    A    
Cu2   O3    S    
C5    C7    A    
C9    H15   S    
Cu1   Cu2   S    
Cu1   O8    S    
C31   H26   S    
C27   H6    S    
C1    C8    S    
C9    C11   A    
Cu2   O7    S    
C26   H3    S    
C13   O5    A    
C2    C7    S    
C25   H4    S    
C12   N2    A    
C32   H24   S    
C31   C32   S    
C4    H12   S    
C30   H19   S    
C13   C15   S    
C21   C27   S    
C29   H20   S    
C16   C18   A    
Cu1   O1    S    
C31   H25   S    
C16   C26   A    
C1    O3    A    
C29   C30   S    
C2    O4    A    
Cu1   N1    S    
C4    C7    A    
C17   H1    S    
C10   C12   A    
C22   C24   A    
Cu2   N2    S    
C14   O6    A    
C23   H7    S    
C24   C26   A    
Cu1   O5    S    
C18   C20   A    
C21   C23   A    
C3    C8    A    
C5    H13   S    
C12   C31   S    
C14   C16   S    
Cu2   O6    S    
C15   C25   A    
C18   H2    S    
Cu2   O2    S    
C30   H18   S    
C24   H8    S    
C3    C5    A    
C10   N1    A    
C23   C25   A    
C6    H14   S    
C9    N2    A    
C4    C6    A    
C32   H22   S    
C19   H10   S    
C27   C28   D    
C15   C17   A    
C20   H9    S    
C3    H11   S    
C6    C8    A    
C2    O2    A    
C17   C19   A    
C30   H17   S    
C19   C21   A    
C28   H5    S    
C11   N1    A    
C11   C29   S    
C32   H23   S    
C29   H21   S    
C20   C22   A    
C13   O7    A    
Cu1   O4    S    
C1    O1    A    
