data_mof_unit_9982.cif
_audit_creation_date              2013-03-05T15:53:24-0500
_audit_creation_method            fapswitch 2.2
_symmetry_space_group_name_H-M    P1
_symmetry_Int_Tables_number       1
_space_group_crystal_system       triclinic
_cell_length_a                    10.635534
_cell_length_b                    10.691092
_cell_length_c                    16.934611
_cell_angle_alpha                 98.841001
_cell_angle_beta                  98.6363
_cell_angle_gamma                 61.561416
_cell_volume                      1666.5020495

loop_
_atom_site_label
_atom_site_type_symbol
_atom_site_description
_atom_site_fract_x
_atom_site_fract_y
_atom_site_fract_z
_atom_type_partial_charge
O1    O     O_R   0.751220 0.499230 0.435170 -0.520848
O2    O     O_R   0.477220 0.727600 0.436870 -0.500957
C1    C     C_R   0.355104 0.774352 0.398614 0.556890
O3    O     O_R   0.258650 0.745120 0.411470 -0.514073
O4    O     O_R   0.297070 0.467240 0.395960 -0.511290
C2    C     C_R   0.370504 0.346747 0.358847 0.538966
O5    O     O_R   0.488830 0.252610 0.387790 -0.487067
O6    O     O_R   0.724400 0.302390 0.420980 -0.487085
C3    C     C_R   0.779554 0.375365 0.402916 0.546511
O7    O     O_R   0.752100 0.501210 0.612190 -0.521370
O8    O     O_R   0.478040 0.729440 0.600970 -0.492817
C4    C     C_R   0.379592 0.715614 0.631602 0.551770
O9    O     O_R   0.259530 0.747110 0.588490 -0.486846
O10   O     O_R   0.297880 0.469080 0.560050 -0.517028
C5    C     C_R   0.367635 0.346694 0.585666 0.537874
O11   O     O_R   0.489720 0.254590 0.564810 -0.515377
O12   O     O_R   0.725220 0.304230 0.585080 -0.493568
C6    C     C_R   0.770186 0.381947 0.630601 0.539598
Cr1   Cr    Cr6+3 0.608340 0.611040 0.520430 1.023290
Cr2   Cr    Cr6+3 0.287650 0.601120 0.489350 1.024602
Cr3   Cr    Cr6+3 0.604040 0.287870 0.490280 1.044769
O13   O     O_3   0.500010 0.500010 0.500020 -0.283781
C7    C     C_1   0.343698 0.336266 0.275124 -0.043039
C8    C     C_1   0.331648 0.326514 0.203918 -0.024403
C9    C     C_3   0.780594 0.255416 0.206116 0.221274
C10   C     C_3   0.695107 0.396716 0.255344 -0.109622
H1    H     H_    0.579930 0.443118 0.265307 0.117698
C11   C     C_3   0.819647 0.347155 0.322064 0.028102
C12   C     C_3   0.902099 0.204186 0.273529 -0.130582
C13   C     C_3   0.976096 0.274707 0.237362 -0.158805
C14   C     C_3   0.892991 0.417705 0.287592 -0.125016
C15   C     C_3   0.769963 0.466646 0.219759 -0.162165
C16   C     C_3   0.851960 0.324680 0.170202 0.047959
H2    H     H_    0.950731 0.099686 0.298806 0.128123
H3    H     H_    0.091153 0.227093 0.226872 0.114753
H4    H     H_    0.941062 0.483122 0.323215 0.138368
H5    H     H_    0.719873 0.571417 0.194671 0.133004
C17   C     C_3   0.412997 0.711264 0.201541 -0.153373
C18   C     C_3   0.287013 0.741790 0.248927 -0.107422
H6    H     H_    0.246400 0.664900 0.253308 0.135874
H7    H     H_    0.471488 0.612921 0.161832 0.110688
C19   C     C_3   0.346867 0.812626 0.319526 0.058285
C20   C     C_3   0.474373 0.780724 0.273521 -0.112974
C21   C     C_3   0.384275 0.928824 0.241102 -0.113359
C22   C     C_3   0.258165 0.958997 0.289034 -0.157207
C23   C     C_3   0.197170 0.889273 0.217838 -0.105219
C24   C     C_3   0.323915 0.857673 0.170946 0.058719
H8    H     H_    0.587004 0.738943 0.300440 0.140706
H9    H     H_    0.424717 0.005217 0.235350 0.157974
H10   H     H_    0.199954 0.057056 0.328981 0.107729
H11   H     H_    0.083182 0.931248 0.193225 0.159850
C25   C     C_3   0.461567 0.263897 0.776268 -0.122391
C26   C     C_3   0.398202 0.405019 0.736980 -0.116200
H12   H     H_    0.456807 0.466308 0.733712 0.095889
H13   H     H_    0.569793 0.212489 0.808955 0.138531
C27   C     C_3   0.339373 0.336647 0.664070 0.046412
C28   C     C_3   0.403474 0.196203 0.702344 -0.113718
C29   C     C_3   0.260966 0.254164 0.739251 -0.007456
C30   C     C_3   0.196167 0.394581 0.699776 -0.128310
C31   C     C_3   0.254656 0.461762 0.774629 -0.132019
C32   C     C_3   0.318840 0.320642 0.812897 0.040569
H14   H     H_    0.462110 0.087678 0.671275 0.138502
H15   H     H_    0.088426 0.445501 0.666513 0.133618
H16   H     H_    0.195862 0.569809 0.806097 0.135071
C33   C     C_1   0.809095 0.346669 0.711192 -0.021148
C34   C     C_1   0.835296 0.319175 0.779610 -0.016796
C35   C     C_1   0.358918 0.762921 0.714813 -0.032566
C36   C     C_1   0.328355 0.808298 0.782738 -0.022335
O14   O     O_R   0.171830 0.913880 0.057510 -0.519599
O15   O     O_R   0.940690 0.186050 0.054730 -0.468803
C37   C     C_R   0.890477 0.311058 0.090111 0.563610
O16   O     O_R   0.920470 0.405720 0.075010 -0.520960
O17   O     O_R   0.196690 0.370460 0.084120 -0.514718
C38   C     C_R   0.319172 0.299529 0.120241 0.558873
O18   O     O_R   0.412990 0.180750 0.091610 -0.434487
O19   O     O_R   0.366620 0.943130 0.065760 -0.504603
C39   C     C_R   0.294239 0.892295 0.088999 0.536121
O20   O     O_R   0.160510 0.906330 0.879210 -0.499348
O21   O     O_R   0.930190 0.179050 0.889450 -0.480227
C40   C     C_R   0.881313 0.300923 0.861914 0.551354
O22   O     O_R   0.909140 0.398170 0.896710 -0.511940
O23   O     O_R   0.186190 0.363460 0.918830 -0.502056
C41   C     C_R   0.308295 0.293461 0.891802 0.549274
O24   O     O_R   0.401670 0.173200 0.913310 -0.499005
O25   O     O_R   0.356120 0.936130 0.900470 -0.495570
C42   C     C_R   0.283575 0.878376 0.860317 0.556686
Cr4   Cr    Cr6+3 0.054020 0.052700 0.970850 1.074778
Cr5   Cr    Cr6+3 0.059230 0.375120 0.993390 1.039796
Cr6   Cr    Cr6+3 0.374950 0.061200 0.992340 1.088977
O26   O     O_3   0.162740 0.163010 0.985530 -0.277386
C43   C     C_1   0.185983 0.168677 0.735971 0.198269
N1    N     N_1   0.126767 0.100758 0.731722 -0.294221
N2    N     N_R   0.717810 0.167073 0.162645 0.072547
O27   O     O_R   0.676089 0.100520 0.202285 -0.339627
O28   O     O_R   0.705055 0.152257 0.084653 -0.331469

loop_
_geom_bond_atom_site_label_1
_geom_bond_atom_site_label_2
_geom_bond_distance
_ccdc_geom_bond_type
C21   H9    1.110476 S    
O20   Cr4   2.057480 S    
C1    C19   1.438050 S    
C9    N2    1.455739 S    
O11   Cr3   2.051537 S    
C36   C42   1.435150 S    
O17   C38   1.268300 A    
O14   C39   1.255274 A    
O21   Cr4   1.947345 S    
C28   H14   1.110707 S    
O4    Cr2   1.942968 S    
C26   H12   1.109682 S    
C25   C26   1.542283 S    
C6    C33   1.419879 S    
C10   C15   1.550929 S    
O8    Cr1   1.936297 S    
C10   H1    1.110262 S    
N2    O27   1.300286 A    
C13   H3    1.110089 S    
O4    C2    1.266786 A    
C11   C12   1.527904 S    
C25   C32   1.532019 S    
C13   C14   1.543081 S    
C5    O11   1.262295 A    
C27   C28   1.526717 S    
C14   C15   1.544895 S    
O6    C3    1.268652 A    
C7    C8    1.187033 T    
O15   C37   1.265120 A    
C20   H8    1.109609 S    
O9    Cr2   2.060328 S    
C25   H13   1.110409 S    
O19   Cr6   1.941432 S    
O20   C42   1.276170 A    
C29   C32   1.533973 S    
C30   C31   1.555163 S    
N2    O28   1.300103 A    
Cr3   O13   1.986213 S    
O15   Cr4   1.938587 S    
O16   Cr5   2.051644 S    
C26   C31   1.548106 S    
O6    Cr3   1.932985 S    
C18   C19   1.536351 S    
C9    C12   1.532401 S    
C4    C35   1.434534 S    
O1    Cr1   2.054536 S    
C38   O18   1.261944 A    
C35   C36   1.206124 T    
O10   Cr2   1.942211 S    
Cr1   O13   1.978087 S    
O1    C3    1.260881 A    
O19   C39   1.264146 A    
C17   H7    1.109038 S    
C32   C41   1.441509 S    
C18   H6    1.111027 S    
O25   Cr6   1.941783 S    
C29   C30   1.536293 S    
O25   C42   1.267287 A    
C12   H2    1.108641 S    
O12   Cr3   1.943178 S    
C31   C32   1.532644 S    
C19   C22   1.517056 S    
C20   C21   1.546213 S    
O17   Cr5   1.944255 S    
C12   C13   1.553960 S    
C41   O24   1.261419 A    
O7    Cr1   2.066050 S    
O12   C6    1.258645 A    
C15   H5    1.108573 S    
C17   C24   1.518414 S    
C18   C23   1.531499 S    
Cr2   O13   1.978489 S    
O23   C41   1.266344 A    
C19   C20   1.535374 S    
C24   C39   1.441364 S    
C1    O3    1.261249 A    
C43   N1    1.155410 T    
C21   C22   1.547992 S    
C29   C43   1.462750 S    
C26   C27   1.541565 S    
C23   C24   1.538533 S    
C13   C16   1.544679 S    
O2    Cr1   1.947886 S    
C14   H4    1.110257 S    
C30   H15   1.110394 S    
C11   C14   1.533182 S    
Cr5   O26   1.986349 S    
C40   O22   1.252247 A    
O14   Cr4   2.066990 S    
O8    C4    1.312005 A    
C21   C24   1.536380 S    
C2    O5    1.263694 A    
C34   C40   1.417058 S    
C10   C11   1.542052 S    
C27   C30   1.527077 S    
C31   H16   1.110067 S    
C5    C27   1.435011 S    
O2    C1    1.258931 A    
C9    C10   1.528426 S    
C17   C20   1.551741 S    
O5    Cr3   2.063018 S    
C15   C16   1.528420 S    
C8    C38   1.401128 S    
C28   C29   1.530599 S    
C17   C18   1.540042 S    
C22   H10   1.108871 S    
O7    C6    1.276938 A    
O23   Cr5   1.932981 S    
C2    C7    1.401514 S    
C23   H11   1.110144 S    
O22   Cr5   2.062491 S    
C25   C28   1.545245 S    
O18   Cr6   2.061829 S    
C16   C37   1.441501 S    
O21   C40   1.286162 A    
O3    Cr2   2.062611 S    
C22   C23   1.542577 S    
C37   O16   1.266058 A    
C4    O9    1.289578 A    
C33   C34   1.198402 T    
O24   Cr6   2.058303 S    
Cr4   O26   1.977877 S    
O10   C5    1.266435 A    
Cr6   O26   1.978027 S    
C3    C11   1.439945 S    
C9    C16   1.518799 S    
