data_mof_unit_63714.cif
_audit_creation_date              2012-12-10T21:26:41-0500
_audit_creation_method            fapswitch 2.2
_symmetry_space_group_name_H-M    P1
_symmetry_Int_Tables_number       1
_space_group_crystal_system       triclinic
_cell_length_a                    10.680832
_cell_length_b                    16.157762
_cell_length_c                    16.76766
_cell_angle_alpha                 87.770616
_cell_angle_beta                  90.558886
_cell_angle_gamma                 93.843312
_cell_volume                      2884.96771244

loop_
_atom_site_label
_atom_site_type_symbol
_atom_type_description
_atom_site_fract_x
_atom_site_fract_y
_atom_site_fract_z
_atom_type_partial_charge
C1    C     C_R   0.495977 0.488889 0.652993 0.949727
C2    C     C_R   0.431840 0.547844 0.777891 -0.224836
C3    C     C_R   0.414755 0.542340 0.859688 0.364757
C4    C     C_R   0.447980 0.470525 0.903014 0.138760
C5    C     C_R   0.486442 0.402073 0.863138 0.379083
C6    C     C_R   0.501750 0.407742 0.780907 -0.231302
C7    C     C_R   0.550327 0.451510 0.137363 0.622510
C8    C     C_R   0.543098 0.447454 0.219616 -0.275269
C9    C     C_R   0.527683 0.525975 0.095236 0.051560
C10   C     C_R   0.515469 0.517753 0.260717 -0.232821
C11   C     C_R   0.501518 0.593548 0.219038 -0.244723
C12   C     C_R   0.737999 0.501323 0.499117 0.974486
C13   C     C_R   0.508244 0.597626 0.136212 0.643744
C14   C     C_R   0.436989 0.760269 0.461293 0.578076
C15   C     C_R   0.440371 0.847584 0.461147 0.501785
C16   C     C_R   0.526256 0.891379 0.511533 0.061234
C17   C     C_R   0.605446 0.845115 0.560002 -0.339076
C18   C     C_R   0.598671 0.758215 0.558804 0.420268
C19   C     C_R   0.546616 0.151458 0.545159 0.214864
C20   C     C_R   0.552051 0.238859 0.544505 0.706547
C21   C     C_R   0.471710 0.108708 0.486933 0.151295
C22   C     C_R   0.411273 0.243640 0.434973 -0.107731
C23   C     C_R   0.503597 0.511070 0.346907 0.975336
C24   C     C_R   0.403586 0.156762 0.432506 -0.261955
C25   C     C_R   0.262456 0.499544 0.493181 0.875159
C26   C     C_2   0.073629 0.568239 0.469052 -0.231302
C27   C     C_2   0.133728 0.498292 0.468214 0.162547
C28   C     C_2   0.939174 0.566202 0.460452 0.453801
C29   C     C_2   0.871055 0.505590 0.500411 -0.330684
C30   C     C_R   0.478323 0.481569 0.738620 -0.178334
H1    H     H_    0.121471 0.627223 0.483781 0.213889
H2    H     H_    0.408088 0.603810 0.745052 0.216756
H3    H     H_    0.672770 0.876837 0.598955 0.260587
H4    H     H_    0.357748 0.279668 0.392799 0.210063
H5    H     H_    0.344106 0.126736 0.388024 0.232018
H6    H     H_    0.914676 0.458451 0.537094 0.176634
H7    H     H_    0.558388 0.389045 0.250955 0.222592
H8    H     H_    0.534931 0.355511 0.750541 0.245688
H9    H     H_    0.482375 0.648761 0.250200 0.244921
N1    N     N_2   0.453517 0.468532 0.986590 -0.044650
N2    N     N_2   0.518866 0.528888 0.011706 -0.043394
N3    N     N_R   0.515110 0.716920 0.509720 -0.213925
N4    N     N_2   0.540269 0.980210 0.515083 -0.034611
N5    N     N_2   0.456489 0.019800 0.481698 -0.020218
N6    N     N_R   0.484890 0.283060 0.490290 -0.174064
O1    O     O_R   0.494590 0.422540 0.612660 -0.578321
O2    O     O_R   0.504290 0.561850 0.618900 -0.591734
O3    O     O_R   0.676080 0.430360 0.496880 -0.570319
O4    O     O_R   0.685780 0.569670 0.503120 -0.547020
O5    O     O_R   0.495710 0.438150 0.381100 -0.638108
O6    O     O_R   0.505410 0.577460 0.387340 -0.567972
O7    O     O_R   0.314220 0.430330 0.496880 -0.581385
O8    O     O_R   0.323920 0.569640 0.503120 -0.606322
Zn1   Zn    Zn3+2 0.493520 0.406980 0.495830 1.059441
Zn2   Zn    Zn3+2 0.506480 0.593020 0.504170 1.089625
Cl1   Cl    Cl    0.351457 0.626057 0.906063 -0.411053
F1    F     F_    0.489310 0.670070 0.095614 -0.545947
F2    F     F_    0.623757 0.279953 0.599358 -0.597154
Cl2   Cl    Cl    0.629225 0.100959 0.622525 -0.418490
Cl3   Cl    Cl    0.700593 0.704168 0.621170 -0.476793
F3    F     F_    0.362259 0.887922 0.411091 -0.562375
Cl4   Cl    Cl    0.067521 0.405709 0.426129 -0.528147
F4    F     F_    0.355932 0.718862 0.411824 -0.585354
Cl5   Cl    Cl    0.875325 0.646094 0.401119 -0.467704
F5    F     F_    0.577377 0.382720 0.098639 -0.563545
Cl6   Cl    Cl    0.524016 0.310665 0.915854 -0.371115

loop_
_geom_bond_atom_site_label_1
_geom_bond_atom_site_label_2
_ccdc_geom_bond_type
O3    Zn1   S    
N4    N5    D    
C6    H8    S    
C12   O4    A    
C27   Cl4   S    
C10   C23   S    
C7    F5    S    
C21   N5    S    
C3    Cl1   S    
C26   C28   S    
C19   C20   A    
C16   N4    S    
C12   O3    A    
C14   N3    A    
O1    Zn1   S    
O8    Zn2   S    
C17   C18   A    
C15   F3    S    
C25   O7    A    
C26   H1    S    
C11   H9    S    
C4    C5    A    
C11   C13   A    
C29   H6    S    
C28   C29   D    
C26   C27   D    
O5    Zn1   S    
C17   H3    S    
C22   H4    S    
C14   F4    S    
C28   Cl5   S    
C2    H2    S    
C18   Cl3   S    
N1    N2    D    
C19   C21   A    
O7    Zn1   S    
N6    Zn1   S    
C2    C3    A    
O6    Zn2   S    
C10   C11   A    
C18   N3    A    
C5    C6    A    
N3    Zn2   S    
C22   C24   A    
C1    O1    A    
C24   H5    S    
C25   C27   S    
C2    C30   A    
C20   F2    S    
C15   C16   A    
C4    N1    S    
C7    C8    A    
C22   N6    A    
C13   F1    S    
O2    Zn2   S    
C8    H7    S    
C21   C24   A    
C7    C9    A    
C9    C13   A    
C14   C15   A    
C1    C30   S    
C23   O5    A    
C19   Cl2   S    
O4    Zn2   S    
C20   N6    A    
C9    N2    S    
C6    C30   A    
C8    C10   A    
C1    O2    A    
C23   O6    A    
C3    C4    A    
C16   C17   A    
C25   O8    A    
C5    Cl6   S    
C12   C29   S    
