data_mof_unit_54988.cif
_audit_creation_date              2012-12-10T16:51:00-0500
_audit_creation_method            fapswitch 2.2
_symmetry_space_group_name_H-M    P1
_symmetry_Int_Tables_number       1
_space_group_crystal_system       triclinic
_cell_length_a                    7.97041
_cell_length_b                    8.576375
_cell_length_c                    10.900685
_cell_angle_alpha                 94.633619
_cell_angle_beta                  85.404915
_cell_angle_gamma                 92.116239
_cell_volume                      739.970064105

loop_
_atom_site_label
_atom_site_type_symbol
_atom_type_description
_atom_site_fract_x
_atom_site_fract_y
_atom_site_fract_z
_atom_type_partial_charge
C1    C     C_R   0.542420 0.792809 0.497301 0.957775
C2    C     C_R   0.920368 0.266930 0.058973 -0.165746
C3    C     C_R   0.047979 0.374031 0.098979 -0.174338
C4    C     C_R   0.953647 0.327863 0.945755 -0.158957
C5    C     C_R   0.207180 0.319736 0.123094 -0.074627
C6    C     C_R   0.820229 0.364454 0.877071 -0.160246
C7    C     C_R   0.349444 0.401067 0.073696 0.061868
C8    C     C_R   0.656525 0.401777 0.933976 0.020745
C9    C     C_R   0.352299 0.454850 0.956038 0.044439
C10   C     C_R   0.639332 0.372491 0.061219 0.137377
C11   C     C_R   0.494251 0.412650 0.132068 -0.185464
C12   C     C_R   0.457873 0.207255 0.506295 0.929262
C13   C     C_R   0.508161 0.458725 0.878692 -0.209377
C14   C     C_2   0.232722 0.157261 0.159618 0.848664
C15   C     C_2   0.895511 0.414546 0.764068 1.039318
C16   C     C_3   0.660930 0.984262 0.355132 -0.891404
C17   C     C_3   0.343988 0.020636 0.656099 -0.902534
C18   C     C_3   0.011347 0.313960 0.406737 -0.405173
C19   C     C_3   0.009956 0.705714 0.552785 -0.385392
C20   C     C_2   0.555809 0.950246 0.472743 -0.018898
C21   C     C_2   0.447487 0.050623 0.536410 0.013114
C22   C     C_R   0.502304 0.491555 0.742470 0.822393
C23   C     C_R   0.496049 0.469652 0.263085 0.838795
C24   C     C_R   0.196895 0.504067 0.926268 -0.166851
C25   C     C_R   0.759041 0.287712 0.114677 -0.131135
C26   C     C_R   0.046376 0.459598 0.994057 -0.108704
H1    H     H_    0.036814 0.247687 0.887060 0.162178
H2    H     H_    0.587106 0.052001 0.297624 0.240009
H3    H     H_    0.779087 0.047475 0.378037 0.268056
H4    H     H_    0.369988 0.116118 0.727931 0.237480
H5    H     H_    0.208052 0.021320 0.641051 0.248807
H6    H     H_    0.373493 0.910494 0.695387 0.239094
H7    H     H_    0.013179 0.219924 0.469750 0.231172
H8    H     H_    0.924948 0.273877 0.336278 0.166596
H9    H     H_    0.136178 0.332732 0.361020 0.204979
H10   H     H_    0.891292 0.724489 0.610057 0.224293
H11   H     H_    0.106492 0.766894 0.607422 0.181903
H12   H     H_    0.007921 0.447778 0.181374 0.176800
H13   H     H_    0.009879 0.758621 0.463019 0.170983
H14   H     H_    0.191793 0.596318 0.865209 0.204988
H15   H     H_    0.726867 0.236360 0.200604 0.161760
H16   H     H_    0.971497 0.564541 0.009911 0.177934
H17   H     H_    0.948107 0.144370 0.059597 0.199291
H18   H     H_    0.384510 0.972437 0.148190 0.345247
H19   H     H_    0.924156 0.192838 0.689802 0.274419
H20   H     H_    0.696406 0.875374 0.298047 0.252525
N1    N     N_2   0.950330 0.457950 0.466250 -0.012981
N2    N     N_2   0.049670 0.542050 0.533750 0.050089
O1    O     O_R   0.389250 0.738570 0.508280 -0.622120
O2    O     O_R   0.384676 0.083960 0.123555 -0.824113
O3    O     O_2   0.928165 0.553543 0.759700 -0.651037
O4    O     O_R   0.959880 0.304557 0.673627 -0.791874
O5    O     O_R   0.610750 0.261430 0.491720 -0.630185
O6    O     O_R   0.678390 0.711630 0.486650 -0.640885
O7    O     O_R   0.321610 0.288370 0.513350 -0.612834
O8    O     O_R   0.355430 0.513480 0.694040 -0.593993
O9    O     O_R   0.644570 0.486520 0.305960 -0.628003
O10   O     O_R   0.644570 0.486540 0.672410 -0.601301
O11   O     O_R   0.355430 0.513460 0.327590 -0.635619
O12   O     O_2   0.120631 0.084978 0.216035 -0.683458
Zn1   Zn    Zn3+2 0.306940 0.517990 0.514440 0.976596
Zn2   Zn    Zn3+2 0.693060 0.482010 0.485560 0.958301

loop_
_geom_bond_atom_site_label_1
_geom_bond_atom_site_label_2
_ccdc_geom_bond_type
O10   Zn2   S    
C2    C4    A    
C1    O6    A    
C9    C24   A    
C16   H2    S    
C8    C13   A    
C15   O3    D    
C14   O12   D    
C18   H9    S    
C4    C26   A    
N1    N2    D    
C2    H17   S    
C16   C20   S    
C18   N1    S    
N1    Zn2   S    
C2    C3    A    
C5    C14   S    
O9    Zn2   S    
C15   O4    S    
C23   O11   A    
C17   H4    S    
C18   H8    S    
C16   H3    S    
C22   O10   A    
C14   O2    S    
C19   H13   S    
C6    C8    A    
O7    Zn1   S    
C10   C25   A    
C4    C6    A    
C24   H14   S    
C24   C26   A    
C13   C22   S    
C7    C11   A    
C2    C25   A    
C5    C7    A    
C19   H10   S    
C17   H5    S    
C18   H7    S    
O11   Zn1   S    
C12   O7    A    
O1    Zn1   S    
C10   C11   A    
C16   H20   S    
C7    C9    A    
N2    Zn1   S    
C4    H1    S    
C20   C21   D    
C26   H16   S    
H18   O2    S    
C8    C10   A    
O5    Zn2   S    
C25   H15   S    
C11   C23   S    
C23   O9    A    
C17   H6    S    
C9    C13   A    
O8    Zn1   S    
C1    C20   S    
C22   O8    A    
C19   H11   S    
H19   O4    S    
C6    C15   S    
C19   N2    S    
O6    Zn2   S    
C12   C21   S    
C3    C26   A    
C17   C21   S    
C12   O5    A    
C3    H12   S    
C3    C5    A    
C1    O1    A    
