data_mof_unit_14037.cif
_audit_creation_date              2012-10-26T19:04:44-0400
_audit_creation_method            fapswitch 2.2
_symmetry_space_group_name_H-M    P1
_symmetry_Int_Tables_number       1
_space_group_crystal_system       triclinic
_cell_length_a                    9.621433
_cell_length_b                    10.782875
_cell_length_c                    13.367569
_cell_angle_alpha                 92.49312
_cell_angle_beta                  72.501803
_cell_angle_gamma                 89.814162
_cell_volume                      1321.22129669

loop_
_atom_site_label
_atom_site_type_symbol
_atom_type_description
_atom_site_fract_x
_atom_site_fract_y
_atom_site_fract_z
_atom_type_partial_charge
C1    C     C_R   0.498454 0.737115 0.503125 0.562454
C2    C     C_R   0.371107 0.509578 0.816105 0.005683
C3    C     C_R   0.306092 0.882044 0.680210 -0.037951
C4    C     C_R   0.421103 0.505480 0.700391 0.588839
C5    C     C_R   0.214713 0.952626 0.764367 0.397211
C6    C     C_R   0.216209 0.081640 0.763718 -0.082184
C7    C     C_R   0.308680 0.140728 0.678833 -0.166985
C8    C     C_R   0.401065 0.071106 0.591868 -0.022418
C9    C     C_R   0.399867 0.940087 0.592954 -0.033280
C10   C     C_R   0.495934 0.870879 0.508050 -0.003243
C11   C     C_R   0.592730 0.929135 0.425121 -0.123762
C12   C     C_R   0.426259 0.523303 0.983277 -0.006080
C13   C     C_R   0.593008 0.057426 0.421823 0.117300
C14   C     C_R   0.497389 0.128753 0.505097 0.049845
C15   C     C_R   0.915978 0.338550 0.357886 -0.062418
C16   C     C_R   0.499702 0.262777 0.500969 0.549025
C17   C     C_R   0.017543 0.260131 0.287497 -0.120948
C18   C     C_R   0.159859 0.257417 0.289363 -0.113388
C19   C     C_R   0.202104 0.334977 0.360107 -0.047005
C20   C     C_R   0.103541 0.419137 0.431181 0.179490
C21   C     C_R   0.954427 0.419918 0.430702 0.155825
C22   C     C_R   0.898948 0.577260 0.565151 0.003774
C23   C     C_R   0.459576 0.555345 0.876844 -0.003446
C24   C     C_R   0.046525 0.577156 0.565275 -0.004701
C25   C     C_R   0.578319 0.502106 0.300029 0.521008
C26   C     C_R   0.765523 0.633452 0.039206 -0.129572
C27   C     C_R   0.621173 0.522841 0.187474 -0.018342
C28   C     C_R   0.236810 0.456215 0.866394 -0.207059
C29   C     C_R   0.192158 0.445083 0.974299 -0.088094
C30   C     C_R   0.285096 0.477279 0.032972 0.376189
C31   C     C_3   0.625497 0.148500 0.254626 -0.313880
C32   C     C_R   0.533798 0.542695 0.035566 0.029689
C33   C     C_R   0.659781 0.611834 0.987659 -0.022692
C34   C     C_R   0.676572 0.661732 0.890343 -0.096834
C35   C     C_R   0.576817 0.635669 0.836006 0.368576
C36   C     C_R   0.522356 0.492439 0.132679 -0.079376
C37   C     C_R   0.745252 0.590665 0.139449 -0.129404
Cu1   Cu    Cu3+1 0.359340 0.500010 0.500010 0.939265
Cu2   Cu    Cu3+1 0.640660 0.499990 0.499990 0.984387
F1    F     F_    0.125561 0.895532 0.847488 -0.642088
F2    F     F_    0.228737 0.474782 0.138740 -0.662162
F3    F     F_    0.587126 0.699575 0.748905 -0.649631
H1    H     H_    0.822843 0.615170 0.180993 0.155073
H2    H     H_    0.767122 0.721671 0.856177 0.150119
H3    H     H_    0.079009 0.640588 0.618799 0.126424
H4    H     H_    0.861338 0.687043 0.003430 0.156977
H5    H     H_    0.437152 0.429189 0.168091 0.184710
H6    H     H_    0.165680 0.422809 0.822186 0.133280
H7    H     H_    0.085166 0.409433 0.012730 0.142614
H8    H     H_    0.665846 0.874036 0.360717 0.121157
H9    H     H_    0.786396 0.064309 0.302053 0.249899
H10   H     H_    0.588478 0.064526 0.219321 0.154629
H11   H     H_    0.707396 0.196382 0.191914 0.138735
H12   H     H_    0.303906 0.782138 0.684921 0.159869
H13   H     H_    0.531823 0.213129 0.288465 0.138780
H14   H     H_    0.146306 0.136377 0.829606 0.132545
H15   H     H_    0.308001 0.241013 0.682965 0.140662
H16   H     H_    0.822321 0.641406 0.618035 0.188557
H17   H     H_    0.808979 0.331757 0.351937 0.204149
H18   H     H_    0.985536 0.200710 0.231180 0.123720
H19   H     H_    0.238716 0.195379 0.235069 0.119835
H20   H     H_    0.313542 0.325489 0.354829 0.162742
N1    N     N_R   0.852480 0.498790 0.499000 -0.252925
N2    N     N_R   0.148360 0.498710 0.498970 -0.244036
N3    N     N_2   0.690310 0.113979 0.334227 -0.531804
O1    O     O_R   0.381190 0.680360 0.500010 -0.505130
O2    O     O_R   0.618760 0.680340 0.500000 -0.465697
O3    O     O_R   0.323240 0.499990 0.650990 -0.525149
O4    O     O_R   0.560820 0.499960 0.650980 -0.447705
O5    O     O_R   0.381240 0.319660 0.500000 -0.542681
O6    O     O_R   0.618810 0.319640 0.499990 -0.503709
O7    O     O_R   0.439180 0.500040 0.349020 -0.502111
O8    O     O_R   0.676760 0.500010 0.349010 -0.525145

loop_
_geom_bond_atom_site_label_1
_geom_bond_atom_site_label_2
_ccdc_geom_bond_type
Cu1   O5    S    
C20   N2    A    
C19   C20   A    
C31   H10   S    
C7    C8    A    
C29   H7    S    
C12   C23   A    
C24   H3    S    
C32   C36   A    
C28   C29   A    
C34   C35   A    
C5    C6    A    
C3    H12   S    
C19   H20   S    
C36   H5    S    
C15   C17   A    
C18   C19   A    
H9    N3    S    
C35   F3    S    
C22   N1    A    
Cu1   O1    S    
C8    C9    A    
C30   F2    S    
C9    C10   A    
C25   O8    A    
C24   N2    A    
C13   C14   A    
C12   C32   A    
C16   O6    A    
Cu2   O2    S    
C4    O4    A    
C1    O1    A    
Cu1   N2    S    
Cu1   O7    S    
C34   H2    S    
C4    O3    A    
C13   N3    S    
C37   H1    S    
C2    C4    S    
C29   C30   A    
C3    C9    A    
C26   C33   A    
C17   C18   A    
Cu2   O4    S    
C16   O5    A    
C18   H19   S    
C25   O7    A    
C31   H11   S    
Cu1   O3    S    
C23   C35   A    
C14   C16   S    
C31   N3    S    
C28   H6    S    
C8    C14   A    
C12   C30   A    
C15   H17   S    
C1    C10   S    
C6    H14   S    
C3    C5    A    
C22   H16   S    
C26   C37   A    
C6    C7    A    
C27   C36   A    
C25   C27   S    
Cu2   N1    S    
C32   C33   A    
C11   H8    S    
C11   C13   A    
Cu1   Cu2   S    
C27   C37   A    
C1    O2    A    
C33   C34   A    
C22   C24   A    
Cu2   O8    S    
C21   N1    A    
C10   C11   A    
C26   H4    S    
C17   H18   S    
C15   C21   A    
C20   C21   A    
C5    F1    S    
C2    C23   A    
Cu2   O6    S    
C2    C28   A    
C31   H13   S    
C7    H15   S    
