data_mof_unit_6769.cif
_audit_creation_date              2012-12-10T17:10:28-0500
_audit_creation_method            fapswitch 2.2
_symmetry_space_group_name_H-M    P1
_symmetry_Int_Tables_number       1
_space_group_crystal_system       triclinic
_cell_length_a                    10.785585
_cell_length_b                    12.998932
_cell_length_c                    11.674594
_cell_angle_alpha                 99.950169
_cell_angle_beta                  93.505954
_cell_angle_gamma                 90.31872
_cell_volume                      1608.93697391

loop_
_atom_site_label
_atom_site_type_symbol
_atom_type_description
_atom_site_fract_x
_atom_site_fract_y
_atom_site_fract_z
_atom_type_partial_charge
C1    C     C_R   0.498374 0.299098 0.478529 0.795368
C2    C     C_R   0.501625 0.700902 0.521471 0.795364
C3    C     C_R   0.501250 0.814284 0.534025 -0.112867
C4    C     C_R   0.498749 0.185715 0.465975 -0.112873
C5    C     C_R   0.507527 0.015574 0.344077 0.149009
C6    C     C_R   0.492471 0.984426 0.655923 0.149012
C7    C     C_R   0.504966 0.123702 0.355961 -0.196341
C8    C     C_R   0.495032 0.876298 0.644039 -0.196337
C9    C     C_R   0.494210 0.139531 0.565070 -0.247272
C10   C     C_R   0.505788 0.860469 0.434930 -0.247277
C11   C     C_R   0.496577 0.031405 0.555930 0.085209
C12   C     C_R   0.503421 0.968595 0.444069 0.085210
C13   C     C_R   0.392388 0.394727 0.021170 -0.294864
C14   C     C_R   0.607612 0.605273 0.978829 -0.294864
C15   C     C_R   0.401524 0.405684 0.143490 0.106356
C16   C     C_R   0.598475 0.594316 0.856510 0.106357
C17   C     C_R   0.544955 0.546656 0.157413 0.050622
C18   C     C_R   0.455045 0.453344 0.842587 0.050621
C19   C     C_R   0.538663 0.538558 0.034473 0.059508
C20   C     C_R   0.461337 0.461441 0.965527 0.059507
C21   C     C_R   0.262852 0.500183 0.500598 0.795909
C22   C     C_R   0.737148 0.499822 0.499402 0.795906
C23   C     C_R   0.130346 0.318193 0.536574 -0.154529
C24   C     C_R   0.869659 0.681801 0.463387 -0.154539
C25   C     C_R   0.066115 0.228829 0.552157 -0.129443
C26   C     C_R   0.933890 0.771160 0.447785 -0.129443
C27   C     C_R   0.937132 0.228235 0.550134 -0.123164
C28   C     C_R   0.062873 0.771756 0.449815 -0.123165
C29   C     C_R   0.871902 0.317048 0.532668 -0.135420
C30   C     C_R   0.128102 0.682950 0.467308 -0.135419
C31   C     C_R   0.935272 0.409004 0.517181 0.069281
C32   C     C_R   0.064730 0.590998 0.482807 0.069279
C33   C     C_R   0.065961 0.409541 0.519038 0.068330
C34   C     C_R   0.934042 0.590460 0.480947 0.068326
C35   C     C_R   0.870807 0.499517 0.498318 -0.174172
C36   C     C_R   0.129194 0.500487 0.501678 -0.174170
Cu1   Cu    Cu3+1 0.509250 0.507730 0.615930 0.949273
Cu2   Cu    Cu3+1 0.490750 0.492270 0.384070 0.949270
H1    H     H_    0.112699 0.841389 0.438213 0.145296
H2    H     H_    0.887305 0.158599 0.561721 0.145297
H3    H     H_    0.332050 0.334432 0.970629 0.160768
H4    H     H_    0.667950 0.665568 0.029371 0.160767
H5    H     H_    0.230564 0.314560 0.537964 0.127344
H6    H     H_    0.769442 0.685431 0.461990 0.127350
H7    H     H_    0.116673 0.159678 0.565387 0.145574
H8    H     H_    0.883333 0.840304 0.434533 0.145577
H9    H     H_    0.771644 0.312480 0.530759 0.133147
H10   H     H_    0.228359 0.687520 0.469221 0.133147
H11   H     H_    0.511221 0.811274 0.350820 0.191562
H12   H     H_    0.488778 0.188726 0.649180 0.191563
H13   H     H_    0.491255 0.840813 0.721173 0.189905
H14   H     H_    0.508744 0.159187 0.278826 0.189906
H15   H     H_    0.395201 0.394653 0.788802 0.125960
H16   H     H_    0.604799 0.605347 0.211198 0.125956
H17   H     H_    0.651731 0.646306 0.814618 0.135056
H18   H     H_    0.348268 0.353695 0.185382 0.135056
N1    N     N_R   0.523180 0.519350 0.790130 -0.187358
N2    N     N_R   0.476820 0.480650 0.209870 -0.187358
O1    O     O_R   0.506570 0.354460 0.582000 -0.595054
O2    O     O_R   0.493430 0.645540 0.418000 -0.595059
O3    O     O_R   0.490940 0.341410 0.386200 -0.587746
O4    O     O_R   0.509060 0.658590 0.613800 -0.587747
O5    O     O_R   0.327470 0.506520 0.597900 -0.578375
O6    O     O_R   0.672530 0.493480 0.402100 -0.578376
O7    O     O_R   0.311840 0.493460 0.402100 -0.579004
O8    O     O_R   0.688160 0.506540 0.597900 -0.579000
I1    I     I_    0.518295 0.930866 0.171739 -0.387859
I2    I     I_    0.481703 0.069134 0.828261 -0.387850

loop_
_geom_bond_atom_site_label_1
_geom_bond_atom_site_label_2
_ccdc_geom_bond_type
C11   C12   A    
C31   C33   A    
Cu1   N1    S    
Cu1   Cu2   S    
C14   C16   A    
C27   C29   A    
C27   H2    S    
C18   N1    A    
C18   C20   A    
C19   C20   A    
C18   H15   S    
Cu2   O7    S    
C5    I1    S    
C17   N2    A    
C14   H4    S    
Cu2   O3    S    
C15   H18   S    
C1    C4    S    
C6    I2    S    
C2    C3    S    
C16   H17   S    
C28   C30   A    
C29   C31   A    
C21   C36   S    
Cu2   N2    S    
Cu1   O8    S    
C30   C32   A    
C22   C35   S    
C9    C11   A    
C8    H13   S    
Cu1   O1    S    
C10   C12   A    
C29   H9    S    
C4    C7    A    
Cu2   O2    S    
C32   C36   A    
C31   C35   A    
C13   H3    S    
C17   C19   A    
C1    O1    A    
C24   C26   A    
C7    H14   S    
Cu1   O4    S    
Cu2   O6    S    
C16   N1    A    
C23   C25   A    
C13   C15   A    
C24   H6    S    
C15   N2    A    
C2    O2    A    
C21   O5    A    
C25   C27   A    
C26   H8    S    
C22   O6    A    
C25   H7    S    
C33   C36   A    
C23   H5    S    
C3    C8    A    
C5    C12   A    
C5    C7    A    
C34   C35   A    
C30   H10   S    
C6    C11   A    
C3    C10   A    
C17   H16   S    
C22   O8    A    
C6    C8    A    
C28   H1    S    
C21   O7    A    
C4    C9    A    
Cu1   O5    S    
C10   H11   S    
C26   C28   A    
C14   C19   A    
C13   C20   A    
C24   C34   A    
C9    H12   S    
C2    O4    A    
C1    O3    A    
C23   C33   A    
C32   C34   A    
