data_mof_unit_30312.cif
_audit_creation_date              2012-12-11T17:08:23-0500
_audit_creation_method            fapswitch 2.2
_symmetry_space_group_name_H-M    P1
_symmetry_Int_Tables_number       1
_space_group_crystal_system       triclinic
_cell_length_a                    6.955197
_cell_length_b                    14.550114
_cell_length_c                    16.066537
_cell_angle_alpha                 89.9947
_cell_angle_beta                  89.870422
_cell_angle_gamma                 90.050853
_cell_volume                      1625.91121403

loop_
_atom_site_label
_atom_site_type_symbol
_atom_type_description
_atom_site_fract_x
_atom_site_fract_y
_atom_site_fract_z
_atom_type_partial_charge
O1    O     O_R   0.505700 0.583890 0.413310 -0.539184
O2    O     O_R   0.175960 0.594920 0.586080 -0.543384
O3    O     O_R   0.005660 0.416110 0.586690 -0.536231
C1    C     C_R   0.344710 0.616981 0.614832 0.692602
O4    O     O_R   0.175980 0.594920 0.413930 -0.541582
O5    O     O_R   0.005680 0.416110 0.413310 -0.538021
C2    C     C_R   0.345089 0.616727 0.384946 0.703445
O6    O     O_R   0.505680 0.583890 0.586690 -0.537174
O7    O     O_3   0.339200 0.441330 0.500000 -0.367666
V1    V     V_3+5 0.064350 0.510880 0.500000 1.382480
O8    O     O_R   0.675960 0.405080 0.413920 -0.540630
C3    C     C_R   0.845302 0.382483 0.385651 0.687841
O9    O     O_R   0.675940 0.405080 0.586070 -0.541622
C4    C     C_R   0.844528 0.382977 0.614781 0.701448
V2    V     V_3+5 0.564340 0.489120 0.500000 1.386765
O10   O     O_3   0.839360 0.558670 0.500000 -0.372135
C5    C     C_R   0.001483 0.248335 0.686206 0.053470
C6    C     C_R   0.851962 0.312562 0.681392 -0.105768
C7    C     C_R   0.703654 0.305286 0.741025 -0.177046
H1    H     H_    0.583176 0.352166 0.739233 0.120881
C8    C     C_R   0.716224 0.241735 0.807183 -0.180962
H2    H     H_    0.604263 0.241083 0.854040 0.127807
C9    C     C_R   0.876912 0.183327 0.815380 -0.136203
C10   C     C_R   0.013071 0.185061 0.751038 0.100402
C11   C     C_3   0.227258 0.191388 0.753692 -0.028519
C12   C     C_3   0.214165 0.260771 0.682511 -0.384845
H3    H     H_    0.280306 0.221460 0.812920 0.139679
H4    H     H_    0.275484 0.236619 0.622389 0.176716
H5    H     H_    0.257735 0.331391 0.700840 0.147767
C13   C     C_R   0.732286 0.179853 0.244507 0.102174
C14   C     C_R   0.881679 0.182310 0.185690 -0.141430
C15   C     C_R   0.030553 0.246423 0.199173 -0.181627
H6    H     H_    0.150853 0.250045 0.156556 0.128937
C16   C     C_R   0.019993 0.310454 0.264898 -0.172320
H7    H     H_    0.132747 0.361271 0.270921 0.124903
C17   C     C_R   0.859419 0.312831 0.318661 -0.102423
C18   C     C_R   0.720676 0.244128 0.308597 0.057688
C19   C     C_3   0.507495 0.251318 0.302141 -0.396047
C20   C     C_3   0.519193 0.179919 0.232740 -0.024482
H8    H     H_    0.462118 0.320179 0.279721 0.146019
H9    H     H_    0.476213 0.206392 0.170610 0.140713
C21   C     C_R   0.506208 0.682389 0.741833 0.097057
C22   C     C_R   0.352666 0.682541 0.685459 -0.111669
C23   C     C_R   0.201815 0.744909 0.700691 -0.178457
H10   H     H_    0.079854 0.747436 0.659233 0.131470
C24   C     C_R   0.213177 0.809159 0.766159 -0.177729
H11   H     H_    0.099093 0.859015 0.773273 0.127739
C25   C     C_R   0.375916 0.813114 0.818270 -0.108228
C26   C     C_R   0.517769 0.746126 0.806432 0.101458
C27   C     C_3   0.729147 0.757445 0.795240 -0.408144
C28   C     C_3   0.716693 0.687627 0.725128 -0.397270
H12   H     H_    0.811496 0.732284 0.849895 0.174491
H13   H     H_    0.791182 0.621932 0.739377 0.166731
H14   H     H_    0.748426 0.717089 0.662756 0.170635
C29   C     C_R   0.501924 0.679339 0.254870 0.057001
C30   C     C_R   0.353669 0.682289 0.314279 -0.134328
C31   C     C_R   0.205361 0.746633 0.301114 -0.181274
H15   H     H_    0.085698 0.750528 0.344051 0.126482
C32   C     C_R   0.216027 0.810754 0.235474 -0.176025
H16   H     H_    0.104180 0.862029 0.229991 0.127851
C33   C     C_R   0.375072 0.812326 0.180828 -0.130551
C34   C     C_R   0.512061 0.742674 0.189875 0.059576
C35   C     C_3   0.726376 0.747836 0.193045 -0.024435
C36   C     C_3   0.715833 0.678324 0.265080 -0.025607
H17   H     H_    0.777023 0.816732 0.213355 0.114650
O11   O     O_R   0.229000 0.916070 0.913330 -0.539774
O12   O     O_R   0.558770 0.905070 0.086080 -0.544099
O13   O     O_R   0.729000 0.083900 0.086690 -0.538883
C37   C     C_R   0.389382 0.882433 0.114282 0.698104
O14   O     O_R   0.558720 0.905070 0.913930 -0.538766
O15   O     O_R   0.728960 0.083900 0.913310 -0.536368
C38   C     C_R   0.389730 0.883126 0.885083 0.692498
O16   O     O_R   0.229050 0.916070 0.086710 -0.535666
O17   O     O_3   0.395460 0.058650 0.000020 -0.370145
V3    V     V_3+5 0.670340 0.989120 0.000000 1.381711
O18   O     O_R   0.058670 0.094960 0.913900 -0.542359
C39   C     C_R   0.889780 0.117055 0.885232 0.701182
O19   O     O_R   0.058720 0.094960 0.086050 -0.540509
C40   C     C_R   0.889793 0.116774 0.115020 0.697984
V4    V     V_3+5 0.170330 0.010930 0.999970 1.383044
O20   O     O_3   0.895340 0.941350 0.999980 -0.371704
H18   H     H_    0.433834 0.227514 0.359760 0.179056
C41   C     C_3   0.427665 0.087617 0.255535 -0.731331
H19   H     H_    0.477482 0.063122 0.317376 0.198988
H20   H     H_    0.268826 0.094439 0.256900 0.212627
H21   H     H_    0.467052 0.035714 0.208157 0.207626
H22   H     H_    0.767342 0.827652 0.773520 0.167892
C42   C     C_3   0.820717 0.715704 0.111582 -0.714393
H23   H     H_    0.749971 0.653240 0.086303 0.199201
H24   H     H_    0.809716 0.770685 0.064073 0.221651
H25   H     H_    0.975435 0.701353 0.122076 0.214428
H26   H     H_    0.760080 0.708357 0.325717 0.117243
C43   C     C_3   0.802902 0.583110 0.249668 -0.705390
H27   H     H_    0.736605 0.548205 0.195367 0.197300
H28   H     H_    0.960441 0.589028 0.239935 0.208501
H29   H     H_    0.778040 0.539962 0.305180 0.209413
C44   C     C_3   0.324625 0.100866 0.729641 -0.744379
H30   H     H_    0.479873 0.112864 0.717866 0.219328
H31   H     H_    0.309893 0.050817 0.781364 0.208887
H32   H     H_    0.259200 0.070876 0.672700 0.203246

loop_
_geom_bond_atom_site_label_1
_geom_bond_atom_site_label_2
_ccdc_geom_bond_type
O15   V3    S    
C29   C30   A    
C35   H17   S    
C43   H27   S    
C35   C42   S    
C4    C6    S    
C7    H1    S    
C1    O6    A    
C44   H30   S    
C20   H9    S    
O13   V3    S    
C34   C35   S    
C5    C12   S    
C17   C18   A    
C7    C8    A    
C36   C43   S    
C6    C7    A    
O5    C3    A    
C19   C20   S    
O19   V4    S    
C31   C32   A    
V2    O10   S    
C29   C34   A    
C30   C31   A    
C16   H7    S    
O8    V2    S    
O11   C38   A    
C41   H19   S    
C27   H12   S    
C9    C10   A    
C37   O16   A    
O1    V2    S    
C3    C17   S    
O7    V1    S    
C21   C28   S    
O13   C40   A    
C32   H16   S    
C43   H28   S    
O17   V4    S    
O9    C4    A    
C19   H18   S    
C2    C30   S    
C25   C38   S    
C44   H31   S    
C23   C24   A    
C27   C28   S    
O18   C39   A    
C24   C25   A    
C32   C33   A    
C5    C10   A    
O17   V3    S    
C10   C11   S    
O4    C2    A    
O19   C40   A    
V3    O20   S    
C11   C12   S    
C13   C18   A    
O12   C37   A    
C15   C16   A    
O2    C1    A    
C22   C23   A    
C18   C19   S    
C14   C15   A    
C42   H25   S    
C29   C36   S    
C5    C6    A    
C9    C39   S    
O3    C4    A    
C27   H22   S    
C11   C44   S    
C25   C26   A    
C41   H20   S    
C42   H24   S    
C43   H29   S    
O6    V2    S    
C8    C9    A    
O12   V3    S    
C21   C22   A    
C36   H26   S    
O2    V1    S    
O15   C39   A    
C44   H32   S    
C23   H10   S    
C33   C37   S    
C24   H11   S    
O1    C2    A    
O18   V4    S    
V4    O20   S    
O5    V1    S    
O8    C3    A    
C14   C40   S    
C1    C22   S    
C11   H3    S    
O11   V4    S    
C12   H4    S    
C28   H14   S    
C15   H6    S    
O9    V2    S    
O7    V2    S    
C20   C41   S    
O4    V1    S    
O3    V1    S    
V1    O10   S    
C19   H8    S    
C31   H15   S    
C13   C14   A    
O16   V4    S    
C13   C20   S    
C16   C17   A    
C33   C34   A    
C21   C26   A    
C35   C36   S    
C41   H21   S    
C42   H23   S    
C12   H5    S    
C26   C27   S    
O14   V3    S    
O14   C38   A    
C28   H13   S    
C8    H2    S    
