data_mof_unit_54380.cif
_audit_creation_date              2012-12-11T15:26:00-0500
_audit_creation_method            fapswitch 2.2
_symmetry_space_group_name_H-M    P1
_symmetry_Int_Tables_number       1
_space_group_crystal_system       monoclinic
_cell_length_a                    24.487613
_cell_length_b                    17.061856
_cell_length_c                    15.538634
_cell_angle_alpha                 90.0
_cell_angle_beta                  50.708162
_cell_angle_gamma                 90.0
_cell_volume                      5024.43792738

loop_
_atom_site_label
_atom_site_type_symbol
_atom_type_description
_atom_site_fract_x
_atom_site_fract_y
_atom_site_fract_z
_atom_type_partial_charge
C1    C     C_R   0.351177 0.143081 0.755739 -0.168648
C2    C     C_2   0.359938 0.740103 0.848403 0.708897
C3    C     C_2   0.359938 0.259897 0.848403 0.708898
C4    C     C_2   0.640062 0.740103 0.151596 0.708897
C5    C     C_2   0.193889 0.651014 0.017858 0.700353
C6    C     C_2   0.806111 0.348986 0.982142 0.700352
C7    C     C_2   0.806111 0.651014 0.982142 0.700353
C8    C     C_2   0.193889 0.348986 0.017858 0.700352
C9    C     C_2   0.691395 0.300722 0.139142 -0.240886
C10   C     C_2   0.308605 0.699278 0.860858 -0.240887
C11   C     C_2   0.308605 0.300722 0.860858 -0.240886
C12   C     C_R   0.648823 0.856919 0.244260 -0.168647
C13   C     C_2   0.691395 0.699278 0.139142 -0.240888
C14   C     C_2   0.264160 0.647437 0.956482 -0.254090
C15   C     C_2   0.735840 0.352562 0.043518 -0.254090
C16   C     C_2   0.735840 0.647437 0.043518 -0.254090
C17   C     C_2   0.264160 0.352562 0.956482 -0.254090
C18   C     C_R   0.614759 0.102933 0.592243 -0.134641
C19   C     C_R   0.385241 0.897066 0.407757 -0.134641
C20   C     C_R   0.385241 0.102933 0.407757 -0.134640
C21   C     C_R   0.614759 0.897066 0.592243 -0.134640
C22   C     C_R   0.087115 0.645297 0.592764 -0.113674
C23   C     C_R   0.648823 0.143081 0.244260 -0.168647
C24   C     C_R   0.912885 0.354703 0.407236 -0.113674
C25   C     C_R   0.912885 0.645297 0.407236 -0.113674
C26   C     C_R   0.087115 0.354703 0.592764 -0.113674
C27   C     C_R   0.689051 0.102446 0.408029 -0.129219
C28   C     C_R   0.310949 0.897553 0.591971 -0.129220
C29   C     C_R   0.310949 0.102446 0.591971 -0.129219
C30   C     C_R   0.689051 0.897554 0.408028 -0.129219
C31   C     C_R   0.162123 0.644895 0.407303 -0.103564
C32   C     C_R   0.837877 0.355105 0.592697 -0.103565
C33   C     C_R   0.837877 0.644895 0.592697 -0.103565
C34   C     C_R   0.351177 0.856919 0.755740 -0.168647
C35   C     C_R   0.162123 0.355105 0.407303 -0.103565
C36   C     C_R   0.557814 0.142410 0.243197 -0.037217
C37   C     C_R   0.442186 0.857590 0.756802 -0.037217
C38   C     C_R   0.442186 0.142410 0.756802 -0.037217
C39   C     C_R   0.557815 0.857590 0.243197 -0.037216
C40   C     C_R   0.076937 0.606783 0.196971 -0.065736
C41   C     C_R   0.923063 0.393217 0.803029 -0.065736
C42   C     C_R   0.923063 0.606783 0.803029 -0.065736
C43   C     C_R   0.076937 0.393217 0.196971 -0.065736
C44   C     C_R   0.384349 0.185761 0.787168 -0.075306
C45   C     C_R   0.832728 0.607095 0.802460 -0.193142
C46   C     C_R   0.615651 0.814239 0.212832 -0.075307
C47   C     C_R   0.615651 0.185760 0.212832 -0.075307
C48   C     C_R   0.384349 0.814239 0.787168 -0.075307
C49   C     C_R   0.852511 0.625560 0.865867 -0.054024
C50   C     C_R   0.147489 0.374440 0.134133 -0.054024
C51   C     C_R   0.147489 0.625560 0.134133 -0.054024
C52   C     C_R   0.852511 0.374440 0.865867 -0.054024
C53   C     C_R   0.683869 0.117883 0.500201 0.056932
C54   C     C_R   0.316131 0.882117 0.499799 0.056932
C55   C     C_R   0.316131 0.117883 0.499799 0.056931
C56   C     C_R   0.167272 0.392904 0.197540 -0.193143
C57   C     C_R   0.683869 0.882117 0.500201 0.056931
C58   C     C_R   0.137569 0.689874 0.499975 0.037423
C59   C     C_R   0.862431 0.310126 0.500024 0.037423
C60   C     C_R   0.862431 0.689874 0.500024 0.037423
C61   C     C_R   0.137569 0.310126 0.499975 0.037423
C62   C     C_R   0.191769 0.157289 0.600465 -0.154029
C63   C     C_R   0.808231 0.842711 0.399535 -0.154029
C64   C     C_R   0.808231 0.157289 0.399535 -0.154029
C65   C     C_R   0.191769 0.842711 0.600465 -0.154029
C66   C     C_R   0.773249 0.795308 0.600791 -0.149095
C67   C     C_R   0.167272 0.607096 0.197540 -0.193143
C68   C     C_R   0.226751 0.204692 0.399209 -0.149095
C69   C     C_R   0.226751 0.795308 0.399209 -0.149095
C70   C     C_R   0.773249 0.204692 0.600791 -0.149096
C71   C     C_R   0.727300 0.842625 0.600898 -0.151960
C72   C     C_R   0.272700 0.157375 0.399102 -0.151960
C73   C     C_R   0.272700 0.842625 0.399102 -0.151960
C74   C     C_R   0.727300 0.157375 0.600898 -0.151960
C75   C     C_R   0.145886 0.204637 0.600475 -0.144860
C76   C     C_R   0.854113 0.795363 0.399525 -0.144860
C77   C     C_R   0.854113 0.204637 0.399525 -0.144860
C78   C     C_R   0.832728 0.392904 0.802460 -0.193143
C79   C     C_R   0.145886 0.795363 0.600475 -0.144860
C80   C     C_R   0.741377 0.859490 0.500236 0.121929
C81   C     C_R   0.258623 0.140510 0.499763 0.121930
C82   C     C_R   0.258623 0.859490 0.499763 0.121929
C83   C     C_R   0.741377 0.140510 0.500237 0.121929
C84   C     C_R   0.167246 0.235797 0.499882 0.126128
C85   C     C_R   0.832753 0.764203 0.500118 0.126128
C86   C     C_R   0.832753 0.235797 0.500118 0.126128
C87   C     C_R   0.167246 0.764203 0.499882 0.126128
C88   C     C_2   0.640062 0.259896 0.151596 0.708898
F1    F     F_    0.382789 0.719814 0.905667 -0.694565
F2    F     F_    0.617211 0.280185 0.094332 -0.694567
F3    F     F_    0.617211 0.719814 0.094332 -0.694566
F4    F     F_    0.382789 0.280186 0.905667 -0.694566
F5    F     F_    0.835623 0.312572 0.021889 -0.697382
F6    F     F_    0.164376 0.687428 0.978111 -0.697382
F7    F     F_    0.164377 0.312572 0.978111 -0.697382
F8    F     F_    0.835623 0.687428 0.021889 -0.697382
H1    H     H_    0.303698 0.157826 0.768348 0.123139
H2    H     H_    0.406204 0.901784 0.322419 0.091869
H3    H     H_    0.406204 0.098216 0.322419 0.091869
H4    H     H_    0.593796 0.901784 0.677581 0.091869
H5    H     H_    0.057395 0.660750 0.679052 0.103865
H6    H     H_    0.942605 0.339250 0.320948 0.103864
H7    H     H_    0.942605 0.660750 0.320948 0.103864
H8    H     H_    0.057395 0.339250 0.679052 0.103864
H9    H     H_    0.736779 0.097284 0.322858 0.095814
H10   H     H_    0.263221 0.902716 0.677141 0.095814
H11   H     H_    0.263221 0.097284 0.677141 0.095814
H12   H     H_    0.696302 0.842174 0.231652 0.123139
H13   H     H_    0.736779 0.902716 0.322858 0.095814
H14   H     H_    0.202289 0.660053 0.321099 0.105738
H15   H     H_    0.797711 0.339947 0.678901 0.105738
H16   H     H_    0.797711 0.660053 0.678901 0.105738
H17   H     H_    0.202289 0.339947 0.321099 0.105738
H18   H     H_    0.520645 0.158242 0.230522 0.132579
H19   H     H_    0.479355 0.841758 0.769477 0.132579
H20   H     H_    0.479355 0.158242 0.769477 0.132579
H21   H     H_    0.520645 0.841758 0.230522 0.132579
H22   H     H_    0.047699 0.603083 0.166507 0.126963
H23   H     H_    0.696301 0.157826 0.231652 0.123138
H24   H     H_    0.952301 0.396917 0.833493 0.126962
H25   H     H_    0.952301 0.603083 0.833493 0.126962
H26   H     H_    0.047699 0.396917 0.166507 0.126962
H27   H     H_    0.177167 0.141047 0.679833 0.122051
H28   H     H_    0.822833 0.858953 0.320167 0.122051
H29   H     H_    0.822833 0.141047 0.320167 0.122051
H30   H     H_    0.177167 0.858953 0.679833 0.122051
H31   H     H_    0.757748 0.776879 0.680056 0.125264
H32   H     H_    0.242252 0.223120 0.319944 0.125264
H33   H     H_    0.242252 0.776879 0.319944 0.125264
H34   H     H_    0.303698 0.842174 0.768348 0.123138
H35   H     H_    0.757748 0.223120 0.680056 0.125264
H36   H     H_    0.678095 0.858838 0.680269 0.119820
H37   H     H_    0.321905 0.141162 0.319731 0.119819
H38   H     H_    0.321905 0.858838 0.319731 0.119820
H39   H     H_    0.678095 0.141162 0.680269 0.119819
H40   H     H_    0.097721 0.223077 0.679780 0.125422
H41   H     H_    0.902279 0.776923 0.320219 0.125422
H42   H     H_    0.902279 0.223077 0.320219 0.125422
H43   H     H_    0.097721 0.776923 0.679780 0.125422
H44   H     H_    0.290598 0.715169 0.814865 0.156072
H45   H     H_    0.779681 0.604094 0.830255 0.115959
H46   H     H_    0.709402 0.284830 0.185135 0.156072
H47   H     H_    0.709402 0.715169 0.185135 0.156072
H48   H     H_    0.290598 0.284830 0.814865 0.156072
H49   H     H_    0.712071 0.381974 0.012576 0.157343
H50   H     H_    0.287929 0.618025 0.987424 0.157343
H51   H     H_    0.287929 0.381974 0.987424 0.157343
H52   H     H_    0.712071 0.618025 0.012576 0.157342
H53   H     H_    0.220319 0.395906 0.169745 0.115959
H54   H     H_    0.220319 0.604094 0.169745 0.115959
H55   H     H_    0.779681 0.395906 0.830255 0.115959
H56   H     H_    0.593796 0.098216 0.677581 0.091869
N1    N     N_R   0.388930 0.078160 0.705470 -0.032375
N2    N     N_R   0.419500 0.922160 0.443350 -0.043755
N3    N     N_R   0.419500 0.077840 0.443350 -0.043755
N4    N     N_R   0.580500 0.922160 0.556650 -0.043755
N5    N     N_R   0.080500 0.577840 0.556650 -0.045435
N6    N     N_R   0.919500 0.422160 0.443350 -0.045435
N7    N     N_R   0.919500 0.577840 0.443350 -0.045435
N8    N     N_R   0.080500 0.422160 0.556650 -0.045435
N9    N     N_R   0.626210 0.077590 0.443410 -0.038117
N10   N     N_R   0.373790 0.922410 0.556590 -0.038117
N11   N     N_R   0.373790 0.077590 0.556590 -0.038117
N12   N     N_R   0.611070 0.921840 0.294530 -0.032375
N13   N     N_R   0.626210 0.922410 0.443410 -0.038117
N14   N     N_R   0.126210 0.577590 0.443410 -0.041531
N15   N     N_R   0.873790 0.422410 0.556590 -0.041531
N16   N     N_R   0.873790 0.577590 0.556590 -0.041531
N17   N     N_R   0.126210 0.422410 0.443410 -0.041531
N18   N     N_R   0.554800 0.077270 0.294580 -0.053111
N19   N     N_R   0.445200 0.922730 0.705420 -0.053111
N20   N     N_R   0.445200 0.077270 0.705420 -0.053111
N21   N     N_R   0.554800 0.922730 0.294580 -0.053111
N22   N     N_R   0.054800 0.577270 0.294580 -0.050051
N23   N     N_R   0.611070 0.078160 0.294530 -0.032375
N24   N     N_R   0.945200 0.422730 0.705420 -0.050051
N25   N     N_R   0.945200 0.577270 0.705420 -0.050051
N26   N     N_R   0.054800 0.422730 0.294580 -0.050051
N27   N     N_R   0.388930 0.921840 0.705470 -0.032375
N28   N     N_R   0.888930 0.578160 0.705470 -0.029824
N29   N     N_R   0.111070 0.421840 0.294530 -0.029824
N30   N     N_R   0.111070 0.578160 0.294530 -0.029824
N31   N     N_R   0.888930 0.421840 0.705470 -0.029824
N32   N     N_R   0.580500 0.077840 0.556650 -0.043755
Ni1   Ni    Ni4+2 0.382710 0.000000 0.629850 0.224932
Ni2   Ni    Ni4+2 0.617290 0.000000 0.370150 0.224932
Ni3   Ni    Ni4+2 0.882710 0.500000 0.629850 0.226338
Ni4   Ni    Ni4+2 0.117290 0.500000 0.370150 0.226338
Ni5   Ni    Ni4+2 0.513020 0.000000 0.629850 0.214048
Ni6   Ni    Ni4+2 0.486980 0.000000 0.370150 0.214047
Ni7   Ni    Ni4+2 0.013020 0.500000 0.629850 0.220048
Ni8   Ni    Ni4+2 0.986980 0.500000 0.370150 0.220048

loop_
_geom_bond_atom_site_label_1
_geom_bond_atom_site_label_2
_ccdc_geom_bond_type
N24   N31   A    
C40   H22   S    
C43   N26   A    
N25   Ni7   S    
C20   N3    A    
C64   C77   A    
C29   N11   A    
C79   H43   S    
C74   C83   A    
C39   N21   A    
C36   H18   S    
C58   C87   S    
N22   N30   A    
C66   C85   A    
C79   C87   A    
C63   H28   S    
C22   C58   A    
C28   N10   A    
C4    C46   S    
C76   H41   S    
C66   H31   S    
C38   C44   A    
C7    F8    S    
C22   H5    S    
C65   C79   A    
C31   C58   A    
N3    Ni6   S    
C26   C61   A    
N6    Ni8   S    
C9    C88   D    
C23   H23   S    
C24   N6    A    
C75   C84   A    
C23   N23   A    
C56   N29   A    
C27   H9    S    
C42   N25   A    
C30   C57   A    
N21   Ni6   S    
C38   H20   S    
N7    N16   A    
N19   Ni5   S    
C36   C47   A    
C78   N31   A    
C4    C13   D    
C71   C80   A    
C18   C53   A    
C26   H8    S    
C6    C15   D    
C65   C82   A    
C19   H2    S    
C28   H10   S    
C70   C74   A    
N8    N17   A    
C69   C73   A    
C25   C60   A    
C18   N32   A    
C55   C81   S    
C11   H48   S    
C68   H32   S    
C41   C52   A    
C72   C81   A    
C45   N28   A    
N18   N23   A    
C4    F3    S    
N4    Ni5   S    
N25   N28   A    
C71   H36   S    
N16   Ni3   S    
C67   H54   S    
C45   H45   S    
C57   C80   S    
N19   N27   A    
C34   N27   A    
C8    F7    S    
C10   H44   S    
C20   C55   A    
C52   C78   A    
C62   H27   S    
N29   Ni4   S    
N6    N15   A    
C5    F6    S    
C63   C80   A    
C3    C44   S    
C23   C47   A    
C30   H13   S    
C68   C84   A    
C77   H42   S    
C7    C49   S    
C12   C46   A    
C10   C14   S    
C1    H1    S    
C15   H49   S    
C21   H4    S    
C28   C54   A    
C75   H40   S    
C25   H7    S    
N24   Ni7   S    
C51   C67   A    
C29   C55   A    
C2    C48   S    
C39   H21   S    
C50   C56   A    
C3    F4    S    
C16   H52   S    
C2    F1    S    
N5    Ni7   S    
C64   C83   A    
C21   C57   A    
N9    Ni2   S    
N28   Ni3   S    
N31   Ni3   S    
C12   N12   A    
N26   Ni8   S    
C1    C44   A    
C66   C71   A    
C31   N14   A    
C45   C49   A    
C68   C72   A    
C6    F5    S    
N15   Ni3   S    
C74   H39   S    
N12   N21   A    
C35   C61   A    
C33   H16   S    
N30   Ni4   S    
C37   C48   A    
C1    N1    A    
C43   H26   S    
C5    C14   D    
C39   C46   A    
N27   Ni1   S    
C19   C54   A    
C7    C16   D    
N17   Ni4   S    
C62   C81   A    
C88   F2    S    
C77   C86   A    
C33   C60   A    
C21   N4    A    
C35   N17   A    
N14   Ni4   S    
C62   C75   A    
C13   C16   S    
C33   N16   A    
C34   C48   A    
C70   C86   A    
C8    C50   S    
C73   C82   A    
C54   C82   S    
C78   H55   S    
C12   H12   S    
C26   N8    A    
N18   Ni6   S    
C11   C17   S    
C17   H51   S    
N7    Ni8   S    
N2    N10   A    
C5    C51   S    
C8    C17   D    
N8    Ni7   S    
C61   C84   S    
C69   C87   A    
N5    N14   A    
C37   N19   A    
C32   H15   S    
C9    H46   S    
C27   C53   A    
C43   C50   A    
C38   N20   A    
C37   H19   S    
C22   N5    A    
N20   Ni5   S    
C40   C51   A    
C14   H50   S    
C36   N18   A    
N13   Ni2   S    
C53   C83   S    
N11   Ni1   S    
N3    N11   A    
C47   C88   S    
N10   Ni1   S    
C9    C15   S    
N12   Ni2   S    
C65   H30   S    
N23   Ni2   S    
C40   N22   A    
C25   N7    A    
C72   H37   S    
C42   H25   S    
C20   H3    S    
N1    Ni1   S    
N4    N13   A    
N9    N32   A    
C24   C59   A    
N1    N20   A    
C70   H35   S    
C31   H14   S    
C35   H17   S    
C24   H6    S    
C13   H47   S    
C41   H24   S    
N2    Ni6   S    
C59   C86   S    
N26   N29   A    
C3    C11   D    
C42   C49   A    
C41   N24   A    
C73   H38   S    
C34   H34   S    
C69   H33   S    
C64   H29   S    
C63   C76   A    
C32   N15   A    
C19   N2    A    
N32   Ni5   S    
C29   H11   S    
C60   C85   S    
C30   N13   A    
C32   C59   A    
C6    C52   S    
C56   H53   S    
C76   C85   A    
C27   N9    A    
C67   N30   A    
N22   Ni8   S    
C18   H56   S    
C2    C10   D    
