data_mof_unit_56126.cif
_audit_creation_date              2012-12-11T15:52:24-0500
_audit_creation_method            fapswitch 2.2
_symmetry_space_group_name_H-M    P1
_symmetry_Int_Tables_number       1
_space_group_crystal_system       triclinic
_cell_length_a                    11.050053
_cell_length_b                    11.075643
_cell_length_c                    18.80981
_cell_angle_alpha                 89.852571
_cell_angle_beta                  89.932145
_cell_angle_gamma                 119.579697
_cell_volume                      2002.02267856

loop_
_atom_site_label
_atom_site_type_symbol
_atom_type_description
_atom_site_fract_x
_atom_site_fract_y
_atom_site_fract_z
_atom_type_partial_charge
C1    C     C_R   0.545498 0.423646 0.139901 0.559980
C2    C     C_3   0.961319 0.711523 0.459278 -0.267603
C3    C     C_3   0.749141 0.030591 0.467193 -0.265357
C4    C     C_3   0.285416 0.251289 0.459718 -0.267847
C5    C     C_R   0.517574 0.457395 0.352981 0.556598
C6    C     C_R   0.544794 0.064858 0.354752 0.549063
C7    C     C_R   0.940194 0.482071 0.352920 0.547376
C8    C     C_R   0.453945 0.521900 0.644436 0.547385
C9    C     C_R   0.070317 0.547585 0.643830 0.554413
C10   C     C_R   0.480674 0.938595 0.646555 0.551125
C11   C     C_R   0.510330 0.006900 0.921623 0.044058
C12   C     C_R   0.550294 0.074396 0.144429 0.562891
C13   C     C_R   0.081694 0.550547 0.934745 0.032119
C14   C     C_R   0.501316 0.479893 0.917513 0.030632
C15   C     C_R   0.999896 0.507863 0.077739 0.049881
C16   C     C_R   0.532054 0.044944 0.069398 0.057744
C17   C     C_R   0.538542 0.443903 0.063142 0.036898
C18   C     C_R   0.413911 0.030050 0.958842 -0.007325
C19   C     C_R   0.104169 0.458398 0.976658 -0.000508
C20   C     C_R   0.615097 0.576627 0.954864 0.026031
C21   C     C_R   0.061490 0.436014 0.047952 0.064328
C22   C     C_R   0.426194 0.050512 0.032216 -0.056340
C23   C     C_R   0.936491 0.479952 0.147333 0.535377
C24   C     C_R   0.641558 0.558457 0.024705 -0.027925
C25   C     C_R   0.632595 0.030500 0.031806 -0.123384
C26   C     C_R   0.982469 0.601820 0.035763 -0.119214
C27   C     C_R   0.429858 0.337628 0.024030 -0.122715
C28   C     C_R   0.019999 0.620664 0.965932 -0.121304
C29   C     C_R   0.624281 0.016700 0.959182 -0.105665
C30   C     C_R   0.414784 0.352826 0.951449 -0.135964
C31   C     C_3   0.261643 0.933516 0.965273 -0.071771
C32   C     C_3   0.044645 0.306069 0.964355 -0.085222
C33   C     C_3   0.678049 0.728440 0.956530 -0.087219
C34   C     C_R   0.457023 0.517397 0.851959 0.541389
C35   C     C_3   0.995545 0.282593 0.041340 -0.081740
C36   C     C_3   0.274651 0.959530 0.045313 -0.080682
C37   C     C_3   0.712518 0.715005 0.034280 -0.089774
C38   C     C_R   0.501956 0.005113 0.577802 0.018407
C39   C     C_R   0.041822 0.526745 0.568350 0.017307
C40   C     C_R   0.476145 0.512018 0.569192 0.019879
C41   C     C_R   0.013906 0.512700 0.420200 0.021197
C42   C     C_R   0.521256 0.029267 0.429384 0.021735
C43   C     C_R   0.487504 0.499846 0.420654 0.021008
C44   C     C_R   0.631329 0.061611 0.544134 0.020834
C45   C     C_R   0.121067 0.576271 0.860134 0.548848
C46   C     C_R   0.052579 0.638642 0.529484 0.030541
C47   C     C_R   0.363076 0.413404 0.530559 0.039039
C48   C     C_R   0.039805 0.632997 0.457066 0.025339
C49   C     C_R   0.639270 0.071237 0.471486 0.042813
C50   C     C_R   0.367184 0.407195 0.458048 0.030328
C51   C     C_R   0.394479 0.992744 0.462945 -0.174108
C52   C     C_R   0.031214 0.411452 0.456617 -0.152786
C53   C     C_R   0.591099 0.615340 0.457097 -0.170785
C54   C     C_R   0.043550 0.417559 0.530964 -0.153929
C55   C     C_R   0.385129 0.981920 0.537100 -0.165759
C56   C     C_R   0.480656 0.937952 0.852659 0.540738
C57   C     C_R   0.587028 0.619798 0.531552 -0.167019
C58   C     C_2   0.176967 0.985420 0.926915 0.539573
C59   C     C_2   0.929914 0.251916 0.909647 0.574940
C60   C     C_2   0.792333 0.789443 0.900856 0.592985
C61   C     C_2   0.059222 0.218739 0.088295 0.570908
C62   C     C_2   0.246133 0.838259 0.092637 0.557419
C63   C     C_2   0.639632 0.755425 0.089111 0.580331
C64   C     C_3   0.744746 0.024490 0.547430 -0.268676
C65   C     C_3   0.976071 0.716763 0.539089 -0.275884
C66   C     C_3   0.283060 0.259706 0.539762 -0.274839
Cr1   Cr    Cr6+3 0.769160 0.541570 0.250690 1.055422
Cr2   Cr    Cr6+3 0.458430 0.227590 0.250690 1.056110
Cr3   Cr    Cr6+3 0.772410 0.230840 0.250690 1.045092
Cr4   Cr    Cr6+3 0.541570 0.769160 0.749310 1.045319
Cr5   Cr    Cr6+3 0.227590 0.458430 0.749310 1.063712
Cr6   Cr    Cr6+3 0.230840 0.772410 0.749310 1.081826
H1    H     H_    0.241625 0.830527 0.948386 0.118430
H2    H     H_    0.019286 0.815189 0.433380 0.134480
H3    H     H_    0.710931 0.927582 0.441892 0.138914
H4    H     H_    0.180848 0.209787 0.435279 0.130492
H5    H     H_    0.715791 0.024438 0.058558 0.180156
H6    H     H_    0.939268 0.662040 0.056944 0.152862
H7    H     H_    0.351218 0.245983 0.050326 0.162259
H8    H     H_    0.006983 0.696973 0.937585 0.205860
H9    H     H_    0.702735 0.001829 0.933803 0.206024
H10   H     H_    0.326702 0.270928 0.924207 0.172693
H11   H     H_    0.036958 0.050321 0.933547 0.373551
H12   H     H_    0.128264 0.281608 0.952491 0.125092
H13   H     H_    0.863850 0.162749 0.813884 0.353015
H14   H     H_    0.889159 0.935040 0.825597 0.360866
H15   H     H_    0.043842 0.042223 0.127667 0.353957
H16   H     H_    0.180605 0.748550 0.188741 0.350030
H17   H     H_    0.653321 0.847463 0.183295 0.352507
H18   H     H_    0.302648 0.968685 0.432079 0.125611
H19   H     H_    0.024967 0.323757 0.428500 0.121555
H20   H     H_    0.680345 0.694909 0.428954 0.119467
H21   H     H_    0.049733 0.335703 0.559083 0.125358
H22   H     H_    0.284201 0.943203 0.561644 0.138447
H23   H     H_    0.597644 0.759852 0.949797 0.134703
H24   H     H_    0.672354 0.703277 0.559562 0.120264
H25   H     H_    0.710808 0.918860 0.567689 0.163296
H26   H     H_    0.042796 0.823420 0.559625 0.137400
H27   H     H_    0.177156 0.221934 0.561794 0.136380
H28   H     H_    0.851855 0.646872 0.442566 0.167360
H29   H     H_    0.848550 0.113706 0.445566 0.139838
H30   H     H_    0.346149 0.202410 0.441232 0.171022
H31   H     H_    0.882421 0.235603 0.048904 0.118906
H32   H     H_    0.226120 0.018992 0.066243 0.160888
H33   H     H_    0.825869 0.766789 0.043582 0.150428
H34   H     H_    0.840692 0.107458 0.572568 0.130218
H35   H     H_    0.875552 0.655079 0.567650 0.144719
H36   H     H_    0.344649 0.218551 0.566835 0.147454
O1    O     O_R   0.911480 0.572650 0.170990 -0.510669
O2    O     O_R   0.528970 0.640340 0.824320 -0.487114
O3    O     O_R   0.111370 0.471030 0.824320 -0.459098
O4    O     O_R   0.359660 0.888630 0.824320 -0.489643
O5    O     O_R   0.909980 0.572450 0.331530 -0.520753
O6    O     O_R   0.427550 0.337530 0.331530 -0.514795
O7    O     O_R   0.662470 0.090020 0.331530 -0.516228
O8    O     O_R   0.572450 0.909980 0.668470 -0.524886
O9    O     O_R   0.337530 0.427550 0.668470 -0.512946
O10   O     O_R   0.090020 0.662470 0.668470 -0.507836
O11   O     O_R   0.638950 0.528780 0.324500 -0.503560
O12   O     O_R   0.427350 0.338830 0.170990 -0.460113
O13   O     O_R   0.471220 0.110170 0.324500 -0.504031
O14   O     O_R   0.889830 0.361050 0.324500 -0.500263
O15   O     O_R   0.528780 0.638950 0.675500 -0.503685
O16   O     O_R   0.110170 0.471220 0.675500 -0.502511
O17   O     O_R   0.361050 0.889830 0.675500 -0.504625
O18   O     O_3   0.666667 0.333333 0.250560 -0.300484
O19   O     O_3   0.333333 0.666667 0.749440 -0.301383
O20   O     O_2   0.188771 0.003259 0.862559 -0.482137
O21   O     O_R   0.083080 0.010569 0.964646 -0.708052
O22   O     O_2   0.834211 0.277194 0.914839 -0.522429
O23   O     O_R   0.661170 0.088520 0.170990 -0.522398
O24   O     O_R   0.942214 0.186841 0.848882 -0.670404
O25   O     O_2   0.843577 0.722025 0.877437 -0.502969
O26   O     O_R   0.821921 0.912436 0.866799 -0.686130
O27   O     O_2   0.160914 0.291529 0.124829 -0.477155
O28   O     O_R   0.996231 0.074318 0.092404 -0.660232
O29   O     O_2   0.285528 0.756783 0.075595 -0.482251
O30   O     O_R   0.183197 0.825924 0.158717 -0.680462
O31   O     O_2   0.515257 0.715677 0.083991 -0.464590
O32   O     O_R   0.714377 0.833515 0.147814 -0.659241
O33   O     O_R   0.572650 0.911480 0.829010 -0.500894
O34   O     O_R   0.338830 0.427350 0.829010 -0.514080
O35   O     O_R   0.088520 0.661170 0.829010 -0.472307
O36   O     O_R   0.640340 0.528970 0.175680 -0.472880
O37   O     O_R   0.471030 0.111370 0.175680 -0.505471
O38   O     O_R   0.888630 0.359660 0.175680 -0.503395

loop_
_geom_bond_atom_site_label_1
_geom_bond_atom_site_label_2
_ccdc_geom_bond_type
C44   C49   A    
Cr4   O19   S    
C40   C47   A    
C13   C45   S    
Cr6   O4    S    
C11   C18   A    
C58   O20   D    
C9    O10   A    
C12   O23   A    
Cr2   O18   S    
C5    O6    A    
Cr6   O35   S    
C63   O32   S    
C2    C65   S    
C3    C49   S    
C59   O22   D    
C3    C64   S    
C44   C64   S    
C37   H33   S    
C26   H6    S    
C14   C34   S    
C5    O11   A    
C25   H5    S    
C31   C58   S    
C19   C21   A    
C65   H26   S    
H11   O21   S    
C27   H7    S    
H13   O24   S    
C31   H1    S    
C39   C54   A    
Cr1   O36   S    
C58   O21   S    
C9    C39   S    
C9    O16   A    
C54   H21   S    
Cr4   O2    S    
Cr4   O15   S    
H14   O26   S    
Cr3   O7    S    
C38   C55   A    
C20   C24   A    
C57   H24   S    
C4    H30   S    
C61   O28   S    
C13   C28   A    
C10   O17   A    
C3    H3    S    
C47   C66   S    
C2    H2    S    
C42   C51   A    
C3    H29   S    
C15   C23   S    
C5    C43   S    
C2    H28   S    
C62   O29   D    
C27   C30   A    
Cr3   O38   S    
Cr5   O19   S    
C14   C30   A    
C55   H22   S    
C36   C62   S    
C19   C32   S    
C33   H23   S    
C26   C28   A    
C37   C63   S    
C52   C54   A    
C8    O9    A    
C47   C50   A    
C25   C29   A    
C32   H12   S    
C23   O38   A    
C46   C48   A    
C59   O24   S    
C17   C24   A    
C13   C19   A    
Cr6   O19   S    
C17   C27   A    
C32   C35   S    
C12   C16   S    
Cr5   O16   S    
C46   C65   S    
Cr1   O18   S    
Cr5   O9    S    
C15   C26   A    
Cr4   O8    S    
C43   C53   A    
C33   C37   S    
Cr5   O3    S    
C1    O12   A    
C12   O37   A    
C30   H10   S    
C38   C44   A    
C14   C20   A    
Cr3   O23   S    
H17   O32   S    
C53   H20   S    
C24   C37   S    
C35   C61   S    
C62   O30   S    
H16   O30   S    
Cr5   O34   S    
C56   O33   A    
C64   H25   S    
C29   H9    S    
C33   C60   S    
C39   C46   A    
C34   O2    A    
C20   C33   S    
C7    O14   A    
Cr6   O10   S    
C60   O26   S    
C10   O8    A    
C61   O27   D    
C16   C25   A    
C34   O34   A    
Cr4   O33   S    
C16   C22   A    
C40   C57   A    
C41   C52   A    
C18   C22   A    
C63   O31   D    
H15   O28   S    
C66   H36   S    
C66   H27   S    
C53   C57   A    
Cr2   O13   S    
Cr3   O18   S    
C45   O3    A    
C43   C50   A    
C64   H34   S    
C21   C35   S    
C22   C36   S    
C35   H31   S    
C32   C59   S    
C36   H32   S    
Cr6   O17   S    
C10   C38   S    
C2    C48   S    
C7    O5    A    
Cr1   O5    S    
C51   H18   S    
C1    O36   A    
Cr2   O12   S    
C4    C66   S    
Cr1   O1    S    
Cr3   O14   S    
C41   C48   A    
C65   H35   S    
C51   C55   A    
C7    C41   S    
C8    O15   A    
C28   H8    S    
C6    O7    A    
C4    H4    S    
Cr2   O37   S    
C42   C49   A    
C15   C21   A    
C1    C17   S    
C11   C29   A    
C6    C42   S    
C4    C50   S    
C45   O35   A    
C31   C36   S    
C52   H19   S    
C18   C31   S    
C8    C40   S    
C6    O13   A    
Cr1   O11   S    
C60   O25   D    
C56   O4    A    
C11   C56   S    
C23   O1    A    
Cr2   O6    S    
