data_mof_unit_55702.cif
_audit_creation_date              2012-12-11T15:57:33-0500
_audit_creation_method            fapswitch 2.2
_symmetry_space_group_name_H-M    P1
_symmetry_Int_Tables_number       1
_space_group_crystal_system       triclinic
_cell_length_a                    10.70506
_cell_length_b                    10.789931
_cell_length_c                    16.997726
_cell_angle_alpha                 99.620815
_cell_angle_beta                  99.434734
_cell_angle_gamma                 61.523201
_cell_volume                      1693.47856752

loop_
_atom_site_label
_atom_site_type_symbol
_atom_type_description
_atom_site_fract_x
_atom_site_fract_y
_atom_site_fract_z
_atom_type_partial_charge
C1    C     C_R   0.354887 0.775686 0.401784 0.573913
C2    C     C_2   0.314823 0.308829 0.810680 -0.095346
C3    C     C_2   0.356575 0.194004 0.756143 -0.144980
C4    C     C_R   0.369635 0.346406 0.357286 0.548670
C5    C     C_2   0.379523 0.199033 0.675423 -0.151892
C6    C     C_1   0.817031 0.342410 0.708750 -0.029237
C7    C     C_1   0.844173 0.313510 0.776358 -0.029577
C8    C     C_1   0.358521 0.763734 0.713550 -0.041893
C9    C     C_1   0.326042 0.811135 0.780500 -0.046254
C10   C     C_R   0.897581 0.306162 0.088145 0.555477
C11   C     C_R   0.318896 0.299465 0.119727 0.546318
C12   C     C_2   0.847338 0.319464 0.164665 -0.133469
C13   C     C_R   0.292949 0.893365 0.084540 0.552560
C14   C     C_R   0.885948 0.296759 0.858604 0.551032
C15   C     C_R   0.304505 0.288019 0.890414 0.550699
C16   C     C_R   0.779148 0.375895 0.406013 0.558391
C17   C     C_R   0.280596 0.880938 0.857226 0.548066
C18   C     C_R   0.381255 0.714016 0.631369 0.554648
C19   C     C_R   0.364958 0.345633 0.579283 0.545072
C20   C     C_R   0.772669 0.381455 0.629715 0.538697
C21   C     C_1   0.343032 0.335948 0.273942 -0.036949
C22   C     C_1   0.331365 0.326290 0.203037 -0.040348
C23   C     C_2   0.908655 0.204585 0.205774 -0.170573
C24   C     C_2   0.862692 0.325632 0.337633 -0.071931
C25   C     C_3   0.872652 0.991743 0.256037 -0.004274
C26   C     C_3   0.842300 0.888881 0.290326 -0.346095
C27   C     C_3   0.675422 0.693264 0.301840 -0.096225
C28   C     C_2   0.874216 0.211515 0.287370 0.236925
C29   C     C_2   0.329652 0.852461 0.333425 -0.066507
C30   C     C_2   0.339182 0.834611 0.160722 -0.161479
C31   C     C_2   0.412629 0.883048 0.217581 -0.164160
C32   C     C_2   0.437919 0.847162 0.299948 0.239253
C33   C     C_2   0.304469 0.317280 0.639651 -0.108713
Cr1   Cr    Cr6+3 0.608020 0.610770 0.522990 1.054149
Cr2   Cr    Cr6+3 0.289390 0.599570 0.488050 1.021597
Cr3   Cr    Cr6+3 0.602610 0.289690 0.489020 1.072233
Cr4   Cr    Cr6+3 0.053780 0.052210 0.965970 1.031723
Cr5   Cr    Cr6+3 0.060060 0.372530 0.992430 1.030201
Cr6   Cr    Cr6+3 0.372600 0.061970 0.991430 1.022837
H1    H     H_    0.986831 0.103489 0.179471 0.138484
H2    H     H_    0.387737 0.089506 0.773020 0.163546
H3    H     H_    0.986076 0.934888 0.242624 0.120721
H4    H     H_    0.800135 0.024717 0.200120 0.145108
H5    H     H_    0.728381 0.940162 0.302147 0.196197
H6    H     H_    0.865612 0.793446 0.246749 0.083660
H7    H     H_    0.910990 0.855917 0.347194 0.172823
H8    H     H_    0.688043 0.717076 0.243373 0.099932
H9    H     H_    0.649943 0.602936 0.292361 0.121030
H10   H     H_    0.779289 0.660953 0.338940 0.147780
H11   H     H_    0.470649 0.109129 0.649585 0.168036
H12   H     H_    0.283066 0.414659 0.796069 0.093528
H13   H     H_    0.208306 0.403326 0.663254 0.115336
H14   H     H_    0.772259 0.422721 0.190262 0.073670
H15   H     H_    0.897650 0.396674 0.321340 0.041063
H16   H     H_    0.456805 0.948520 0.204222 0.162742
H17   H     H_    0.296505 0.768059 0.174396 0.092719
H18   H     H_    0.223508 0.892591 0.301475 0.056807
O1    O     O_R   0.749250 0.499990 0.439200 -0.527663
O2    O     O_R   0.411120 0.181190 0.091480 -0.516160
O3    O     O_R   0.364220 0.944920 0.062310 -0.497961
O4    O     O_R   0.477870 0.725740 0.440280 -0.435900
O5    O     O_R   0.158740 0.906940 0.874970 -0.499978
O6    O     O_R   0.930920 0.176940 0.885610 -0.490416
O7    O     O_R   0.910730 0.394510 0.895320 -0.509064
O8    O     O_R   0.185840 0.361180 0.920280 -0.492214
O9    O     O_R   0.399210 0.173040 0.915160 -0.511386
O10   O     O_R   0.353170 0.937370 0.898860 -0.502174
O11   O     O_3   0.162150 0.162240 0.983280 -0.258697
O12   O     O_R   0.299400 0.468710 0.556310 -0.515509
O13   O     O_R   0.260770 0.742210 0.412610 -0.523095
O14   O     O_R   0.297990 0.466320 0.394220 -0.507966
O15   O     O_R   0.487720 0.253870 0.385870 -0.483980
O16   O     O_R   0.721940 0.304340 0.422320 -0.430748
O17   O     O_R   0.750770 0.502570 0.614050 -0.513478
O18   O     O_R   0.479280 0.728140 0.602370 -0.492652
O19   O     O_R   0.262290 0.744790 0.587460 -0.497906
O20   O     O_3   0.848782 0.109763 0.313244 -0.521928
O21   O     O_3   0.570228 0.812728 0.342804 -0.536032
O22   O     O_R   0.489240 0.256450 0.560730 -0.504697
O23   O     O_R   0.723350 0.306730 0.584410 -0.497937
O24   O     O_3   0.500010 0.500010 0.500020 -0.290337
O25   O     O_R   0.170650 0.915100 0.051290 -0.519569
O26   O     O_R   0.941960 0.184500 0.049060 -0.498481
O27   O     O_R   0.922640 0.402670 0.071640 -0.511103
O28   O     O_R   0.196880 0.368740 0.083740 -0.498707

loop_
_geom_bond_atom_site_label_1
_geom_bond_atom_site_label_2
_ccdc_geom_bond_type
C27   H9    S    
C18   O18   A    
Cr6   O11   S    
C27   O21   S    
C25   H4    S    
Cr4   O5    S    
Cr2   O24   S    
C26   H5    S    
C13   O3    A    
C33   H13   S    
C12   C23   D    
C25   O20   S    
C29   C32   D    
C30   C31   D    
C14   O6    A    
C24   H15   S    
C23   H1    S    
C15   O8    A    
Cr4   O11   S    
C10   O26   A    
C26   H6    S    
C7    C14   S    
Cr2   O13   S    
C8    C9    T    
C5    C33   D    
Cr1   O24   S    
C12   H14   S    
Cr1   O18   S    
Cr6   O2    S    
C16   C24   S    
C21   C22   T    
C11   O2    A    
Cr4   O6    S    
Cr5   O7    S    
Cr2   O19   S    
C17   O10   A    
C20   O23   A    
Cr5   O28   S    
C16   O16   A    
C13   C30   S    
Cr3   O23   S    
C25   C26   S    
C15   O9    A    
C30   H17   S    
C13   O25   A    
Cr1   O4    S    
C8    C18   S    
C2    C15   S    
C17   O5    A    
C31   C32   S    
Cr5   O8    S    
Cr3   O24   S    
C14   O7    A    
C1    C29   S    
C20   O17   A    
C16   O1    A    
C23   C28   S    
C19   O22   A    
C28   O20   S    
C10   C12   S    
Cr1   O17   S    
C9    C17   S    
C29   H18   S    
C19   C33   S    
Cr6   O9    S    
C5    H11   S    
C19   O12   A    
C4    O15   A    
C27   H8    S    
C3    H2    S    
C18   O19   A    
Cr5   O27   S    
Cr6   O10   S    
C24   C28   D    
Cr5   O11   S    
C3    C5    S    
Cr3   O22   S    
C1    O4    A    
C25   H3    S    
C6    C7    T    
C6    C20   S    
C11   C22   S    
C1    O13   A    
C2    C3    D    
Cr2   O14   S    
C4    C21   S    
C11   O28   A    
Cr6   O3    S    
C10   O27   A    
Cr4   O25   S    
C2    H12   S    
C26   H7    S    
C32   O21   S    
C27   H10   S    
Cr2   O12   S    
Cr1   O1    S    
Cr4   O26   S    
C31   H16   S    
Cr3   O16   S    
C4    O14   A    
Cr3   O15   S    
