data_mof_unit_35450.cif
_audit_creation_date              2012-10-26T20:00:42-0400
_audit_creation_method            fapswitch 2.2
_symmetry_space_group_name_H-M    P1
_symmetry_Int_Tables_number       1
_space_group_crystal_system       triclinic
_cell_length_a                    11.663227
_cell_length_b                    13.032988
_cell_length_c                    13.439267
_cell_angle_alpha                 91.915757
_cell_angle_beta                  76.159318
_cell_angle_gamma                 99.100889
_cell_volume                      1958.55267943

loop_
_atom_site_label
_atom_site_type_symbol
_atom_type_description
_atom_site_fract_x
_atom_site_fract_y
_atom_site_fract_z
_atom_type_partial_charge
C1    C     C_R   0.519142 0.700158 0.503931 0.542009
C2    C     C_R   0.394791 0.485715 0.809338 0.019904
C3    C     C_R   0.469788 0.185891 0.500291 -0.035667
C4    C     C_R   0.435615 0.496465 0.696465 0.553108
C5    C     C_R   0.525411 0.811747 0.514924 -0.013952
C6    C     C_R   0.607878 0.973052 0.581908 -0.130777
C7    C     C_R   0.604277 0.866876 0.568340 -0.139954
C8    C     C_R   0.448222 0.862540 0.476565 -0.103186
C9    C     C_R   0.452880 0.969678 0.487514 0.026904
C10   C     C_R   0.535328 0.026615 0.539042 0.004349
C11   C     C_R   0.544874 0.135626 0.544435 0.108763
C12   C     C_R   0.448773 0.489467 0.975615 0.028921
C13   C     C_R   0.385398 0.127646 0.453760 -0.130319
C14   C     C_R   0.377185 0.020547 0.446829 0.351697
C15   C     C_R   0.940790 0.595021 0.600151 0.093369
C16   C     C_R   0.479514 0.299241 0.500367 0.574481
C17   C     C_R   0.822798 0.585158 0.588778 0.093397
C18   C     C_R   0.860536 0.462389 0.455957 0.021871
C19   C     C_R   0.979561 0.467822 0.464570 -0.021746
C20   C     C_R   0.021131 0.535134 0.537218 0.011018
C21   C     C_R   0.142073 0.541205 0.542392 0.047113
C22   C     C_R   0.175461 0.414865 0.411943 0.054275
C23   C     C_R   0.472512 0.525799 0.873154 -0.001539
C24   C     C_R   0.057561 0.407517 0.402014 -0.174706
C25   C     C_R   0.564121 0.505737 0.304127 0.544448
C26   C     C_R   0.728335 0.619161 0.047301 -0.132222
C27   C     C_R   0.601759 0.521672 0.193213 -0.000984
C28   C     C_R   0.284813 0.422437 0.852963 0.129759
C29   C     C_R   0.258036 0.393928 0.955840 -0.129480
C30   C     C_R   0.338858 0.424809 0.015779 -0.144010
C31   C     C_3   0.011781 0.770936 0.642559 -0.305201
C32   C     C_3   0.110303 0.447019 0.797024 -0.285532
C33   C     C_3   0.750473 0.213319 0.534928 -0.271043
C34   C     C_R   0.535586 0.519944 0.034049 0.041063
C35   C     C_R   0.641521 0.589269 0.990950 0.051512
C36   C     C_R   0.657642 0.631222 0.893732 -0.133102
C37   C     C_R   0.572943 0.602221 0.836992 -0.122144
C38   C     C_R   0.519717 0.485120 0.134882 -0.124018
C39   C     C_R   0.708265 0.585903 0.148341 -0.135502
Cu1   Cu    Cu3+1 0.386470 0.492430 0.492410 0.950151
Cu2   Cu    Cu3+1 0.613530 0.507570 0.507590 0.942671
F1    F     F_    0.296288 0.966898 0.398908 -0.649924
H1    H     H_    0.772459 0.615041 0.192924 0.133074
H2    H     H_    0.735381 0.687949 0.861831 0.119821
H3    H     H_    0.828510 0.412769 0.399033 0.115293
H4    H     H_    0.809522 0.671691 0.014542 0.111418
H5    H     H_    0.442059 0.432153 0.172254 0.108406
H6    H     H_    0.310777 0.397494 0.093790 0.103691
H7    H     H_    0.174275 0.345095 0.989334 0.113206
H8    H     H_    0.585979 0.642168 0.765073 0.119243
H9    H     H_    0.029799 0.638195 0.715805 0.235647
H10   H     H_    0.029876 0.820072 0.707847 0.144292
H11   H     H_    0.940067 0.799697 0.614911 0.155877
H12   H     H_    0.327344 0.165500 0.420062 0.151504
H13   H     H_    0.094709 0.778021 0.580168 0.174102
H14   H     H_    0.166719 0.306153 0.807226 0.243336
H15   H     H_    0.056036 0.417119 0.741707 0.146247
H16   H     H_    0.151118 0.528700 0.776319 0.147366
H17   H     H_    0.050623 0.444819 0.875229 0.129314
H18   H     H_    0.619828 0.172392 0.669159 0.241815
H19   H     H_    0.803586 0.273260 0.573221 0.149997
H20   H     H_    0.754585 0.240701 0.456667 0.157016
H21   H     H_    0.791569 0.141526 0.527979 0.123473
H22   H     H_    0.668351 0.011833 0.625744 0.115808
H23   H     H_    0.661775 0.827515 0.601276 0.118074
H24   H     H_    0.386088 0.818597 0.436596 0.187478
H25   H     H_    0.178862 0.594069 0.594423 0.118976
H26   H     H_    0.235145 0.367968 0.363731 0.120648
H27   H     H_    0.027573 0.354894 0.346053 0.087185
H28   H     H_    0.761588 0.631038 0.636283 0.127622
N1    N     N_R   0.215880 0.481050 0.481000 -0.228325
N2    N     N_R   0.784100 0.518950 0.519000 -0.251439
N3    N     N_2   0.974570 0.664038 0.676032 -0.559905
N4    N     N_2   0.202252 0.383399 0.793031 -0.484281
N5    N     N_2   0.627941 0.195068 0.594714 -0.484610
O1    O     O_R   0.419710 0.645650 0.494620 -0.512151
O2    O     O_R   0.611450 0.658430 0.507430 -0.512004
O3    O     O_R   0.357340 0.490460 0.641450 -0.470222
O4    O     O_R   0.549080 0.503250 0.654260 -0.512140
O5    O     O_R   0.388550 0.341570 0.492570 -0.513473
O6    O     O_R   0.580290 0.354350 0.505380 -0.465093
O7    O     O_R   0.450920 0.496750 0.345740 -0.505282
O8    O     O_R   0.642660 0.509540 0.358550 -0.506779

loop_
_geom_bond_atom_site_label_1
_geom_bond_atom_site_label_2
_ccdc_geom_bond_type
C8    H24   S    
Cu1   N1    S    
C1    O2    A    
C35   C36   A    
C32   H16   S    
C31   H10   S    
C28   N4    S    
C29   H7    S    
C12   C23   A    
C21   N1    A    
C1    C5    S    
C30   H6    S    
C28   C29   A    
C18   C19   A    
Cu2   O2    S    
C26   C39   A    
C31   N3    S    
C27   C38   A    
Cu2   O8    S    
C34   C35   A    
C6    H22   S    
C33   N5    S    
C19   C20   A    
C27   C39   A    
C33   H20   S    
Cu1   O5    S    
C9    C10   A    
C3    C13   A    
C14   F1    S    
C17   H28   S    
C13   C14   A    
C21   H25   S    
C32   H15   S    
C24   H27   S    
C18   N2    A    
C15   C20   A    
H14   N4    S    
Cu1   O7    S    
C4    O4    A    
C5    C7    A    
C8    C9    A    
C39   H1    S    
C23   C37   A    
Cu1   O1    S    
C16   O5    A    
C2    C4    S    
C9    C14   A    
C4    O3    A    
C29   C30   A    
C7    H23   S    
C33   H21   S    
Cu2   O6    S    
C31   H11   S    
C22   H26   S    
C38   H5    S    
Cu2   N2    S    
Cu1   Cu2   S    
C15   N3    S    
C25   O7    A    
C22   C24   A    
C36   H2    S    
C12   C34   A    
C18   H3    S    
C22   N1    A    
C13   H12   S    
C15   C17   A    
C36   C37   A    
C12   C30   A    
C34   C38   A    
C1    O1    A    
H9    N3    S    
C6    C10   A    
C5    C8    A    
C6    C7    A    
C25   C27   S    
H18   N5    S    
C19   C24   A    
C11   N5    S    
C32   N4    S    
C37   H8    S    
C16   O6    A    
Cu1   O3    S    
C3    C11   A    
C10   C11   A    
C26   H4    S    
C26   C35   A    
C20   C21   A    
C17   N2    A    
C33   H19   S    
Cu2   O4    S    
C2    C23   A    
C25   O8    A    
C2    C28   A    
C32   H17   S    
C31   H13   S    
C3    C16   S    
