data_mof_unit_22004.cif
_audit_creation_date              2012-10-26T20:20:48-0400
_audit_creation_method            fapswitch 2.2
_symmetry_space_group_name_H-M    P1
_symmetry_Int_Tables_number       1
_space_group_crystal_system       triclinic
_cell_length_a                    8.716653
_cell_length_b                    10.805772
_cell_length_c                    9.598529
_cell_angle_alpha                 89.074661
_cell_angle_beta                  97.183891
_cell_angle_gamma                 92.524502
_cell_volume                      896.067661913

loop_
_atom_site_label
_atom_site_type_symbol
_atom_type_description
_atom_site_fract_x
_atom_site_fract_y
_atom_site_fract_z
_atom_type_partial_charge
C1    C     C_R   0.498233 0.262309 0.500541 0.546080
C2    C     C_R   0.540510 0.063601 0.625898 -0.145003
C3    C     C_R   0.497281 0.871581 0.499420 0.019964
C4    C     C_R   0.495335 0.128283 0.501147 0.022089
C5    C     C_R   0.407182 0.418704 0.067740 0.022499
C6    C     C_R   0.595724 0.579116 0.932677 0.024120
C7    C     C_R   0.402877 0.418805 0.919374 0.114979
C8    C     C_R   0.595761 0.581972 0.080408 0.116773
C9    C     C_3   0.293829 0.320628 0.844033 -0.234961
C10   C     C_3   0.124377 0.326693 0.875806 -0.320414
C11   C     C_3   0.072297 0.213389 0.958243 -0.453945
C12   C     C_R   0.499466 0.737663 0.499385 0.544915
C13   C     C_3   0.709956 0.676319 0.155693 -0.229205
C14   C     C_3   0.671408 0.811465 0.114390 -0.313330
C15   C     C_3   0.791731 0.875897 0.031789 -0.461089
C16   C     C_R   0.204225 0.500174 0.464274 0.548109
C17   C     C_R   0.795827 0.502489 0.535552 0.546558
C18   C     C_2   0.038561 0.499099 0.444355 -0.160145
C19   C     C_2   0.961546 0.508370 0.554671 -0.167108
C20   C     C_R   0.448449 0.064214 0.376082 -0.140018
C21   C     C_R   0.542015 0.935618 0.624937 -0.139210
C22   C     C_R   0.448255 0.936117 0.375551 -0.152646
Cu1   Cu    Cu3+1 0.500000 0.500020 0.640660 0.913128
Cu2   Cu    Cu3+1 0.500000 0.499980 0.359340 0.914512
H1    H     H_    0.979633 0.489041 0.338136 0.125079
H2    H     H_    0.145181 0.204483 0.060889 0.140868
H3    H     H_    0.950385 0.222506 0.977736 0.150026
H4    H     H_    0.106422 0.412357 0.933282 0.161920
H5    H     H_    0.046093 0.329247 0.775284 0.159603
H6    H     H_    0.289339 0.326084 0.730382 0.207820
H7    H     H_    0.340225 0.228391 0.874171 0.116725
H8    H     H_    0.907489 0.878130 0.095228 0.155415
H9    H     H_    0.798459 0.827803 0.931753 0.141577
H10   H     H_    0.759134 0.972727 0.006911 0.140645
H11   H     H_    0.554886 0.816318 0.052814 0.159011
H12   H     H_    0.020604 0.520873 0.660347 0.123733
H13   H     H_    0.669303 0.865575 0.211421 0.163809
H14   H     H_    0.717975 0.669293 0.269583 0.204204
H15   H     H_    0.827890 0.655865 0.131885 0.109079
H16   H     H_    0.410849 0.112926 0.279093 0.118483
H17   H     H_    0.579596 0.887017 0.721979 0.123913
H18   H     H_    0.409169 0.887706 0.278788 0.122113
H19   H     H_    0.577066 0.111800 0.723338 0.123157
H20   H     H_    0.335364 0.353531 0.119772 0.124325
H21   H     H_    0.672886 0.640578 0.881601 0.121785
H22   H     H_    0.079042 0.127846 0.897013 0.151802
N1    N     N_R   0.500040 0.500030 0.852080 -0.238045
N2    N     N_R   0.499960 0.499970 0.147920 -0.237965
O1    O     O_R   0.499990 0.319660 0.618740 -0.526507
O2    O     O_R   0.500010 0.680340 0.381260 -0.518927
O3    O     O_R   0.499990 0.319630 0.381170 -0.506018
O4    O     O_R   0.500010 0.680370 0.618830 -0.505793
O5    O     O_R   0.274840 0.500010 0.591370 -0.511296
O6    O     O_R   0.725160 0.499990 0.408630 -0.515943
O7    O     O_R   0.274830 0.499980 0.353800 -0.500006
O8    O     O_R   0.725170 0.500020 0.646200 -0.501244

loop_
_geom_bond_atom_site_label_1
_geom_bond_atom_site_label_2
_ccdc_geom_bond_type
C2    C4    A    
Cu1   Cu2   S    
C8    N2    A    
C8    C13   S    
C6    H21   S    
C9    C10   S    
C15   H10   S    
C12   O2    A    
C17   O8    A    
C11   H3    S    
C2    H19   S    
C1    C4    S    
Cu2   O3    S    
Cu1   O4    S    
C16   O7    A    
C15   H8    S    
C13   C14   S    
Cu2   O7    S    
C14   H13   S    
C1    O3    A    
C10   H5    S    
C13   H14   S    
C22   H18   S    
C18   H1    S    
C9    H6    S    
C2    C21   A    
C21   H17   S    
C17   C19   S    
C5    H20   S    
C20   C22   A    
Cu1   O5    S    
C5    C7    A    
C19   H12   S    
Cu2   O2    S    
C20   H16   S    
C5    N2    A    
C3    C21   A    
Cu1   O1    S    
C10   C11   S    
C9    H7    S    
Cu2   O6    S    
C4    C20   A    
Cu1   O8    S    
Cu1   N1    S    
C16   C18   S    
C18   C19   D    
C6    N1    A    
C10   H4    S    
C14   H11   S    
C7    C9    S    
C14   C15   S    
C3    C22   A    
C6    C8    A    
C3    C12   S    
C11   H2    S    
C12   O4    A    
C16   O5    A    
C1    O1    A    
C17   O6    A    
C15   H9    S    
C13   H15   S    
C7    N1    A    
C11   H22   S    
Cu2   N2    S    
