data_mof_unit_18378.cif
_audit_creation_date              2012-10-26T19:09:57-0400
_audit_creation_method            fapswitch 2.2
_symmetry_space_group_name_H-M    P1
_symmetry_Int_Tables_number       1
_space_group_crystal_system       triclinic
_cell_length_a                    15.268387
_cell_length_b                    15.083052
_cell_length_c                    9.403087
_cell_angle_alpha                 89.812137
_cell_angle_beta                  90.059808
_cell_angle_gamma                 90.052044
_cell_volume                      2165.45963635

loop_
_atom_site_label
_atom_site_type_symbol
_atom_type_description
_atom_site_fract_x
_atom_site_fract_y
_atom_site_fract_z
_atom_type_partial_charge
C1    C     C_R   0.118100 0.377665 0.500420 0.597274
C2    C     C_R   0.879275 0.619309 0.499555 0.566517
C3    C     C_R   0.380904 0.879000 0.500213 0.563374
C4    C     C_R   0.379275 0.119309 0.499555 0.566517
C5    C     C_3   0.799504 0.271856 0.652486 -0.260103
C6    C     C_3   0.837104 0.233476 0.398531 -0.249145
C7    C     C_3   0.842840 0.773065 0.566703 -0.258615
C8    C     C_3   0.777880 0.706777 0.345086 -0.264649
C9    C     C_3   0.299504 0.771856 0.652486 -0.260102
C10   C     C_3   0.337104 0.733476 0.398530 -0.249145
C11   C     C_3   0.342840 0.273065 0.566702 -0.258616
C12   C     C_R   0.120828 0.619489 0.500065 0.593927
C13   C     C_3   0.277880 0.206777 0.345086 -0.264650
C14   C     C_3   0.230286 0.698550 0.651765 -0.280961
C15   C     C_3   0.267477 0.659192 0.404073 -0.257324
C16   C     C_3   0.271902 0.345285 0.561276 -0.276414
C17   C     C_3   0.202498 0.273461 0.347769 -0.267143
C18   C     C_3   0.730286 0.198551 0.651766 -0.280961
C19   C     C_3   0.767477 0.159192 0.404073 -0.257325
C20   C     C_3   0.771902 0.845285 0.561277 -0.276415
C21   C     C_3   0.702499 0.773461 0.347769 -0.267142
C22   C     C_3   0.724269 0.351954 0.450024 -0.162348
C23   C     C_R   0.618100 0.877665 0.500420 0.597275
C24   C     C_3   0.728571 0.651417 0.583558 -0.174698
C25   C     C_3   0.224268 0.851954 0.450025 -0.162348
C26   C     C_3   0.228571 0.151417 0.583559 -0.174698
C27   C     C_3   0.811850 0.310298 0.500530 -0.002183
C28   C     C_3   0.808654 0.686364 0.498939 -0.000690
C29   C     C_3   0.311850 0.810298 0.500530 -0.002183
C30   C     C_3   0.308654 0.186364 0.498939 -0.000690
C31   C     C_3   0.189548 0.688774 0.500081 0.098789
C32   C     C_3   0.185151 0.306180 0.502533 0.110993
C33   C     C_3   0.689548 0.188774 0.500081 0.098789
C34   C     C_R   0.620828 0.119489 0.500065 0.593927
C35   C     C_3   0.685150 0.806180 0.502533 0.110993
C36   C     C_3   0.151542 0.779013 0.438183 0.544010
C37   C     C_3   0.155971 0.225793 0.600075 0.544676
C38   C     C_3   0.651542 0.279013 0.438182 0.544010
C39   C     C_3   0.655970 0.725793 0.600074 0.544676
C40   C     C_3   0.951271 0.575985 0.083278 -0.103700
C41   C     C_3   0.951361 0.576059 0.915892 -0.103555
C42   C     C_3   0.961543 0.417910 0.084048 -0.106311
C43   C     C_3   0.961397 0.417993 0.916596 -0.105934
C44   C     C_3   0.451281 0.075992 0.083278 -0.103702
C45   C     C_3   0.091464 0.506002 0.083991 -0.107961
C46   C     C_3   0.451370 0.076065 0.915892 -0.103556
C47   C     C_3   0.461533 0.917915 0.084048 -0.106310
C48   C     C_3   0.461387 0.917999 0.916596 -0.105932
C49   C     C_3   0.068960 0.824365 0.647191 -0.177995
C50   C     C_3   0.078826 0.825520 0.226597 -0.099416
C51   C     C_3   0.178417 0.215794 0.856398 -0.177052
C52   C     C_3   0.033313 0.133377 0.637732 -0.119117
C53   C     C_3   0.568960 0.324366 0.647190 -0.177995
C54   C     C_3   0.578827 0.325520 0.226597 -0.099417
C55   C     C_3   0.678415 0.715793 0.856397 -0.177053
C56   C     C_3   0.091478 0.505786 0.916218 -0.108809
C57   C     C_3   0.533313 0.633376 0.637729 -0.119116
C58   C     C_3   0.591465 0.005990 0.083991 -0.107962
C59   C     C_3   0.591479 0.005775 0.916218 -0.108810
C60   C     C_R   0.880904 0.379000 0.500213 0.563374
Cu1   Cu    Cu3+1 0.000100 0.500000 0.642410 0.893235
Cu2   Cu    Cu3+1 0.000100 0.500000 0.357590 0.888877
Cu3   Cu    Cu3+1 0.500100 0.000000 0.642410 0.893235
Cu4   Cu    Cu3+1 0.500100 0.000000 0.357590 0.888877
H1    H     H_    0.779428 0.324879 0.727603 0.111518
H2    H     H_    0.902159 0.206108 0.428037 0.151532
H3    H     H_    0.901249 0.796788 0.507485 0.172757
H4    H     H_    0.833126 0.734527 0.281661 0.121676
H5    H     H_    0.362546 0.744326 0.692358 0.131565
H6    H     H_    0.402159 0.706108 0.428036 0.151532
H7    H     H_    0.401249 0.296788 0.507484 0.172757
H8    H     H_    0.333126 0.234527 0.281660 0.121676
H9    H     H_    0.262134 0.634975 0.683151 0.103982
H10   H     H_    0.297591 0.597325 0.446657 0.081266
H11   H     H_    0.294337 0.400775 0.491826 0.090548
H12   H     H_    0.842316 0.258720 0.287480 0.128831
H13   H     H_    0.220117 0.330207 0.277293 0.107601
H14   H     H_    0.762134 0.134975 0.683151 0.103982
H15   H     H_    0.797591 0.097325 0.446658 0.081266
H16   H     H_    0.794337 0.900775 0.491828 0.090548
H17   H     H_    0.720118 0.830208 0.277294 0.107599
H18   H     H_    0.181572 0.710259 0.736502 0.115885
H19   H     H_    0.245560 0.643327 0.294213 0.155254
H20   H     H_    0.262444 0.373248 0.669536 0.141916
H21   H     H_    0.142385 0.242456 0.302917 0.147449
H22   H     H_    0.681571 0.210259 0.736502 0.115887
H23   H     H_    0.862981 0.761081 0.678873 0.114842
H24   H     H_    0.745560 0.143327 0.294214 0.155255
H25   H     H_    0.762443 0.873248 0.669538 0.141915
H26   H     H_    0.642385 0.742457 0.302916 0.147449
H27   H     H_    0.705183 0.407640 0.520202 0.073233
H28   H     H_    0.735309 0.383481 0.344337 0.111312
H29   H     H_    0.750593 0.620514 0.683987 0.081293
H30   H     H_    0.700667 0.594777 0.522758 0.097624
H31   H     H_    0.205183 0.907640 0.520204 0.073233
H32   H     H_    0.235308 0.883481 0.344338 0.111311
H33   H     H_    0.250594 0.120514 0.683988 0.081294
H34   H     H_    0.755606 0.645058 0.291288 0.114988
H35   H     H_    0.200666 0.094777 0.522759 0.097624
H36   H     H_    0.979197 0.639459 0.122891 0.125710
H37   H     H_    0.979468 0.639511 0.876001 0.101666
H38   H     H_    0.997408 0.358714 0.124271 0.111695
H39   H     H_    0.996913 0.358701 0.876715 0.149218
H40   H     H_    0.479215 0.139462 0.122891 0.125717
H41   H     H_    0.479486 0.139513 0.876000 0.101666
H42   H     H_    0.497390 0.858715 0.124271 0.111695
H43   H     H_    0.496895 0.858702 0.876715 0.149209
H44   H     H_    0.882225 0.573255 0.120601 0.103855
H45   H     H_    0.279428 0.824879 0.727603 0.111517
H46   H     H_    0.882313 0.573568 0.878273 0.106230
H47   H     H_    0.892723 0.411230 0.121087 0.113336
H48   H     H_    0.892512 0.411674 0.879693 0.104838
H49   H     H_    0.382234 0.073271 0.120600 0.103855
H50   H     H_    0.382322 0.073583 0.878274 0.106231
H51   H     H_    0.392711 0.911244 0.121087 0.113335
H52   H     H_    0.392500 0.911688 0.879693 0.104837
H53   H     H_    0.124058 0.567515 0.121666 0.130845
H54   H     H_    0.124315 0.567070 0.877724 0.106913
H55   H     H_    0.131852 0.449767 0.123366 0.105089
H56   H     H_    0.342316 0.758720 0.287480 0.128832
H57   H     H_    0.131661 0.449302 0.877800 0.135706
H58   H     H_    0.624067 0.067499 0.121667 0.130837
H59   H     H_    0.624323 0.067055 0.877724 0.106912
H60   H     H_    0.631845 0.949750 0.123365 0.105090
H61   H     H_    0.631655 0.949285 0.877801 0.135715
H62   H     H_    0.131455 0.849402 0.690199 0.089444
H63   H     H_    0.046135 0.765764 0.708357 0.131489
H64   H     H_    0.020045 0.877503 0.664930 0.113414
H65   H     H_    0.090836 0.894691 0.262394 0.113236
H66   H     H_    0.009894 0.806300 0.248884 0.149140
H67   H     H_    0.362981 0.261082 0.678872 0.114843
H68   H     H_    0.088134 0.823775 0.109658 0.086248
H69   H     H_    0.250898 0.221766 0.856864 0.101009
H70   H     H_    0.156323 0.145722 0.860542 0.092646
H71   H     H_    0.154899 0.247593 0.955482 0.118941
H72   H     H_    0.006721 0.168053 0.732318 0.146147
H73   H     H_    0.077157 0.078235 0.670507 0.087457
H74   H     H_    0.977097 0.102891 0.581357 0.107179
H75   H     H_    0.631455 0.349402 0.690198 0.089445
H76   H     H_    0.546134 0.265766 0.708357 0.131488
H77   H     H_    0.520045 0.377504 0.664929 0.113414
H78   H     H_    0.255605 0.145058 0.291288 0.114988
H79   H     H_    0.590837 0.394691 0.262392 0.113236
H80   H     H_    0.509894 0.306300 0.248883 0.149139
H81   H     H_    0.588135 0.323774 0.109657 0.086248
H82   H     H_    0.750897 0.721766 0.856864 0.101009
H83   H     H_    0.656322 0.645721 0.860541 0.092646
H84   H     H_    0.654897 0.747592 0.955481 0.118941
H85   H     H_    0.506720 0.668052 0.732315 0.146148
H86   H     H_    0.577157 0.578235 0.670505 0.087456
H87   H     H_    0.477098 0.602890 0.581352 0.107179
H88   H     H_    0.862546 0.244326 0.692359 0.131565
N1    N     N_3   0.001260 0.500000 0.143650 -0.222489
N2    N     N_3   0.001260 0.500000 0.856350 -0.223251
N3    N     N_3   0.501260 1.000000 0.143650 -0.222489
N4    N     N_3   0.501260 0.000000 0.856350 -0.223251
O1    O     O_R   0.091250 0.408820 0.620260 -0.464100
O2    O     O_R   0.908940 0.408800 0.379740 -0.520506
O3    O     O_R   0.908940 0.591200 0.620260 -0.520168
O4    O     O_R   0.908940 0.591200 0.379740 -0.510306
O5    O     O_R   0.408940 0.908800 0.620260 -0.511350
O6    O     O_R   0.408940 0.908800 0.379740 -0.520506
O7    O     O_R   0.408940 0.091200 0.620260 -0.520168
O8    O     O_R   0.408940 0.091200 0.379740 -0.510306
O9    O     O_3   0.069358 0.804094 0.500735 -0.583526
O10   O     O_3   0.136861 0.763717 0.289870 -0.574137
O11   O     O_3   0.141936 0.261950 0.739978 -0.560271
O12   O     O_R   0.091250 0.408820 0.379740 -0.535769
O13   O     O_3   0.074941 0.193890 0.544530 -0.586108
O14   O     O_3   0.569358 0.304094 0.500734 -0.583526
O15   O     O_3   0.636861 0.263717 0.289870 -0.574136
O16   O     O_3   0.641934 0.761949 0.739977 -0.560270
O17   O     O_3   0.574941 0.693890 0.544527 -0.586108
O18   O     O_R   0.091250 0.591180 0.620260 -0.532478
O19   O     O_R   0.091250 0.591180 0.379740 -0.479611
O20   O     O_R   0.591250 0.908820 0.620260 -0.464101
O21   O     O_R   0.591250 0.908820 0.379740 -0.535769
O22   O     O_R   0.591250 0.091180 0.620260 -0.532477
O23   O     O_R   0.591250 0.091180 0.379740 -0.479610
O24   O     O_R   0.908940 0.408800 0.620260 -0.511350

loop_
_geom_bond_atom_site_label_1
_geom_bond_atom_site_label_2
_ccdc_geom_bond_type
Cu2   O12   S    
C53   H76   S    
C54   H80   S    
C14   C31   S    
Cu4   O8    S    
Cu1   N2    S    
C44   H40   S    
Cu3   O20   S    
C37   O11   S    
C47   H51   S    
C49   H62   S    
Cu4   N3    S    
C18   H22   S    
Cu3   O22   S    
C17   H21   S    
C9    H5    S    
Cu3   N4    S    
Cu1   O1    S    
C27   C60   S    
Cu1   O3    S    
C37   O13   S    
C51   H70   S    
C11   H7    S    
C48   H43   S    
C16   H11   S    
C46   H41   S    
C16   H20   S    
C24   C39   S    
C25   C29   S    
C11   C16   S    
C3    C29   S    
C8    H34   S    
C16   C32   S    
C50   H66   S    
C3    O6    A    
C5    C27   S    
C20   C35   S    
C51   H71   S    
C7    H23   S    
C47   C48   S    
C11   C30   S    
C2    O3    A    
C57   H85   S    
C50   O10   S    
C52   H74   S    
C22   H27   S    
C4    O8    A    
C43   N2    S    
C52   H73   S    
Cu3   O7    S    
C39   O17   S    
C26   H35   S    
C48   H52   S    
C45   H55   S    
C54   H79   S    
C48   N4    S    
C9    H45   S    
C56   N2    S    
C34   O23   A    
C42   H38   S    
C36   O10   S    
C44   C46   S    
C38   O14   S    
C21   H26   S    
C59   H59   S    
C49   H63   S    
C58   H58   S    
C20   H16   S    
C14   H9    S    
C13   C30   S    
C38   O15   S    
C42   N1    S    
C33   C34   S    
C45   C56   S    
Cu4   O6    S    
C19   H24   S    
C19   C33   S    
Cu4   O23   S    
C46   H50   S    
C55   H82   S    
C15   H19   S    
C5    C18   S    
C26   H33   S    
C1    O12   A    
C58   C59   S    
C32   C37   S    
C1    C32   S    
C7    C28   S    
C35   C39   S    
C9    C14   S    
C49   O9    S    
C39   O16   S    
C6    C19   S    
C50   H65   S    
C24   H30   S    
C51   O11   S    
C55   H83   S    
C6    C27   S    
C18   H14   S    
C47   H42   S    
C57   H86   S    
C17   H13   S    
C8    C21   S    
C4    O7    A    
C13   H78   S    
C15   C31   S    
C5    H88   S    
C50   H68   S    
C53   O14   S    
Cu1   O24   S    
C54   H81   S    
C57   O17   S    
C10   H6    S    
C5    H1    S    
C40   C41   S    
C21   H17   S    
C44   H49   S    
C25   H31   S    
C23   C35   S    
C41   H46   S    
C12   O19   A    
C12   C31   S    
C52   H72   S    
Cu2   O4    S    
C40   N1    S    
C34   O22   A    
C60   O24   A    
C42   C43   S    
C14   H18   S    
C55   O16   S    
C12   O18   A    
C41   N2    S    
C45   H53   S    
Cu3   O5    S    
C49   H64   S    
C10   C15   S    
C53   H75   S    
C44   N3    S    
C56   H54   S    
C54   O15   S    
C42   H47   S    
Cu1   O18   S    
C24   C28   S    
C60   O2    A    
C11   H67   S    
C52   O13   S    
C40   H36   S    
C59   N4    S    
C26   C37   S    
C6    H12   S    
C23   O20   A    
C13   H8    S    
C9    C29   S    
C59   H61   S    
C46   N4    S    
C20   H25   S    
C58   H60   S    
C33   C38   S    
Cu2   N1    S    
C13   C17   S    
C22   C27   S    
C56   H57   S    
C8    H4    S    
C1    O1    A    
C21   C35   S    
C24   H29   S    
Cu4   O21   S    
C51   H69   S    
C10   C29   S    
C55   H84   S    
C47   N3    S    
C8    C28   S    
Cu2   O19   S    
C57   H87   S    
C36   O9    S    
C41   H37   S    
Cu2   O2    S    
C53   H77   S    
Cu1   Cu2   S    
C18   C33   S    
C43   H39   S    
C23   O21   A    
C10   H56   S    
C58   N3    S    
C3    O5    A    
C25   C36   S    
C7    H3    S    
Cu3   Cu4   S    
C40   H44   S    
C6    H2    S    
C15   H10   S    
C45   N1    S    
C25   H32   S    
C2    O4    A    
C7    C20   S    
C43   H48   S    
C17   C32   S    
C22   H28   S    
C31   C36   S    
C2    C28   S    
C4    C30   S    
C19   H15   S    
C26   C30   S    
C22   C38   S    
