data_mof_unit_60106.cif
_audit_creation_date              2012-12-10T17:59:48-0500
_audit_creation_method            fapswitch 2.2
_symmetry_space_group_name_H-M    P1
_symmetry_Int_Tables_number       1
_space_group_crystal_system       triclinic
_cell_length_a                    30.87456
_cell_length_b                    32.026489
_cell_length_c                    21.735906
_cell_angle_alpha                 90.180835
_cell_angle_beta                  135.232171
_cell_angle_gamma                 89.814173
_cell_volume                      15135.7267158

loop_
_atom_site_label
_atom_site_type_symbol
_atom_type_description
_atom_site_fract_x
_atom_site_fract_y
_atom_site_fract_z
_atom_type_partial_charge
C1    C     C_R   0.499773 0.999825 0.381342 0.820575
C2    C     C_3   0.999757 0.791767 0.499435 -0.081913
C3    C     C_3   0.785007 0.939757 0.202219 -0.479844
C4    C     C_R   0.718189 0.474986 0.678913 0.115636
C5    C     C_R   0.218347 0.021729 0.674896 0.121644
C6    C     C_R   0.685476 0.499614 0.687528 -0.124390
C7    C     C_R   0.185646 0.000640 0.687428 -0.129611
C8    C     C_R   0.717907 0.520132 0.767489 -0.277974
C9    C     C_R   0.218245 0.983432 0.770125 -0.279062
C10   C     C_3   0.504503 0.764263 0.446657 -0.305151
C11   C     C_3   0.540576 0.236152 0.494026 -0.274190
C12   C     C_3   0.039828 0.264155 0.495496 -0.271029
C13   C     C_3   0.547260 0.763837 0.581997 0.251860
C14   C     C_3   0.036458 0.735646 0.489345 -0.266374
C15   C     C_R   0.282928 0.983314 0.835609 0.236309
C16   C     C_R   0.782643 0.520112 0.833207 0.237520
C17   C     C_R   0.314793 0.000966 0.817599 -0.113613
C18   C     C_R   0.814631 0.499076 0.817994 -0.116896
C19   C     C_R   0.281807 0.022314 0.739319 0.076155
C20   C     C_R   0.781577 0.474271 0.743493 0.083038
C21   C     C_3   0.285582 0.018488 0.674764 -0.512351
C22   C     C_3   0.785276 0.471806 0.678736 -0.514276
C23   C     C_3   0.715415 0.472913 0.607579 -0.431454
C24   C     C_3   0.516575 0.235647 0.568641 0.253721
C25   C     C_3   0.215729 0.017705 0.603835 -0.423140
C26   C     C_1   0.500052 0.875202 0.500983 -0.162424
C27   C     C_1   0.499919 0.124821 0.497582 -0.146152
C28   C     C_1   0.000237 0.375260 0.500061 -0.157746
C29   C     C_1   0.999905 0.624830 0.499571 -0.174922
C30   C     C_1   0.499704 0.624851 0.500153 -0.171076
C31   C     C_1   0.499787 0.375146 0.499404 -0.167783
C32   C     C_1   0.999625 0.124919 0.499749 -0.168323
C33   C     C_1   0.999844 0.875149 0.499587 -0.169772
C34   C     C_3   0.447096 0.764038 0.472755 0.238076
C35   C     C_3   0.018250 0.264076 0.573087 0.228450
C36   C     C_3   0.443318 0.236240 0.425935 0.206671
C37   C     C_3   0.943409 0.264348 0.430495 0.235265
C38   C     C_3   0.942238 0.736181 0.432877 0.209104
C39   C     C_3   0.499660 0.791865 0.501025 -0.060339
C40   C     C_3   0.499986 0.208193 0.495687 -0.063278
C41   C     C_3   0.000474 0.291974 0.499967 -0.061879
C42   C     C_3   0.999851 0.708199 0.498986 -0.060485
C43   C     C_3   0.356395 0.059104 0.159136 -0.701033
C44   C     C_3   0.510343 0.146656 0.332550 -0.728334
C45   C     C_3   0.070651 0.399839 0.380128 -0.712799
C46   C     C_3   0.021511 0.736175 0.574775 0.248165
C47   C     C_3   0.887645 0.403666 0.252414 -0.654141
C48   C     C_3   0.353157 0.002266 0.564557 -0.676149
C49   C     C_3   0.390559 0.868403 0.572736 -0.702057
C50   C     C_3   0.807387 0.453857 0.504298 -0.693701
C51   C     C_3   0.977186 0.381058 0.654677 -0.704975
C52   C     C_3   0.367758 0.751158 0.264088 -0.699809
C53   C     C_3   0.462079 0.252805 0.294383 -0.702427
C54   C     C_3   0.958039 0.251537 0.294969 -0.703072
C55   C     C_3   0.942806 0.749050 0.283602 -0.660216
C56   C     C_3   0.336384 0.993844 0.985199 -0.696292
C57   C     C_3   0.551582 0.736280 0.528479 0.225007
C58   C     C_3   0.837463 0.515274 0.984454 -0.680060
C59   C     C_3   0.647140 0.750602 0.569655 -0.699401
C60   C     C_3   0.665114 0.248888 0.692287 -0.700330
C61   C     C_3   0.166235 0.249549 0.693100 -0.686077
C62   C     C_3   0.167068 0.749001 0.681452 -0.702970
C63   C     C_3   0.639436 0.749107 0.736211 -0.655413
C64   C     C_3   0.550810 0.249329 0.708749 -0.655701
C65   C     C_3   0.053123 0.250735 0.713973 -0.694705
C66   C     C_3   0.066114 0.750825 0.721093 -0.658434
C67   C     C_3   0.483492 0.751280 0.652757 -0.667762
C68   C     C_3   0.555941 0.263516 0.566547 0.228434
C69   C     C_3   0.383130 0.247493 0.500820 -0.651432
C70   C     C_3   0.886367 0.252551 0.509634 -0.659692
C71   C     C_3   0.897355 0.749849 0.530694 -0.683578
C72   C     C_3   0.344445 0.750391 0.411617 -0.688928
C73   C     C_3   0.335766 0.249272 0.287951 -0.716659
C74   C     C_3   0.835907 0.251140 0.293704 -0.678539
C75   C     C_3   0.831799 0.748788 0.304704 -0.714742
C76   C     C_3   0.056318 0.236238 0.568051 0.228793
C77   C     C_3   0.056903 0.763592 0.564662 0.228359
C78   C     C_1   0.499899 0.837602 0.501228 -0.020203
C79   C     C_R   0.999679 0.498652 0.381229 0.804454
C80   C     C_1   0.499939 0.162425 0.496305 -0.021424
C81   C     C_1   0.000413 0.337682 0.500103 -0.022935
C82   C     C_1   0.999866 0.662441 0.499267 -0.016181
C83   C     C_1   0.499583 0.662460 0.500487 -0.032039
C84   C     C_1   0.499686 0.337537 0.498793 -0.020276
C85   C     C_1   0.999468 0.162554 0.499412 -0.021288
C86   C     C_1   0.999804 0.837541 0.499479 -0.022184
C87   C     C_R   0.482143 0.033525 0.264223 0.054322
C88   C     C_R   0.980981 0.464962 0.261783 0.050845
C89   C     C_R   0.499022 0.998760 0.314743 -0.100118
C90   C     C_3   0.494738 0.736461 0.553883 0.202931
C91   C     C_R   0.998678 0.499475 0.314298 -0.090168
C92   C     C_R   0.515667 0.962492 0.298903 -0.216333
C93   C     C_R   0.016792 0.535774 0.300993 -0.201846
C94   C     C_R   0.515636 0.962637 0.234050 -0.197904
C95   C     C_R   0.017056 0.536447 0.236501 -0.205480
C96   C     C_R   0.500048 0.919949 0.500348 0.823093
C97   C     C_R   0.499979 0.080061 0.499300 0.834683
C98   C     C_R   0.000070 0.419967 0.500017 0.832797
C99   C     C_R   0.999982 0.580061 0.499905 0.813969
C100  C     C_R   0.500525 0.999445 0.186140 -0.080540
C101  C     C_3   0.459887 0.263172 0.499048 0.196196
C102  C     C_R   0.000973 0.500348 0.186509 -0.079586
C103  C     C_R   0.484486 0.034395 0.204447 0.021758
C104  C     C_R   0.984172 0.465233 0.202725 0.019016
C105  C     C_3   0.469569 0.079940 0.185629 -0.533734
C106  C     C_3   0.966357 0.420729 0.176661 -0.510824
C107  C     C_3   0.467144 0.078945 0.254548 0.483147
C108  C     C_3   0.961955 0.419582 0.243250 0.476010
C109  C     C_R   0.479290 0.967016 0.697028 0.040472
C110  C     C_R   0.980039 0.465995 0.697313 0.043263
C111  C     C_R   0.501971 0.000636 0.686828 -0.094839
C112  C     C_3   0.961073 0.236899 0.503607 0.197003
C113  C     C_R   0.001884 0.500333 0.686922 -0.109279
C114  C     C_R   0.532155 0.032611 0.749783 -0.214415
C115  C     C_R   0.032540 0.532145 0.750147 -0.205209
C116  C     C_R   0.531853 0.032578 0.814153 -0.203577
C117  C     C_R   0.032944 0.532021 0.815057 -0.211040
C118  C     C_R   0.504201 0.999380 0.818568 -0.067329
C119  C     C_R   0.004772 0.499176 0.818944 -0.073401
C120  C     C_R   0.483495 0.965014 0.764027 0.034435
C121  C     C_R   0.982792 0.464882 0.763549 0.048583
C122  C     C_R   0.500297 0.000559 0.618891 0.803899
C123  C     C_3   0.963893 0.763666 0.508810 0.177111
C124  C     C_R   0.000291 0.500459 0.618946 0.808139
C125  C     C_3   0.429555 0.936136 0.715050 -0.541093
C126  C     C_3   0.923297 0.441868 0.709243 -0.567419
C127  C     C_3   0.423716 0.939378 0.638614 0.495810
C128  C     C_3   0.918939 0.443865 0.634590 0.502537
C129  C     C_R   0.381356 0.499911 0.381209 0.796738
C130  C     C_R   0.881367 0.000067 0.381222 0.796720
C131  C     C_R   0.499867 0.580087 0.499969 0.817988
C132  C     C_R   0.499915 0.419913 0.499820 0.818288
C133  C     C_R   0.999855 0.080110 0.499920 0.819593
C134  C     C_3   0.499527 0.708234 0.500916 -0.086229
C135  C     C_R   0.999905 0.919913 0.499819 0.816074
C136  C     C_R   0.618760 0.500439 0.619049 0.814457
C137  C     C_R   0.118821 0.999638 0.619070 0.814051
C138  C     C_R   0.618849 0.000011 0.118982 0.803715
C139  C     C_R   0.118839 0.499940 0.118940 0.803224
C140  C     C_R   0.500604 0.999995 0.119610 0.818453
C141  C     C_R   0.000868 0.500074 0.119840 0.813272
C142  C     C_R   0.381180 0.000096 0.881081 0.843668
C143  C     C_R   0.881114 0.499932 0.881056 0.839577
C144  C     C_R   0.500369 0.999895 0.881293 0.800880
C145  C     C_3   0.499618 0.291762 0.497812 -0.082471
C146  C     C_R   0.000719 0.499880 0.881586 0.803382
C147  C     C_R   0.280711 0.525095 0.243092 0.125077
C148  C     C_R   0.780878 0.974211 0.244003 0.124380
C149  C     C_3   0.452293 0.736457 0.420132 0.222529
C150  C     C_3   0.483353 0.264241 0.425167 0.224503
C151  C     C_3   0.982194 0.236533 0.426731 0.221878
C152  C     C_3   0.978518 0.763616 0.424186 0.239401
C153  C     C_R   0.315150 0.498936 0.315044 -0.086068
C154  C     C_R   0.815175 0.000993 0.315101 -0.084669
C155  C     C_R   0.282966 0.471819 0.322211 -0.211361
C156  C     C_3   0.999467 0.208369 0.499194 -0.084106
C157  C     C_R   0.782876 0.028673 0.321534 -0.210271
C158  C     C_R   0.718027 0.028855 0.256453 -0.211577
C159  C     C_R   0.218115 0.471596 0.257093 -0.212066
C160  C     C_R   0.685108 0.000331 0.186200 -0.090913
C161  C     C_R   0.185078 0.499534 0.186041 -0.089102
C162  C     C_R   0.718884 0.973261 0.183576 0.125134
C163  C     C_R   0.218713 0.526023 0.182599 0.126714
C164  C     C_3   0.714118 0.939003 0.132573 -0.472437
C165  C     C_3   0.213740 0.559592 0.130624 -0.478627
C166  C     C_3   0.284634 0.558871 0.200320 -0.474857
Cu1   Cu    Cu3+1 0.438230 0.000000 0.438170 0.976892
Cu2   Cu    Cu3+1 0.500030 0.041430 0.000020 0.936490
Cu3   Cu    Cu3+1 0.000030 0.458570 0.000020 0.937764
Cu4   Cu    Cu3+1 0.000030 0.541430 0.000020 0.950533
Cu5   Cu    Cu3+1 0.938230 0.500000 0.438170 0.961881
Cu6   Cu    Cu3+1 0.561800 0.000000 0.561830 0.954344
Cu7   Cu    Cu3+1 0.061800 0.500000 0.561830 0.946699
Cu8   Cu    Cu3+1 0.499880 0.500000 0.438060 0.943210
Cu9   Cu    Cu3+1 0.999880 0.000000 0.438060 0.945701
Cu10  Cu    Cu3+1 0.500000 0.500000 0.561790 0.952515
Cu11  Cu    Cu3+1 0.000000 0.000000 0.561790 0.950916
Cu12  Cu    Cu3+1 0.500030 0.958570 0.000020 0.948409
H1    H     H_    0.553005 0.058442 0.746475 0.145613
H2    H     H_    0.807539 0.050314 0.375763 0.152566
H3    H     H_    0.708136 0.263719 0.752356 0.227759
H4    H     H_    0.673261 0.236237 0.653554 0.220618
H5    H     H_    0.653411 0.222960 0.712070 0.236692
H6    H     H_    0.117878 0.198028 0.677462 0.252801
H7    H     H_    0.210796 0.233002 0.743439 0.224263
H8    H     H_    0.160012 0.271114 0.726393 0.222113
H9    H     H_    0.167947 0.267740 0.651466 0.233325
H10   H     H_    0.127328 0.805483 0.617156 0.258861
H11   H     H_    0.211399 0.763889 0.738788 0.227186
H12   H     H_    0.171014 0.736113 0.638084 0.221225
H13   H     H_    0.692242 0.949574 0.067028 0.197187
H14   H     H_    0.158210 0.723231 0.705297 0.236956
H15   H     H_    0.620746 0.804470 0.670945 0.249140
H16   H     H_    0.672205 0.764612 0.801110 0.214898
H17   H     H_    0.666048 0.733535 0.725919 0.244663
H18   H     H_    0.613481 0.725321 0.736393 0.259477
H19   H     H_    0.565116 0.194397 0.673695 0.245760
H20   H     H_    0.556611 0.233416 0.759522 0.214393
H21   H     H_    0.514136 0.273216 0.676824 0.259851
H22   H     H_    0.594761 0.264839 0.740966 0.245932
H23   H     H_    0.068991 0.304832 0.679498 0.252087
H24   H     H_    0.694916 0.909926 0.133272 0.204661
H25   H     H_    0.056012 0.266815 0.762101 0.224461
H26   H     H_    0.098378 0.236225 0.749638 0.220515
H27   H     H_    0.017502 0.226076 0.681289 0.263919
H28   H     H_    0.074747 0.695208 0.680651 0.246647
H29   H     H_    0.075115 0.735506 0.775016 0.213675
H30   H     H_    0.030856 0.775441 0.692752 0.260858
H31   H     H_    0.109420 0.765368 0.748474 0.245667
H32   H     H_    0.461154 0.695390 0.586369 0.251703
H33   H     H_    0.490607 0.736231 0.705306 0.218642
H34   H     H_    0.436484 0.764739 0.604246 0.236271
H35   H     H_    0.194355 0.588939 0.130480 0.205737
H36   H     H_    0.517844 0.776645 0.682429 0.257914
H37   H     H_    0.391483 0.303620 0.461783 0.245785
H38   H     H_    0.358068 0.262495 0.514244 0.213554
H39   H     H_    0.414145 0.223309 0.551386 0.258009
H40   H     H_    0.349107 0.232473 0.435526 0.245480
H41   H     H_    0.892831 0.196758 0.466956 0.248086
H42   H     H_    0.861743 0.237403 0.523475 0.214015
H43   H     H_    0.852073 0.268282 0.445226 0.245293
H44   H     H_    0.918186 0.276182 0.561219 0.255498
H45   H     H_    0.897056 0.803794 0.476965 0.251257
H46   H     H_    0.191926 0.548368 0.065384 0.194009
H47   H     H_    0.875609 0.766150 0.548326 0.222335
H48   H     H_    0.931704 0.727499 0.583656 0.262826
H49   H     H_    0.861247 0.732428 0.469012 0.220179
H50   H     H_    0.373901 0.806157 0.402430 0.254753
H51   H     H_    0.308021 0.765860 0.402586 0.219968
H52   H     H_    0.364192 0.724631 0.459203 0.234352
H53   H     H_    0.323128 0.737348 0.347864 0.251382
H54   H     H_    0.384891 0.194448 0.322161 0.254707
H55   H     H_    0.290203 0.233863 0.245240 0.231390
H56   H     H_    0.341694 0.260820 0.246263 0.224780
H57   H     H_    0.306784 0.988557 0.680986 0.187763
H58   H     H_    0.336306 0.276026 0.320975 0.233604
H59   H     H_    0.883643 0.306590 0.328351 0.249682
H60   H     H_    0.790418 0.266903 0.247181 0.220290
H61   H     H_    0.834152 0.225730 0.326386 0.231634
H62   H     H_    0.844656 0.237605 0.256301 0.251057
H63   H     H_    0.870887 0.695237 0.381516 0.256573
H64   H     H_    0.788587 0.731826 0.250466 0.228617
H65   H     H_    0.841274 0.770335 0.275725 0.235893
H66   H     H_    0.824793 0.767034 0.340471 0.224414
H67   H     H_    0.424705 0.085749 0.117500 0.188400
H68   H     H_    0.305159 0.046943 0.672925 0.204111
H69   H     H_    0.508602 0.098222 0.206039 0.190509
H70   H     H_    0.004213 0.401709 0.194856 0.194528
H71   H     H_    0.921626 0.417620 0.107165 0.181562
H72   H     H_    0.804363 0.441403 0.682176 0.200551
H73   H     H_    0.806765 0.499929 0.679634 0.192859
H74   H     H_    0.528539 0.934350 0.336254 0.139754
H75   H     H_    0.053361 0.557945 0.746706 0.145886
H76   H     H_    0.030430 0.563465 0.340023 0.142219
H77   H     H_    0.528432 0.934335 0.222727 0.162644
H78   H     H_    0.030703 0.564789 0.226940 0.162285
H79   H     H_    0.508498 0.775765 0.402742 0.160338
H80   H     H_    0.573619 0.224908 0.492072 0.155479
H81   H     H_    0.071928 0.275539 0.491958 0.158179
H82   H     H_    0.066161 0.724028 0.481392 0.157270
H83   H     H_    0.392956 0.118585 0.199593 0.249756
H84   H     H_    0.314826 0.070397 0.141871 0.223762
H85   H     H_    0.367802 0.027745 0.188915 0.251538
H86   H     H_    0.552155 0.058627 0.859140 0.158697
H87   H     H_    0.345433 0.056833 0.098354 0.213297
H88   H     H_    0.560393 0.092753 0.364929 0.242931
H89   H     H_    0.553236 0.160363 0.394825 0.225795
H90   H     H_    0.472372 0.154869 0.326200 0.242555
H91   H     H_    0.501645 0.160330 0.277682 0.221137
H92   H     H_    0.995937 0.359611 0.295612 0.256273
H93   H     H_    0.096337 0.374397 0.429310 0.223725
H94   H     H_    0.080075 0.429207 0.415050 0.247565
H95   H     H_    0.087606 0.402429 0.349236 0.222781
H96   H     H_    0.867009 0.433416 0.149113 0.240955
H97   H     H_    0.053832 0.557891 0.860561 0.155425
H98   H     H_    0.898206 0.431273 0.291619 0.258205
H99   H     H_    0.915401 0.376511 0.295726 0.232865
H100  H     H_    0.838421 0.395669 0.209334 0.213824
H101  H     H_    0.328722 0.940799 0.526987 0.249702
H102  H     H_    0.307644 0.011443 0.499815 0.217958
H103  H     H_    0.387328 0.024321 0.580133 0.246908
H104  H     H_    0.351205 0.005485 0.613331 0.209059
H105  H     H_    0.480750 0.888799 0.671380 0.237695
H106  H     H_    0.409037 0.839681 0.569385 0.241210
H107  H     H_    0.349980 0.878313 0.504576 0.238382
H108  H     H_    0.390982 0.949832 0.702903 0.177760
H109  H     H_    0.376638 0.860934 0.606575 0.216620
H110  H     H_    0.871545 0.501092 0.580586 0.243001
H111  H     H_    0.773828 0.477793 0.454977 0.223759
H112  H     H_    0.796265 0.445116 0.541227 0.217099
H113  H     H_    0.802467 0.426277 0.468713 0.240719
H114  H     H_    0.884434 0.383575 0.583819 0.248802
H115  H     H_    0.968686 0.351014 0.621996 0.243279
H116  H     H_    0.998719 0.374455 0.721667 0.223215
H117  H     H_    0.008953 0.399692 0.657750 0.228730
H118  H     H_    0.693862 0.050628 0.261719 0.154051
H119  H     H_    0.444060 0.904757 0.745950 0.189447
H120  H     H_    0.194038 0.450284 0.262969 0.153191
H121  H     H_    0.306128 0.587690 0.240782 0.195968
H122  H     H_    0.303765 0.547532 0.175172 0.206759
H123  H     H_    0.804057 0.950458 0.176737 0.208222
H124  H     H_    0.806686 0.911242 0.243520 0.191371
H125  H     H_    0.693160 0.537245 0.777815 0.160265
H126  H     H_    0.193697 0.968856 0.782983 0.163329
H127  H     H_    0.413006 0.694490 0.318929 0.255761
H128  H     H_    0.326324 0.736466 0.201749 0.225487
H129  H     H_    0.396999 0.763546 0.255925 0.220261
H130  H     H_    0.888092 0.460680 0.698340 0.176583
H131  H     H_    0.352553 0.777288 0.278765 0.238559
H132  H     H_    0.429493 0.302428 0.314946 0.252779
H133  H     H_    0.449199 0.269772 0.238830 0.225354
H134  H     H_    0.426739 0.228668 0.268078 0.221128
H135  H     H_    0.507391 0.237723 0.332276 0.236829
H136  H     H_    0.987599 0.194615 0.359230 0.261861
H137  H     H_    0.937116 0.237082 0.232391 0.228848
H138  H     H_    0.004307 0.263582 0.329318 0.218375
H139  H     H_    0.928362 0.277913 0.279906 0.238195
H140  H     H_    0.924442 0.803213 0.315778 0.245131
H141  H     H_    0.930076 0.409866 0.734547 0.195622
H142  H     H_    0.930542 0.764947 0.227604 0.217456
H143  H     H_    0.903344 0.729526 0.258522 0.246403
H144  H     H_    0.983363 0.728782 0.315727 0.229492
H145  H     H_    0.292529 0.939569 0.914238 0.250663
H146  H     H_    0.296403 0.008889 0.967889 0.218067
H147  H     H_    0.365754 0.018274 0.993761 0.228536
H148  H     H_    0.363984 0.977131 0.048209 0.233910
H149  H     H_    0.791716 0.567524 0.906430 0.250013
H150  H     H_    0.798267 0.501431 0.970538 0.218066
H151  H     H_    0.865677 0.534027 0.045357 0.232071
H152  H     H_    0.307720 0.450646 0.377067 0.153154
H153  H     H_    0.866657 0.489797 0.995062 0.222182
H154  H     H_    0.694511 0.443309 0.569853 0.194246
H155  H     H_    0.696344 0.501836 0.567502 0.206422
H156  H     H_    0.196422 0.987281 0.568953 0.203144
H157  H     H_    0.195044 0.045694 0.561000 0.196166
H158  H     H_    0.600142 0.694334 0.522801 0.256933
H159  H     H_    0.690963 0.735518 0.599783 0.227002
H160  H     H_    0.658061 0.776138 0.613454 0.237335
H161  H     H_    0.624608 0.763828 0.505455 0.219591
H162  H     H_    0.627717 0.305552 0.627744 0.259348
N1    N     N_2   0.406638 0.088099 0.220047 -0.395555
N2    N     N_2   0.465991 0.281954 0.348991 -0.404573
N3    N     N_2   0.963011 0.220590 0.348038 -0.416022
N4    N     N_2   0.956985 0.779974 0.344325 -0.414234
N5    N     N_2   0.315366 0.964499 0.917900 -0.417015
N6    N     N_2   0.814976 0.541844 0.912958 -0.415216
N7    N     N_2   0.607667 0.719928 0.558251 -0.416982
N8    N     N_2   0.616423 0.279646 0.641987 -0.416891
N9    N     N_2   0.116920 0.219380 0.641147 -0.410133
N10   N     N_2   0.118462 0.779784 0.635220 -0.416945
N11   N     N_2   0.598257 0.780013 0.669138 -0.429318
N12   N     N_2   0.516864 0.101784 0.334713 -0.419992
N13   N     N_2   0.534440 0.218867 0.645847 -0.431402
N14   N     N_2   0.037611 0.280878 0.651450 -0.436267
N15   N     N_2   0.044869 0.719951 0.655922 -0.432773
N16   N     N_2   0.490606 0.720391 0.611799 -0.423901
N17   N     N_2   0.417836 0.278805 0.503011 -0.426280
N18   N     N_2   0.919855 0.221230 0.508929 -0.426705
N19   N     N_2   0.926270 0.780262 0.520253 -0.419820
N20   N     N_2   0.391091 0.780675 0.442976 -0.430048
N21   N     N_2   0.383287 0.219335 0.350691 -0.416651
N22   N     N_2   0.882904 0.281252 0.356704 -0.422730
N23   N     N_2   0.005440 0.390433 0.315305 -0.420563
N24   N     N_2   0.881303 0.719017 0.361953 -0.414556
N25   N     N_2   0.898637 0.412833 0.199315 -0.441328
N26   N     N_2   0.366835 0.959526 0.560140 -0.382225
N27   N     N_2   0.437265 0.900586 0.619432 -0.421653
N28   N     N_2   0.869088 0.470626 0.562604 -0.389926
N29   N     N_2   0.919364 0.402981 0.604635 -0.399901
N30   N     N_2   0.401321 0.720347 0.333000 -0.418714
O1    O     O_R   0.447840 0.000000 0.357610 -0.585942
O2    O     O_R   0.090140 0.000000 0.642300 -0.587936
O3    O     O_R   0.590180 0.965000 0.090240 -0.588715
O4    O     O_R   0.590180 0.035000 0.090240 -0.590230
O5    O     O_R   0.090180 0.465000 0.090240 -0.589269
O6    O     O_R   0.090180 0.535000 0.090240 -0.589634
O7    O     O_R   0.500040 0.965010 0.090190 -0.585297
O8    O     O_R   0.500040 0.034990 0.090190 -0.589603
O9    O     O_R   0.000040 0.465010 0.090190 -0.590612
O10   O     O_R   0.000040 0.534990 0.090190 -0.583726
O11   O     O_R   0.409890 0.965030 0.909800 -0.568937
O12   O     O_R   0.947840 0.500000 0.357610 -0.598243
O13   O     O_R   0.409890 0.034970 0.909800 -0.594127
O14   O     O_R   0.909890 0.465030 0.909800 -0.595214
O15   O     O_R   0.909890 0.534970 0.909800 -0.562765
O16   O     O_R   0.500040 0.965020 0.909850 -0.585282
O17   O     O_R   0.500040 0.034980 0.909850 -0.592506
O18   O     O_R   0.000040 0.465020 0.909850 -0.580050
O19   O     O_R   0.000040 0.534980 0.909850 -0.595904
O20   O     O_R   0.552190 0.000000 0.462050 -0.585417
O21   O     O_R   0.052190 0.500000 0.462050 -0.588287
O22   O     O_R   0.447840 0.939540 0.447780 -0.573481
O23   O     O_R   0.500000 0.560470 0.552180 -0.580145
O24   O     O_R   0.447840 0.060460 0.447780 -0.575864
O25   O     O_R   0.947840 0.439540 0.447780 -0.583908
O26   O     O_R   0.947840 0.560460 0.447780 -0.579152
O27   O     O_R   0.552190 0.939560 0.552210 -0.587440
O28   O     O_R   0.552190 0.060440 0.552210 -0.586059
O29   O     O_R   0.052190 0.439560 0.552210 -0.584806
O30   O     O_R   0.052190 0.560440 0.552210 -0.584407
O31   O     O_R   0.447840 0.000000 0.537950 -0.563110
O32   O     O_R   0.947840 0.500000 0.537950 -0.558922
O33   O     O_R   0.552190 0.000000 0.642390 -0.589318
O34   O     O_R   0.500000 0.439530 0.552180 -0.579604
O35   O     O_R   0.052190 0.500000 0.642390 -0.589456
O36   O     O_R   0.409740 0.500000 0.357550 -0.585606
O37   O     O_R   0.909740 1.000000 0.357550 -0.584885
O38   O     O_R   0.409840 0.500000 0.462040 -0.586516
O39   O     O_R   0.909840 0.000000 0.462040 -0.586433
O40   O     O_R   0.499890 0.560480 0.447700 -0.585218
O41   O     O_R   0.499890 0.439520 0.447700 -0.580235
O42   O     O_R   0.999890 0.060480 0.447700 -0.580456
O43   O     O_R   0.999890 0.939520 0.447700 -0.582577
O44   O     O_R   1.000000 0.060470 0.552180 -0.581678
O45   O     O_R   1.000000 0.939530 0.552180 -0.579021
O46   O     O_R   0.590030 0.500000 0.537810 -0.589040
O47   O     O_R   0.090030 0.000000 0.537810 -0.588632
O48   O     O_R   0.590140 0.500000 0.642300 -0.586378

loop_
_geom_bond_atom_site_label_1
_geom_bond_atom_site_label_2
_ccdc_geom_bond_type
C157  C158  A    
C131  O23   A    
C72   H53   S    
C64   H20   S    
C76   N9    S    
C15   N5    S    
C144  O16   A    
C73   N21   S    
Cu3   O9    S    
Cu1   O24   S    
C166  H121  S    
C62   H12   S    
C84   C145  S    
C58   N6    S    
C56   N5    S    
C163  C165  S    
C117  C119  A    
C32   C133  S    
C88   C108  S    
C30   C131  S    
H28   N15   S    
C71   N19   S    
C36   N21   S    
C109  C127  S    
Cu11  O45   S    
C59   H159  S    
C70   N18   S    
C67   H33   S    
C159  H120  S    
C44   H89   S    
C164  H13   S    
C38   C123  S    
C95   C102  A    
C98   O25   A    
H59   N22   S    
C119  C121  A    
C8    C16   A    
C38   N24   S    
C71   H47   S    
C161  C163  A    
Cu2   O17   S    
C162  C164  S    
C48   H102  S    
C2    C152  S    
C29   C99   S    
C69   H40   S    
C136  O46   A    
H50   N20   S    
Cu9   Cu11  S    
C56   H147  S    
Cu9   O43   S    
C130  O37   A    
C7    C137  S    
C4    C23   S    
C93   H76   S    
C2    C123  S    
C140  O7    A    
C17   C142  S    
C46   N15   S    
C116  H86   S    
C46   C77   S    
Cu5   Cu7   S    
C33   C135  S    
C11   C150  S    
C115  H75   S    
C92   C94   A    
C96   O22   A    
Cu5   O32   S    
C73   H56   S    
C51   N29   S    
Cu12  O7    S    
C3    C164  S    
C87   C103  A    
C139  O6    A    
H45   N19   S    
C65   N14   S    
C87   C89   A    
H6    N9    S    
C63   N11   S    
C123  N19   S    
Cu6   O28   S    
Cu7   O29   S    
C27   C97   S    
C48   H104  S    
C96   O27   A    
C43   H84   S    
C53   N2    S    
C49   H106  S    
C148  C162  A    
C159  C161  A    
C9    C15   A    
C29   C82   T    
Cu8   O41   S    
C36   C150  S    
C113  C124  S    
Cu4   O19   S    
C90   C134  S    
C116  C118  A    
C58   H153  S    
Cu1   O1    S    
C53   H133  S    
C74   H62   S    
C147  C153  A    
C118  C120  A    
Cu9   O42   S    
C4    C20   A    
C138  C160  S    
C99   O30   A    
C87   C107  S    
C125  C127  S    
C22   C23   S    
C72   N20   S    
C50   H113  S    
C137  O2    A    
C34   N20   S    
C47   H99   S    
C109  C120  A    
C110  C128  S    
C113  C115  A    
H63   N24   S    
Cu5   O25   S    
C66   H29   S    
Cu2   O8    S    
H15   N11   S    
C117  H97   S    
H136  N3    S    
C50   N28   S    
C138  O3    A    
C122  O33   A    
C119  C146  S    
C105  C107  S    
C101  C145  S    
C26   C78   T    
C72   H52   S    
C18   C143  S    
C19   C21   S    
C22   H72   S    
C109  C111  A    
C110  C121  A    
C126  H141  S    
C65   H27   S    
C1    O20   A    
H145  N5    S    
C55   H144  S    
C24   C101  S    
C73   H58   S    
C101  N17   S    
C57   N7    S    
C70   H44   S    
C25   H157  S    
C83   C134  S    
H19   N13   S    
C94   C100  A    
C79   O21   A    
C79   C91   S    
C145  C150  S    
C143  O15   A    
Cu8   O46   S    
C93   C95   A    
C111  C122  S    
C58   H150  S    
C69   H38   S    
H114  N29   S    
C88   C104  A    
Cu9   O37   S    
C130  O39   A    
Cu10  O38   S    
C26   C96   S    
C141  O9    A    
C35   C76   S    
C10   H79   S    
C155  C159  A    
C34   C39   S    
C39   C78   S    
C112  N18   S    
C130  C154  S    
C27   C80   T    
C47   H98   S    
C134  C149  S    
H140  N4    S    
C31   C84   T    
C58   H151  S    
C36   C101  S    
C66   H31   S    
C160  C162  A    
C74   H60   S    
Cu3   O18   S    
C98   O29   A    
Cu3   O14   S    
C88   C91   A    
H88   N12   S    
C61   H7    S    
C63   H16   S    
C103  C105  S    
C54   H138  S    
C50   H111  S    
C105  H67   S    
C13   N11   S    
C165  H35   S    
H92   N23   S    
C102  C141  S    
Cu7   O35   S    
H23   N14   S    
Cu12  O3    S    
C132  O41   A    
C11   C68   S    
C127  N26   S    
C133  O44   A    
C122  O31   A    
C60   H3    S    
H101  N26   S    
C21   C25   S    
C126  C128  S    
C63   H18   S    
C5    C25   S    
C114  C116  A    
C48   H103  S    
C166  H122  S    
C21   H68   S    
Cu12  O16   S    
C146  O18   A    
H83   N1    S    
Cu12  O11   S    
C14   H82   S    
C94   H77   S    
C43   H85   S    
C54   N3    S    
C106  C108  S    
Cu10  O23   S    
C45   H95   S    
C90   N16   S    
C52   H128  S    
C37   C41   S    
C11   C40   S    
C35   C41   S    
C43   N1    S    
C37   N22   S    
C146  O19   A    
C112  C156  S    
C14   C152  S    
C149  N30   S    
C67   H36   S    
C95   H78   S    
C35   C112  S    
C44   H91   S    
Cu9   O47   S    
C66   N15   S    
C45   H94   S    
C13   C90   S    
C74   N22   S    
C55   H142  S    
C104  C106  S    
C108  N23   S    
C59   N7    S    
Cu4   O6    S    
C67   N16   S    
Cu10  O48   S    
C69   H39   S    
C79   O12   A    
C43   H87   S    
C56   H148  S    
C99   O26   A    
C97   O24   A    
C61   H9    S    
C140  O8    A    
C45   H93   S    
C42   C46   S    
C14   C77   S    
C30   C83   T    
C105  H69   S    
C51   H116  S    
C75   H66   S    
Cu8   O36   S    
C34   C149  S    
C115  C117  A    
Cu2   O4    S    
C12   H81   S    
C69   N17   S    
C153  C155  A    
C3    H124  S    
C73   H55   S    
C139  O5    A    
C60   H5    S    
C8    H125  S    
C129  O36   A    
C158  C160  A    
C92   H74   S    
C148  C154  A    
C68   N8    S    
C62   H11   S    
Cu11  O44   S    
C139  C161  S    
C154  C157  A    
C4    C6    A    
H132  N2    S    
C6    C8    A    
C1    O1    A    
C76   C156  S    
C100  C103  A    
C10   C39   S    
C157  H2    S    
C126  H130  S    
C12   C41   S    
C91   C93   A    
C155  H152  S    
C66   H30   S    
C59   H160  S    
C41   C81   S    
C52   H129  S    
C67   H34   S    
C136  O48   A    
C151  C156  S    
C9    H126  S    
Cu10  O34   S    
C20   C22   S    
C12   C76   S    
C71   H48   S    
C63   H17   S    
C57   C134  S    
C77   N10   S    
C108  N25   S    
C5    C7    A    
C28   C98   S    
C55   N4    S    
C15   C17   A    
C125  H108  S    
C120  C125  S    
Cu2   O13   S    
C142  O13   A    
C138  O4    A    
C127  N27   S    
Cu1   Cu6   S    
C5    C19   A    
C49   N27   S    
C62   N10   S    
C158  H118  S    
C22   H73   S    
C10   C149  S    
C2    C77   S    
H37   N17   S    
Cu3   O5    S    
C152  N4    S    
C21   H57   S    
H149  N6    S    
C32   C85   T    
Cu11  O39   S    
C55   H143  S    
C111  C114  A    
C143  O14   A    
C60   N8    S    
Cu8   Cu10  S    
C135  O45   A    
C24   C68   S    
C25   H156  S    
C75   N24   S    
C13   C57   S    
C129  O38   A    
C114  H1    S    
C64   H21   S    
C144  O17   A    
C147  C163  A    
C106  H70   S    
C85   C156  S    
C124  O35   A    
C68   C145  S    
C165  H46   S    
Cu6   O27   S    
Cu7   O30   S    
C129  C153  S    
C165  C166  S    
C44   N12   S    
Cu3   Cu4   S    
C42   C82   S    
H96   N25   S    
C70   H43   S    
C44   H90   S    
C23   H155  S    
C128  N29   S    
C49   H107  S    
C106  H71   S    
C64   N13   S    
C38   C42   S    
C118  C144  S    
Cu1   O22   S    
C150  N2    S    
Cu6   O20   S    
Cu8   O40   S    
Cu7   O21   S    
Cu11  O2    S    
C125  H119  S    
C52   H131  S    
C53   H134  S    
C74   H61   S    
C37   C112  S    
C6    C136  S    
C100  C140  S    
C24   C40   S    
C131  O40   A    
C65   H25   S    
C40   C80   S    
C54   H139  S    
C52   N30   S    
C50   H112  S    
C51   H117  S    
C107  N1    S    
C47   H100  S    
C14   C42   S    
Cu1   O31   S    
H127  N30   S    
H105  N27   S    
Cu5   O26   S    
C137  O47   A    
C12   C151  S    
C142  O11   A    
C37   C151  S    
C38   C152  S    
C65   H26   S    
C60   H4    S    
C97   O28   A    
C13   C39   S    
C72   H51   S    
C11   H80   S    
C36   C40   S    
C10   C57   S    
C132  O34   A    
C107  N12   S    
C75   H64   S    
C62   H14   S    
C70   H42   S    
C45   N23   S    
H10   N10   S    
C48   N26   S    
C33   C86   T    
C34   C90   S    
C16   N6    S    
C31   C132  S    
C135  O43   A    
C147  C166  S    
C128  N28   S    
C133  O42   A    
C23   H154  S    
C151  N3    S    
C89   C92   A    
C102  C104  A    
C110  C113  A    
C164  H24   S    
Cu5   O12   S    
H54   N21   S    
C59   H161  S    
Cu4   O15   S    
C61   N9    S    
C7    C9    A    
C141  O10   A    
C49   H109  S    
C1    C89   S    
H110  N28   S    
C28   C81   T    
C71   H49   S    
C35   N14   S    
H158  N7    S    
C64   H22   S    
C121  C126  S    
C56   H146  S    
H32   N16   S    
Cu2   Cu12  S    
C61   H8    S    
C17   C19   A    
C2    C86   S    
C18   C20   A    
C54   H137  S    
C46   C123  S    
C51   H115  S    
C75   H65   S    
H41   N18   S    
Cu4   O10   S    
C24   N13   S    
C3    C148  S    
Cu6   O33   S    
C16   C18   A    
C53   H135  S    
H162  N8    S    
C47   N25   S    
C124  O32   A    
C3    H123  S    
