data_mof_unit_24133.cif
_audit_creation_date              2012-12-11T17:43:41-0500
_audit_creation_method            fapswitch 2.2
_symmetry_space_group_name_H-M    P1
_symmetry_Int_Tables_number       1
_space_group_crystal_system       triclinic
_cell_length_a                    15.037018
_cell_length_b                    14.975175
_cell_length_c                    16.91336
_cell_angle_alpha                 108.808772
_cell_angle_beta                  106.181638
_cell_angle_gamma                 109.094077
_cell_volume                      3076.70296922

loop_
_atom_site_label
_atom_site_type_symbol
_atom_type_description
_atom_site_fract_x
_atom_site_fract_y
_atom_site_fract_z
_atom_type_partial_charge
C1    C     C_R   0.091267 0.277280 0.022763 -0.121479
C2    C     C_R   0.102325 0.072021 0.952463 -0.234918
C3    C     C_R   0.009789 0.887787 0.916295 0.050774
C4    C     C_R   0.007235 0.075032 0.921724 0.049913
C5    C     C_R   0.104726 0.977499 0.945309 0.052624
C6    C     C_R   0.914862 0.977565 0.865064 0.053664
C7    C     C_R   0.829250 0.011622 0.736167 -0.134327
C8    C     C_R   0.294532 0.048793 0.045182 -0.177049
C9    C     C_R   0.641528 0.933772 0.656703 -0.139229
C10   C     C_R   0.396117 0.967808 0.992531 -0.129007
C11   C     C_R   0.484471 0.690939 0.350421 -0.159200
C12   C     C_R   0.916114 0.711211 0.918543 -0.143416
C13   C     C_R   0.519645 0.414691 0.733286 -0.168123
C14   C     C_R   0.502493 0.682853 0.272283 -0.197801
C15   C     C_R   0.522165 0.439194 0.821063 -0.181641
C16   C     C_R   0.935923 0.450962 0.734631 -0.122834
C17   C     C_R   0.064551 0.481016 0.253491 -0.139555
C18   C     C_R   0.525738 0.602343 0.227868 0.130642
C19   C     C_R   0.556859 0.544725 0.883677 0.126610
C20   C     C_R   0.533221 0.531761 0.264440 -0.242634
C21   C     C_R   0.586296 0.625088 0.856643 -0.255951
C22   C     C_R   0.514833 0.539694 0.342481 -0.137076
C23   C     C_R   0.028257 0.464824 0.725585 0.060182
C24   C     C_R   0.587042 0.600777 0.769864 -0.157839
C25   C     C_R   0.489518 0.618821 0.385458 0.394072
C26   C     C_R   0.553853 0.495327 0.707682 0.409628
C27   C     C_R   0.622550 0.578146 0.130792 -0.247876
C28   C     C_R   0.480378 0.585797 0.989462 -0.238352
C29   C     C_R   0.632746 0.565606 0.048497 0.064993
C30   C     C_R   0.463522 0.587066 0.066633 0.052361
C31   C     C_R   0.561244 0.570864 0.977435 0.031082
C32   C     C_R   0.537275 0.589312 0.141010 0.039452
C33   C     C_R   0.740368 0.995390 0.666879 -0.155114
C34   C     C_R   0.973618 0.420986 0.255680 0.067210
C35   C     C_R   0.389156 0.045037 0.060279 -0.179025
C36   C     C_R   0.966217 0.379664 0.322666 0.130401
C37   C     C_R   0.037811 0.420294 0.639141 0.126111
C38   C     C_R   0.142854 0.440201 0.554487 -0.216843
C39   C     C_R   0.862343 0.304891 0.393181 -0.224543
C40   C     C_R   0.719647 0.214985 0.823127 -0.124761
C41   C     C_R   0.223690 0.797887 0.187299 -0.133511
C42   C     C_R   0.135968 0.454687 0.637543 -0.166385
C43   C     C_R   0.868576 0.322653 0.318736 -0.175320
C44   C     C_R   0.947531 0.356179 0.555600 -0.279763
C45   C     C_R   0.663792 0.218145 0.744539 0.067180
C46   C     C_R   0.057385 0.406686 0.396847 -0.278578
C47   C     C_R   0.953463 0.347408 0.473149 0.191360
C48   C     C_R   0.051787 0.394416 0.473553 0.183187
C49   C     C_R   0.554820 0.146105 0.677552 0.122906
C50   C     C_R   0.281643 0.901090 0.359950 0.132720
C51   C     C_R   0.391049 0.090771 0.443545 -0.232055
C52   C     C_R   0.401842 0.976647 0.608773 -0.238259
C53   C     C_R   0.321204 0.000626 0.360884 -0.171570
C54   C     C_R   0.494740 0.056940 0.684190 -0.174304
C55   C     C_R   0.296807 0.895604 0.443665 -0.288168
C56   C     C_R   0.240416 0.804197 0.274241 0.054282
C57   C     C_R   0.513485 0.161149 0.600565 -0.311279
C58   C     C_R   0.370136 0.984993 0.526542 0.188206
C59   C     C_R   0.422452 0.081050 0.524860 0.200533
C60   C     C_R   0.630820 0.889785 0.717339 0.372083
C61   C     C_R   0.308169 0.893664 0.908744 0.373238
C62   C     C_R   0.720236 0.906264 0.787003 -0.232691
C63   C     C_R   0.213084 0.897292 0.893852 -0.195853
C64   C     C_R   0.300499 0.598105 0.005302 -0.158089
C65   C     C_R   0.739575 0.465660 0.049825 -0.135773
C66   C     C_R   0.820069 0.966531 0.796443 0.063629
C67   C     C_R   0.359305 0.565993 0.055748 0.065225
C68   C     C_R   0.205487 0.974310 0.962146 0.064069
C69   C     C_R   0.726456 0.311106 0.747100 -0.145561
C70   C     C_R   0.218130 0.702802 0.265521 -0.128292
C71   C     C_R   0.296024 0.500110 0.079795 -0.128457
C72   C     C_R   0.757732 0.569333 0.979464 -0.105092
C73   C     C_R   0.109770 0.535370 0.812546 -0.139097
C74   C     C_R   0.891861 0.397230 0.176701 -0.141116
C75   C     C_R   0.917122 0.192955 0.948647 -0.129845
C76   C     C_R   0.087503 0.796168 0.999004 -0.143100
C77   C     C_R   0.005455 0.178044 0.959548 0.056230
C78   C     C_R   0.713959 0.541567 0.034361 0.048174
C79   C     C_R   0.004818 0.802753 0.944370 0.068173
C80   C     C_3   0.467371 0.626775 0.467935 -1.089334
C81   C     C_3   0.554995 0.468055 0.614629 -1.112310
C82   C     C_3   0.524970 0.824948 0.708062 -1.088235
C83   C     C_3   0.314904 0.811182 0.834937 -1.072712
C84   C     C_R   0.916302 0.885829 0.867783 -0.234557
H1    H     H_    0.172552 0.296006 0.049398 0.093268
H2    H     H_    0.612375 0.706826 0.904090 0.134814
H3    H     H_    0.519426 0.483482 0.368752 0.121417
H4    H     H_    0.614285 0.664159 0.751584 0.122676
H5    H     H_    0.679735 0.577139 0.185746 0.134651
H6    H     H_    0.422906 0.582642 0.931640 0.133658
H7    H     H_    0.133422 0.447276 0.400136 0.119137
H8    H     H_    0.871476 0.323881 0.554923 0.117481
H9    H     H_    0.796643 0.297601 0.261346 0.112397
H10   H     H_    0.207495 0.499988 0.700412 0.122695
H11   H     H_    0.218966 0.474341 0.555297 0.136620
H12   H     H_    0.838881 0.682402 0.866518 0.100403
H13   H     H_    0.786347 0.267072 0.391472 0.125111
H14   H     H_    0.857212 0.401788 0.681461 0.094453
H15   H     H_    0.143155 0.500754 0.296331 0.090675
H16   H     H_    0.748069 0.029731 0.620305 0.131603
H17   H     H_    0.457297 0.102138 0.124679 0.123539
H18   H     H_    0.556375 0.230048 0.594254 0.121182
H19   H     H_    0.261860 0.820338 0.444346 0.122310
H20   H     H_    0.522452 0.045139 0.744365 0.134820
H21   H     H_    0.306530 0.008705 0.297932 0.117065
H22   H     H_    0.428281 0.165423 0.442309 0.129882
H23   H     H_    0.905251 0.057831 0.741823 0.124693
H24   H     H_    0.360035 0.904720 0.612036 0.134086
H25   H     H_    0.573538 0.920432 0.601466 0.130885
H26   H     H_    0.470147 0.966224 0.005372 0.109792
H27   H     H_    0.711981 0.872074 0.833675 0.124526
H28   H     H_    0.144997 0.840149 0.829226 0.135052
H29   H     H_    0.689433 0.161934 0.850401 0.088940
H30   H     H_    0.233439 0.861241 0.168263 0.096455
H31   H     H_    0.328041 0.659960 0.985340 0.103382
H32   H     H_    0.716459 0.425216 0.088756 0.099615
H33   H     H_    0.703632 0.349022 0.706303 0.093863
H34   H     H_    0.290305 0.108724 0.098638 0.119628
H35   H     H_    0.223391 0.677852 0.319032 0.096159
H36   H     H_    0.319105 0.467794 0.125982 0.107849
H37   H     H_    0.757525 0.629294 0.957635 0.115541
H38   H     H_    0.192036 0.563134 0.831705 0.095334
H39   H     H_    0.811499 0.339440 0.148825 0.084935
H40   H     H_    0.836568 0.134686 0.909600 0.116537
H41   H     H_    0.169218 0.846087 0.024460 0.116581
H42   H     H_    0.843990 0.813145 0.831886 0.123028
H43   H     H_    0.175172 0.143202 0.982883 0.125450
H44   H     H_    0.388959 0.622399 0.453738 0.250411
H45   H     H_    0.465392 0.752679 0.383030 0.128889
H46   H     H_    0.469164 0.561487 0.484843 0.260902
H47   H     H_    0.526768 0.703540 0.528599 0.275071
H48   H     H_    0.604771 0.427952 0.607514 0.249023
H49   H     H_    0.474542 0.413861 0.559471 0.260108
H50   H     H_    0.586498 0.540198 0.605300 0.263243
H51   H     H_    0.462119 0.816314 0.648496 0.257145
H52   H     H_    0.514252 0.744265 0.696804 0.266270
H53   H     H_    0.517216 0.863745 0.772078 0.258494
H54   H     H_    0.394131 0.816654 0.857287 0.250592
H55   H     H_    0.258368 0.730855 0.818478 0.254138
H56   H     H_    0.491441 0.332931 0.685466 0.139875
H57   H     H_    0.296049 0.822067 0.771460 0.263654
H58   H     H_    0.496895 0.738526 0.245594 0.130545
H59   H     H_    0.497469 0.376188 0.840435 0.132209
H60   H     H_    0.550364 0.468720 0.231065 0.127434
N1    N     N_R   0.055660 0.348550 0.045620 -0.041297
N2    N     N_R   0.185200 0.638170 0.176300 -0.038607
N3    N     N_R   0.201680 0.494570 0.045620 -0.041064
N4    N     N_R   0.798320 0.505430 0.954380 -0.041663
N5    N     N_R   0.068420 0.560530 0.871650 -0.038409
N6    N     N_R   0.931580 0.439470 0.128350 -0.037639
N7    N     N_R   0.948070 0.295860 0.997670 -0.043743
N8    N     N_R   0.051930 0.704140 0.002330 -0.040605
N9    N     N_R   0.944340 0.651450 0.954380 -0.040815
N10   N     N_R   0.960830 0.507850 0.823700 -0.040265
N11   N     N_R   0.039170 0.492150 0.176300 -0.038441
N12   N     N_R   0.811290 0.303410 0.871650 -0.041199
N13   N     N_R   0.188710 0.696590 0.128350 -0.039861
N14   N     N_R   0.205200 0.552990 0.997670 -0.037501
N15   N     N_R   0.794800 0.447010 0.002330 -0.041609
N16   N     N_R   0.814800 0.361830 0.823700 -0.039062
Ni1   Ni    Ni4+2 0.119340 0.493420 0.109960 0.216189
Ni2   Ni    Ni4+2 0.880660 0.506580 0.890040 0.217516
Ni3   Ni    Ni4+2 0.872590 0.372590 0.000000 0.209092
Ni4   Ni    Ni4+2 0.127410 0.627410 0.000000 0.215771

loop_
_geom_bond_atom_site_label_1
_geom_bond_atom_site_label_2
_ccdc_geom_bond_type
C71   N3    A    
C14   H58   S    
C72   H37   S    
C27   C29   A    
C25   C80   S    
C1    C77   A    
C20   H60   S    
C10   H26   S    
C1    N1    A    
C76   C79   A    
C12   N9    A    
C65   N15   A    
C19   C31   S    
C83   H55   S    
C8    H34   S    
C81   H50   S    
N2    N13   A    
N11   Ni1   S    
C15   C19   A    
N6    Ni3   S    
C71   H36   S    
C54   H20   S    
C19   C21   A    
C24   C26   A    
C38   C42   A    
C82   H53   S    
C11   C14   A    
N3    Ni1   S    
C57   C59   A    
C76   N8    A    
C49   C54   A    
C12   C79   A    
C55   H19   S    
C82   H51   S    
C69   N16   A    
C49   C57   A    
C60   C62   A    
C37   C42   A    
C61   C63   A    
C14   C18   A    
C72   C78   A    
C21   H2    S    
C60   C82   S    
C29   C78   S    
C40   H29   S    
N12   Ni3   S    
C75   N7    A    
C22   C25   A    
C38   H11   S    
C36   C46   A    
C10   C35   A    
C70   N2    A    
N15   Ni3   S    
C41   H30   S    
C67   C71   A    
C30   C67   S    
C44   H8    S    
C44   C47   A    
N14   Ni4   S    
C2    H43   S    
C74   H39   S    
C3    C79   S    
C80   H47   S    
C42   H10   S    
C7    H23   S    
C1    H1    S    
C76   H41   S    
C7    C33   A    
C23   C73   A    
C5    C68   S    
C11   H45   S    
C52   C54   A    
C84   H42   S    
C40   C45   A    
N2    Ni1   S    
C46   C48   A    
C50   C53   A    
C80   H46   S    
C62   C66   A    
C45   C69   A    
C75   H40   S    
C13   H56   S    
N12   N16   A    
C6    C84   A    
C4    C6    A    
C61   C83   S    
C83   H57   S    
C81   H48   S    
C39   C43   A    
C46   H7    S    
C80   H44   S    
C3    C5    A    
C58   C59   A    
C23   C37   S    
C17   H15   S    
C50   C56   S    
C51   C53   A    
N4    N15   A    
N16   Ni2   S    
C2    C4    A    
N5    N10   A    
C64   C67   A    
C41   C56   A    
C57   H18   S    
C24   H4    S    
C47   C48   A    
C45   C49   S    
C70   H35   S    
N5    Ni4   S    
N1    N7    A    
C22   H3    S    
C62   H27   S    
C75   C77   A    
N13   Ni4   S    
N8    Ni4   S    
C52   C58   A    
C9    C33   A    
C41   N13   A    
C34   C74   A    
C8    C68   A    
C26   C81   S    
N7    Ni3   S    
N6    N11   A    
C13   C15   A    
C16   N10   A    
C65   H32   S    
C15   H59   S    
C13   C26   A    
C21   C24   A    
C10   C61   A    
C18   C32   S    
C17   C34   A    
C9    H25   S    
C17   N11   A    
C39   C47   A    
C63   C68   A    
C74   N6    A    
C65   C78   A    
C73   N5    A    
C27   C32   A    
C63   H28   S    
C38   C48   A    
N10   Ni2   S    
C28   C31   A    
C40   N12   A    
C20   C22   A    
C35   H17   S    
C81   H49   S    
C16   C23   A    
C56   C70   A    
C50   C55   A    
N9    Ni2   S    
C33   H16   S    
N4    Ni2   S    
C9    C60   A    
C37   C44   A    
C28   C30   A    
C4    C77   S    
C29   C31   A    
C72   N4    A    
C7    C66   A    
C30   C32   A    
C16   H14   S    
N1    Ni1   S    
C51   H22   S    
C69   H33   S    
C43   H9    S    
C34   C36   S    
C27   H5    S    
C18   C20   A    
C82   H52   S    
C39   H13   S    
C2    C5    A    
C53   H21   S    
C6    C66   S    
C51   C59   A    
N8    N9    A    
C52   H24   S    
C73   H38   S    
C55   C58   A    
C64   N14   A    
C3    C84   A    
C64   H31   S    
C11   C25   A    
C12   H12   S    
C36   C43   A    
C28   H6    S    
N3    N14   A    
C8    C35   A    
C83   H54   S    
