data_mof_unit_12136.cif
_audit_creation_date              2012-10-26T20:33:58-0400
_audit_creation_method            fapswitch 2.2
_symmetry_space_group_name_H-M    P1
_symmetry_Int_Tables_number       1
_space_group_crystal_system       triclinic
_cell_length_a                    15.918761
_cell_length_b                    9.171418
_cell_length_c                    7.818429
_cell_angle_alpha                 89.793688
_cell_angle_beta                  88.320882
_cell_angle_gamma                 89.945473
_cell_volume                      1140.97401002

loop_
_atom_site_label
_atom_site_type_symbol
_atom_type_description
_atom_site_fract_x
_atom_site_fract_y
_atom_site_fract_z
_atom_type_partial_charge
Br1   Br    Br    0.085901 0.739363 0.749067 -0.496718
Br2   Br    Br    0.105444 0.794965 0.359960 -0.494866
Br3   Br    Br    0.888708 0.759503 0.705076 -0.486002
Br4   Br    Br    0.907718 0.783125 0.319595 -0.485606
C1    C     C_R   0.499941 0.220027 0.500194 0.537686
C2    C     C_3   0.056729 0.448262 0.324747 0.193297
C3    C     C_3   0.948162 0.415117 0.652083 0.180961
C4    C     C_3   0.958780 0.439380 0.319282 0.162415
C5    C     C_1   0.749428 0.499957 0.490542 0.033926
C6    C     C_1   0.250646 0.502093 0.508711 0.005015
C7    C     C_3   0.083176 0.503892 0.503575 0.011538
C8    C     C_3   0.916997 0.500945 0.490625 -0.015110
C9    C     C_3   0.948166 0.664020 0.510524 0.253105
C10   C     C_3   0.048363 0.664225 0.527672 0.242609
C11   C     C_3   0.873501 0.187654 0.606816 0.072393
C12   C     C_1   0.824796 0.500043 0.486657 0.053812
C13   C     C_3   0.804896 0.099145 0.698349 -0.363659
C14   C     C_3   0.932132 0.265900 0.109162 0.005615
C15   C     C_3   0.943299 0.103361 0.080446 -0.287869
C16   C     C_3   0.131292 0.204835 0.727089 -0.001593
C17   C     C_3   0.187955 0.093371 0.639939 -0.298261
C18   C     C_3   0.157709 0.319477 0.160694 -0.024085
C19   C     C_3   0.200453 0.172066 0.137932 -0.340933
C20   C     C_1   0.175317 0.503136 0.510021 0.046269
C21   C     C_R   0.339962 0.500484 0.502529 0.536603
C22   C     C_R   0.660059 0.499912 0.497416 0.544565
C23   C     C_1   0.499920 0.934773 0.499764 -0.036901
C24   C     C_1   0.499911 0.065250 0.500273 -0.047305
C25   C     C_R   0.499961 0.779986 0.499818 0.559808
C26   C     C_3   0.045251 0.399462 0.646281 0.187740
Cu1   Cu    Cu3+1 0.500000 0.500010 0.669080 1.044362
Cu2   Cu    Cu3+1 0.500000 0.500010 0.330920 1.044600
H1    H     H_    0.075896 0.530465 0.225524 0.119860
H2    H     H_    0.983160 0.323027 0.035373 0.144409
H3    H     H_    0.870619 0.301005 0.059273 0.173798
H4    H     H_    0.884672 0.045866 0.120454 0.191232
H5    H     H_    0.957376 0.081102 0.943288 0.167702
H6    H     H_    0.996380 0.061738 0.155658 0.243697
H7    H     H_    0.099559 0.153491 0.840083 0.151561
H8    H     H_    0.173730 0.293494 0.768842 0.096262
H9    H     H_    0.230245 0.148263 0.544883 0.132628
H10   H     H_    0.226946 0.037735 0.735948 0.122771
H11   H     H_    0.149325 0.011971 0.575600 0.266258
H12   H     H_    0.066656 0.437682 0.773447 0.079827
H13   H     H_    0.206434 0.400715 0.192692 0.148561
H14   H     H_    0.129852 0.352843 0.038610 0.099618
H15   H     H_    0.153236 0.086097 0.114250 0.197254
H16   H     H_    0.246116 0.176846 0.028017 0.096592
H17   H     H_    0.235156 0.143103 0.253880 0.167169
H18   H     H_    0.937738 0.511636 0.213757 0.136035
H19   H     H_    0.937555 0.491936 0.759361 0.164296
H20   H     H_    0.925598 0.114761 0.563364 0.267320
H21   H     H_    0.840910 0.234278 0.497910 0.182181
H22   H     H_    0.752046 0.171890 0.738210 0.147492
H23   H     H_    0.780520 0.015106 0.610765 0.172085
H24   H     H_    0.829031 0.045374 0.813859 0.198281
N1    N     N_1   0.500000 0.499970 0.076820 -0.075600
N2    N     N_1   0.500000 0.499970 0.923180 -0.075951
O1    O     O_R   0.500000 0.288400 0.642760 -0.502766
O2    O     O_3   0.933728 0.294364 0.286700 -0.548737
O3    O     O_3   0.069039 0.252514 0.613805 -0.464147
O4    O     O_3   0.094054 0.309513 0.290119 -0.467529
O5    O     O_R   0.500000 0.288400 0.357240 -0.499984
O6    O     O_R   0.379440 0.500020 0.642850 -0.499885
O7    O     O_R   0.379440 0.500020 0.357150 -0.503069
O8    O     O_R   0.620560 0.500020 0.642850 -0.490668
O9    O     O_R   0.620560 0.500020 0.357150 -0.495207
O10   O     O_R   0.500000 0.711620 0.642810 -0.490499
O11   O     O_R   0.500000 0.711620 0.357190 -0.489168
O12   O     O_3   0.902789 0.293037 0.721425 -0.601087

loop_
_geom_bond_atom_site_label_1
_geom_bond_atom_site_label_2
_ccdc_geom_bond_type
C4    O2    S    
Cu1   O8    S    
Cu2   O11   S    
C19   H16   S    
C15   H6    S    
C18   O4    S    
C1    C24   S    
C14   H3    S    
C13   H23   S    
Cu1   Cu2   S    
Br3   C9    S    
C2    H1    S    
C4    C8    S    
C2    O4    S    
C3    O12   S    
C11   H20   S    
C3    H19   S    
C3    C26   S    
C9    C10   S    
C16   C17   S    
C19   H15   S    
C14   H2    S    
C13   H24   S    
C26   H12   S    
N1    N2    T    
C3    C8    S    
C8    C12   S    
Cu2   N1    S    
Cu2   O9    S    
C17   H9    S    
C22   O9    A    
C11   H21   S    
Cu1   N2    S    
C14   O2    S    
C18   H14   S    
C5    C12   T    
C5    C22   S    
C25   O11   A    
C15   H4    S    
Cu2   O5    S    
Cu1   O10   S    
Br2   C10   S    
C7    C10   S    
C19   H17   S    
C1    O5    A    
C23   C25   S    
C1    O1    A    
C17   H10   S    
C25   O10   A    
C4    H18   S    
C7    C20   S    
C2    C7    S    
C18   H13   S    
C21   O7    A    
C8    C9    S    
C6    C21   S    
C11   O12   S    
C14   C15   S    
C26   O3    S    
Cu1   O1    S    
C16   O3    S    
C11   C13   S    
C16   H7    S    
C18   C19   S    
C2    C4    S    
Br1   C10   S    
C15   H5    S    
C6    C20   T    
C17   H11   S    
C16   H8    S    
Cu1   O6    S    
C13   H22   S    
Br4   C9    S    
C7    C26   S    
Cu2   O7    S    
C23   C24   T    
C21   O6    A    
C22   O8    A    
