data_mof_unit_51751.cif
_audit_creation_date              2012-10-26T21:24:51-0400
_audit_creation_method            fapswitch 2.2
_symmetry_space_group_name_H-M    P1
_symmetry_Int_Tables_number       1
_space_group_crystal_system       triclinic
_cell_length_a                    9.544481
_cell_length_b                    10.818017
_cell_length_c                    15.543118
_cell_angle_alpha                 89.905932
_cell_angle_beta                  74.167664
_cell_angle_gamma                 90.058725
_cell_volume                      1543.97786327

loop_
_atom_site_label
_atom_site_type_symbol
_atom_type_description
_atom_site_fract_x
_atom_site_fract_y
_atom_site_fract_z
_atom_type_partial_charge
C1    C     C_R   0.999016 0.262335 0.501931 0.538926
C2    C     C_R   0.235903 0.570009 0.048071 0.047843
C3    C     C_R   0.332060 0.521916 0.095088 0.033421
C4    C     C_R   0.917641 0.495747 0.672154 0.555754
C5    C     C_R   0.089655 0.592981 0.092923 -0.145163
C6    C     C_R   0.036918 0.567197 0.183793 -0.143334
C7    C     C_R   0.274262 0.490613 0.185510 -0.135961
C8    C     C_R   0.119448 0.063856 0.513130 0.016939
C9    C     C_R   0.994403 0.129282 0.511299 0.005749
C10   C     C_R   0.863069 0.064277 0.522075 -0.171710
C11   C     C_R   0.863201 0.935423 0.521962 -0.165941
C12   C     C_R   0.676171 0.497203 0.909692 0.027462
C13   C     C_R   0.994770 0.870833 0.510745 0.008692
C14   C     C_R   0.119715 0.936631 0.512612 0.024137
C15   C     C_3   0.270008 0.931071 0.450926 -0.270352
C16   C     C_R   0.999224 0.737716 0.501645 0.547920
C17   C     C_3   0.270037 0.071367 0.451960 -0.265674
C18   C     C_R   0.592227 0.592947 0.458786 0.157543
C19   C     C_R   0.553131 0.414812 0.547480 0.008526
C20   C     C_R   0.404247 0.414897 0.547624 -0.015846
C21   C     C_R   0.444711 0.593107 0.458870 0.160108
C22   C     C_3   0.482493 0.626183 0.362085 -0.275779
C23   C     C_R   0.780796 0.483754 0.958208 0.010384
C24   C     C_3   0.641192 0.625435 0.362062 -0.285876
C25   C     C_R   0.082185 0.502162 0.328045 0.545282
C26   C     C_R   0.871151 0.488488 0.770634 0.005664
C27   C     C_R   0.129264 0.516382 0.230565 -0.001404
C28   C     C_R   0.929191 0.477153 0.912782 -0.163422
C29   C     C_R   0.974346 0.486359 0.819856 -0.193430
C30   C     C_R   0.721804 0.479590 0.816140 0.250642
C31   C     C_3   0.574945 0.323375 0.789103 0.000397
C32   C     C_3   0.692625 0.229102 0.744382 -0.274491
C33   C     C_3   0.631618 0.097857 0.752952 -0.486838
C34   C     C_R   0.529335 0.523522 0.956158 0.026748
C35   C     C_R   0.482412 0.507449 0.050267 0.022490
C36   C     C_R   0.588528 0.483754 0.096516 -0.139970
C37   C     C_R   0.735650 0.476290 0.051231 -0.136952
C38   C     C_R   0.431254 0.573578 0.911835 -0.122798
C39   C     C_R   0.287335 0.597219 0.957307 -0.157357
Cu1   Cu    Cu3+1 0.140670 0.499980 0.500000 0.929341
Cu2   Cu    Cu3+1 0.859330 0.500020 0.500000 0.951733
H1    H     H_    0.814175 0.462987 0.089270 0.113513
H2    H     H_    0.331869 0.344557 0.584819 0.109089
H3    H     H_    0.455768 0.551596 0.320352 0.146741
H4    H     H_    0.339860 0.444771 0.222330 0.109077
H5    H     H_    0.442698 0.719349 0.350358 0.119875
H6    H     H_    0.703359 0.549501 0.320830 0.143319
H7    H     H_    0.693306 0.718156 0.350438 0.123341
H8    H     H_    0.925459 0.590264 0.217671 0.114769
H9    H     H_    0.215905 0.636975 0.921112 0.108965
H10   H     H_    0.010432 0.467386 0.949121 0.125023
H11   H     H_    0.089890 0.487432 0.786494 0.139438
H12   H     H_    0.016768 0.633452 0.058091 0.109613
H13   H     H_    0.562384 0.477874 0.168323 0.096000
H14   H     H_    0.466034 0.601618 0.842532 0.172890
H15   H     H_    0.478915 0.309522 0.762787 0.141265
H16   H     H_    0.536514 0.305703 0.862390 0.132163
H17   H     H_    0.736727 0.252006 0.672496 0.183852
H18   H     H_    0.783555 0.232669 0.776252 0.152558
H19   H     H_    0.586022 0.072910 0.824525 0.152824
H20   H     H_    0.720055 0.031846 0.722217 0.161326
H21   H     H_    0.544977 0.089887 0.717865 0.138486
H22   H     H_    0.761868 0.112256 0.526318 0.126893
H23   H     H_    0.762054 0.887167 0.526189 0.135553
H24   H     H_    0.349189 0.889806 0.483515 0.136116
H25   H     H_    0.272049 0.891833 0.384526 0.132626
H26   H     H_    0.348587 0.111122 0.485672 0.129308
H27   H     H_    0.273208 0.113380 0.386097 0.141880
H28   H     H_    0.592215 0.344127 0.584248 0.117475
N1    N     N_R   0.648210 0.500930 0.499430 -0.228179
N2    N     N_R   0.352300 0.500890 0.499430 -0.231079
O1    O     O_R   0.118810 0.319640 0.500000 -0.505361
O2    O     O_R   0.881230 0.319680 0.499990 -0.522774
O3    O     O_R   0.055580 0.499970 0.629840 -0.516491
O4    O     O_R   0.818000 0.500010 0.629830 -0.443154
O5    O     O_R   0.118770 0.680320 0.500010 -0.494995
O6    O     O_R   0.881190 0.680360 0.500000 -0.507224
O7    O     O_R   0.182000 0.499990 0.370170 -0.509046
O8    O     O_R   0.944420 0.500030 0.370160 -0.503638
O9    O     O_3   0.623153 0.446840 0.768885 -0.575435

loop_
_geom_bond_atom_site_label_1
_geom_bond_atom_site_label_2
_ccdc_geom_bond_type
C18   N1    A    
Cu1   N2    S    
C18   C21   A    
C19   C20   A    
C32   H17   S    
C10   H22   S    
C31   O9    S    
C12   C23   A    
C21   N2    A    
C18   C24   S    
C7    H4    S    
C5    H12   S    
C28   C29   A    
C34   C35   A    
C3    C7    A    
Cu2   O6    S    
C38   C39   A    
C28   H10   S    
C15   H24   S    
C7    C27   A    
C16   O6    A    
C37   H1    S    
C4    O4    A    
C2    C39   A    
C22   H3    S    
C38   H14   S    
C31   C32   S    
C33   H21   S    
C20   N2    A    
C31   H15   S    
C9    C10   A    
C4    O3    A    
C30   O9    S    
C16   O5    A    
C34   C38   A    
C21   C22   S    
C17   H26   S    
C1    O1    A    
C25   O7    A    
C24   H7    S    
C1    C9    S    
C11   H23   S    
C8    C9    A    
C23   C37   A    
C15   H25   S    
Cu1   O5    S    
C35   C36   A    
Cu2   O4    S    
C6    C27   A    
C3    C35   A    
C23   C28   A    
Cu1   Cu2   S    
C22   H5    S    
C26   C30   A    
C33   H19   S    
Cu1   O7    S    
C19   H28   S    
C2    C5    A    
C12   C34   A    
C20   H2    S    
C15   C17   S    
C36   C37   A    
C17   H27   S    
C8    C14   A    
Cu1   O1    S    
C12   C30   A    
C25   O8    A    
C24   H6    S    
Cu2   O8    S    
C4    C26   S    
C25   C27   S    
C8    C17   S    
C1    O2    A    
C32   C33   S    
C31   H16   S    
C2    C3    A    
C11   C13   A    
C5    C6    A    
Cu1   O3    S    
C22   C24   S    
C6    H8    S    
C36   H13   S    
C10   C11   A    
Cu2   O2    S    
C39   H9    S    
C26   C29   A    
C33   H20   S    
C13   C16   S    
C14   C15   S    
C19   N1    A    
C32   H18   S    
C13   C14   A    
Cu2   N1    S    
C29   H11   S    
