data_mof_unit_39369.cif
_audit_creation_date              2013-03-05T15:42:47-0500
_audit_creation_method            fapswitch 2.2
_symmetry_space_group_name_H-M    P1
_symmetry_Int_Tables_number       1
_space_group_crystal_system       triclinic
_cell_length_a                    9.732998
_cell_length_b                    10.92294
_cell_length_c                    13.464363
_cell_angle_alpha                 89.61393
_cell_angle_beta                  72.884256
_cell_angle_gamma                 88.919864
_cell_volume                      1367.79685439

loop_
_atom_site_label
_atom_site_type_symbol
_atom_site_description
_atom_site_fract_x
_atom_site_fract_y
_atom_site_fract_z
_atom_type_partial_charge
O1    O     O_R   0.382960 0.678040 0.499980 -0.593808
O2    O     O_R   0.617100 0.678080 0.500020 -0.593239
C1    C     C_R   0.496836 0.734331 0.503753 0.855499
O3    O     O_R   0.325800 0.499940 0.650950 -0.590181
O4    O     O_R   0.559930 0.499980 0.650990 -0.557058
C2    C     C_R   0.423064 0.496991 0.699863 0.770040
Cu1   Cu    Cu3+1 0.361370 0.499980 0.499980 1.068534
Cu2   Cu    Cu3+1 0.638630 0.500020 0.500020 1.017903
O5    O     O_R   0.382900 0.321920 0.499980 -0.498344
O6    O     O_R   0.617040 0.321960 0.500020 -0.560114
O7    O     O_R   0.440070 0.500020 0.349010 -0.550511
O8    O     O_R   0.674200 0.500060 0.349050 -0.580177
C3    C     C_R   0.502309 0.265586 0.498098 0.755797
C4    C     C_R   0.576901 0.498780 0.300347 0.840020
C5    C     C_R   0.788086 0.410908 0.027270 0.321369
H1    H     H_    0.839599 0.436863 0.170911 0.176307
C6    C     C_R   0.619853 0.485406 0.187253 -0.101388
C7    C     C_R   0.244906 0.559953 0.863577 -0.263392
C8    C     C_R   0.205299 0.586014 0.969564 0.380984
C9    C     C_R   0.302064 0.557497 0.025772 -0.241102
C10   C     C_R   0.436655 0.498281 0.978507 0.043290
C11   C     C_R   0.468762 0.463505 0.873138 0.015178
C12   C     C_R   0.541617 0.474435 0.031649 0.033209
C13   C     C_R   0.675190 0.415062 0.979393 -0.041512
C14   C     C_R   0.689407 0.359507 0.882478 0.271657
C15   C     C_R   0.588804 0.386667 0.830087 -0.216038
C16   C     C_R   0.517118 0.507279 0.135825 -0.164964
C17   C     C_R   0.757056 0.443772 0.132039 -0.114194
C18   C     C_R   0.376915 0.502256 0.814176 -0.133460
H2    H     H_    0.416745 0.547185 0.180903 0.166113
H3    H     H_    0.173949 0.588034 0.818602 0.188898
H4    H     H_    0.268199 0.583365 0.106170 0.178319
H5    H     H_    0.602392 0.341651 0.756746 0.195654
C19   C     C_2   0.566803 0.064068 0.550269 0.163903
C20   C     C_2   0.515013 0.133810 0.484572 0.134242
C21   C     C_2   0.590005 0.931837 0.531223 -0.119424
C22   C     C_2   0.483702 0.865436 0.517481 -0.284519
H6    H     H_    0.689972 0.889070 0.535028 0.167431
H7    H     H_    0.380874 0.908611 0.520591 0.176675
C23   C     C_2   0.052028 0.573578 0.555348 -0.055542
N1    N     N_2   0.152660 0.501340 0.501130 -0.079286
H8    H     H_    0.084357 0.649961 0.593798 0.122893
C24   C     C_2   0.893117 0.558917 0.569119 0.379493
N2    N     N_2   0.846520 0.501370 0.501160 -0.265854
H9    H     H_    0.919618 0.480705 0.430761 0.215141
N3    N     N_R   0.494371 0.085274 0.390690 0.103702
O9    O     O_R   0.389268 0.127038 0.358018 -0.278352
O10   O     O_R   0.594645 0.018144 0.328289 -0.318060
N4    N     N_R   0.112809 0.387554 0.473909 0.225389
O11   O     O_R   0.173607 0.345645 0.380862 -0.297127
O12   O     O_R   0.043732 0.312170 0.545751 -0.278753
N5    N     N_2   0.791992 0.616787 0.655621 -0.395978
H10   H     H_    0.740380 0.692529 0.636595 0.254595
C25   C     C_3   0.831220 0.630690 0.750599 -0.643850
H11   H     H_    0.732686 0.648568 0.816060 0.247021
H12   H     H_    0.903819 0.709471 0.744097 0.224592
H13   H     H_    0.884327 0.545802 0.768130 0.239975
N6    N     N_R   0.795263 0.265199 0.841201 0.096933
O13   O     O_R   0.812989 0.175815 0.900842 -0.345490
O14   O     O_R   0.854510 0.256224 0.741418 -0.308544
N7    N     N_2   0.934769 0.389235 0.968437 -0.413696
H14   H     H_    0.963753 0.399589 0.888927 0.273774
C26   C     C_3   0.020532 0.303861 0.009072 -0.526334
H15   H     H_    0.123306 0.283138 0.948255 0.220658
H16   H     H_    0.962235 0.217112 0.033181 0.267672
H17   H     H_    0.047482 0.344563 0.076104 0.215797
N8    N     N_R   0.068847 0.645185 0.019433 0.137153
O15   O     O_R   0.983338 0.679218 0.965646 -0.361897
O16   O     O_R   0.027647 0.663940 0.119309 -0.352794
N9    N     N_2   0.589866 0.116588 0.641601 -0.406745
H18   H     H_    0.519529 0.187068 0.674283 0.219112
C27   C     C_3   0.617589 0.034577 0.718845 -0.533427
H19   H     H_    0.626590 0.088234 0.786231 0.260580
H20   H     H_    0.720508 0.983439 0.685939 0.238634
H21   H     H_    0.527719 0.969729 0.747030 0.201017

loop_
_geom_bond_atom_site_label_1
_geom_bond_atom_site_label_2
_geom_bond_distance
_ccdc_geom_bond_type
H1    C17   1.081541 S    
O4    Cu2   1.949919 S    
C12   C13   1.428904 A    
C26   H16   1.110358 S    
C8    N8    1.442565 S    
N9    H18   1.030703 S    
C11   C18   1.416849 A    
C12   C16   1.399894 A    
C19   N9    1.438252 S    
C15   H5    1.077792 S    
C8    C9    1.400748 A    
O8    C4    1.301224 A    
Cu2   O8    1.958969 S    
C23   C24   1.514066 S    
N4    O12   1.301178 A    
C23   H8    1.083852 S    
O2    C1    1.299562 A    
C5    N7    1.430345 S    
C26   H17   1.109144 S    
Cu1   Cu2   2.698738 S    
C22   H7    1.087933 S    
C7    C18   1.400904 A    
C5    C13   1.428164 A    
C10   C11   1.413001 A    
C9    C10   1.422079 A    
C16   H2    1.072973 S    
Cu1   O7    1.949920 S    
C20   N3    1.442844 S    
C4    C6    1.463169 S    
C5    C17   1.400712 A    
N7    H14   1.029694 S    
C24   N2    1.304163 D    
C27   H21   1.111402 S    
C21   H6    1.086007 S    
C21   C22   1.331754 D    
C14   C15   1.391820 A    
N5    C25   1.447908 S    
N4    O11   1.300165 A    
N8    O15   1.301840 A    
C19   C21   1.470214 S    
O3    Cu1   1.958969 S    
C10   C12   1.428700 A    
C11   C15   1.405864 A    
O4    C2    1.301539 A    
C19   C20   1.362263 D    
O7    C4    1.299589 A    
C25   H12   1.110380 S    
C24   N5    1.427066 S    
O3    C2    1.302492 A    
C14   N6    1.436038 S    
N6    O14   1.300299 A    
C26   H15   1.110946 S    
C6    C16   1.390222 A    
N3    O10   1.301836 A    
Cu1   O5    1.952265 S    
C3    C20   1.450467 S    
C2    C18   1.472198 S    
C13   C14   1.411151 A    
C1    C22   1.443619 S    
C27   H20   1.110294 S    
C7    C8    1.394145 A    
C9    H4    1.072802 S    
N1    N4    1.391949 S    
N7    C26   1.448561 S    
O5    C3    1.298426 A    
C25   H11   1.110156 S    
C23   N1    1.293290 D    
O1    Cu1   1.960192 S    
N9    C27   1.449295 S    
C7    H3    1.083242 S    
O1    C1    1.291639 A    
N6    O13   1.300955 A    
N3    O9    1.301030 A    
C6    C17   1.392866 A    
C25   H13   1.110600 S    
Cu2   O6    1.960192 S    
O2    Cu2   1.952262 S    
N2    H9    1.027363 S    
Cu2   N2    2.028295 S    
Cu1   N1    2.026645 S    
N5    H10   1.029396 S    
C27   H19   1.109186 S    
N8    O16   1.301685 A    
O6    C3    1.292268 A    
