data_mof_unit_28184.cif
_audit_creation_date              2012-12-10T18:09:38-0500
_audit_creation_method            fapswitch 2.2
_symmetry_space_group_name_H-M    P1
_symmetry_Int_Tables_number       1
_space_group_crystal_system       monoclinic
_cell_length_a                    15.153557
_cell_length_b                    15.181607
_cell_length_c                    9.412866
_cell_angle_alpha                 90.00805
_cell_angle_beta                  90.0
_cell_angle_gamma                 90.0
_cell_volume                      2165.48013277

loop_
_atom_site_label
_atom_site_type_symbol
_atom_type_description
_atom_site_fract_x
_atom_site_fract_y
_atom_site_fract_z
_atom_type_partial_charge
C1    C     C_R   0.120253 0.379920 0.500210 0.757561
C2    C     C_R   0.120253 0.620080 0.499790 0.757563
C3    C     C_R   0.620253 0.879920 0.500210 0.757561
C4    C     C_R   0.620254 0.120080 0.499790 0.757563
C5    C     C_3   0.092324 0.499966 0.083856 -0.189359
C6    C     C_3   0.092324 0.500067 0.916144 -0.189359
C7    C     C_3   0.592324 0.999965 0.083856 -0.189360
C8    C     C_3   0.592324 0.000067 0.916144 -0.189359
C9    C     C_R   0.880004 0.379832 0.499781 0.759318
C10   C     C_R   0.880003 0.620167 0.500219 0.759318
C11   C     C_R   0.380003 0.879832 0.499781 0.759318
C12   C     C_R   0.380003 0.120167 0.500219 0.759318
C13   C     C_3   0.845006 0.227280 0.576402 -0.384321
C14   C     C_3   0.786041 0.285380 0.344220 -0.379982
C15   C     C_3   0.786040 0.714619 0.655780 -0.379982
C16   C     C_3   0.845007 0.772720 0.423600 -0.384322
C17   C     C_3   0.345006 0.727280 0.576402 -0.384322
C18   C     C_3   0.286040 0.785380 0.344220 -0.379982
C19   C     C_3   0.286039 0.214619 0.655780 -0.379982
C20   C     C_3   0.345007 0.272720 0.423600 -0.384321
C21   C     C_3   0.272988 0.655365 0.576648 -0.384144
C22   C     C_3   0.214878 0.713832 0.344224 -0.377018
C23   C     C_3   0.214877 0.286166 0.655776 -0.377014
C24   C     C_3   0.272989 0.344635 0.423354 -0.384143
C25   C     C_3   0.772988 0.155365 0.576648 -0.384143
C26   C     C_3   0.714878 0.213832 0.344224 -0.377018
C27   C     C_3   0.714877 0.786167 0.655776 -0.377014
C28   C     C_3   0.772988 0.844635 0.423354 -0.384143
C29   C     C_3   0.727054 0.344776 0.575509 -0.384175
C30   C     C_3   0.727055 0.655225 0.424489 -0.384175
C31   C     C_3   0.227054 0.844775 0.575509 -0.384176
C32   C     C_3   0.227054 0.155225 0.424489 -0.384175
C33   C     C_3   0.811065 0.310843 0.499015 0.178406
C34   C     C_3   0.811065 0.689157 0.500985 0.178405
C35   C     C_3   0.311065 0.810843 0.499015 0.178406
C36   C     C_3   0.311065 0.189157 0.500985 0.178405
C37   C     C_3   0.189255 0.689006 0.499025 0.177964
C38   C     C_3   0.189255 0.310993 0.500975 0.177964
C39   C     C_3   0.689255 0.189006 0.499025 0.177965
C40   C     C_3   0.689255 0.810993 0.500975 0.177964
C41   C     C_3   0.155036 0.772872 0.575251 -0.384527
C42   C     C_3   0.155037 0.227128 0.424747 -0.384528
C43   C     C_3   0.655036 0.272872 0.575251 -0.384529
C44   C     C_3   0.655037 0.727128 0.424747 -0.384529
C45   C     C_3   0.955996 0.578689 0.083689 -0.186250
C46   C     C_3   0.955883 0.578615 0.916362 -0.187234
C47   C     C_3   0.955912 0.421368 0.083638 -0.187237
C48   C     C_3   0.956025 0.421295 0.916311 -0.186254
C49   C     C_3   0.455996 0.078689 0.083689 -0.186251
C50   C     C_3   0.455883 0.078616 0.916362 -0.187235
C51   C     C_3   0.455912 0.921368 0.083638 -0.187238
C52   C     C_3   0.456024 0.921295 0.916311 -0.186254
Cu1   Cu    Cu3+1 0.000100 0.500000 0.642410 0.882012
Cu2   Cu    Cu3+1 0.000100 0.500000 0.357590 0.882012
Cu3   Cu    Cu3+1 0.500100 1.000000 0.642410 0.882012
Cu4   Cu    Cu3+1 0.500100 0.000000 0.357590 0.882012
H1    H     H_    0.863386 0.243403 0.687922 0.155728
H2    H     H_    0.760973 0.344146 0.286039 0.153955
H3    H     H_    0.760971 0.655852 0.713960 0.153954
H4    H     H_    0.863387 0.756598 0.312080 0.155728
H5    H     H_    0.363386 0.743403 0.687921 0.155728
H6    H     H_    0.260972 0.844146 0.286039 0.153955
H7    H     H_    0.260971 0.155852 0.713960 0.153954
H8    H     H_    0.363387 0.256598 0.312080 0.155728
H9    H     H_    0.905300 0.201893 0.522641 0.137940
H10   H     H_    0.845201 0.260759 0.286301 0.154050
H11   H     H_    0.845199 0.739239 0.713700 0.154051
H12   H     H_    0.905300 0.798107 0.477363 0.137941
H13   H     H_    0.405300 0.701893 0.522640 0.137940
H14   H     H_    0.345201 0.760760 0.286301 0.154050
H15   H     H_    0.345199 0.239239 0.713700 0.154051
H16   H     H_    0.405299 0.298107 0.477363 0.137940
H17   H     H_    0.298451 0.595040 0.523330 0.137555
H18   H     H_    0.240156 0.654820 0.286904 0.152841
H19   H     H_    0.240155 0.345178 0.713097 0.152842
H20   H     H_    0.298451 0.404959 0.476673 0.137554
H21   H     H_    0.798451 0.095040 0.523331 0.137555
H22   H     H_    0.740157 0.154820 0.286904 0.152841
H23   H     H_    0.740155 0.845179 0.713097 0.152842
H24   H     H_    0.798451 0.904959 0.476672 0.137554
H25   H     H_    0.256844 0.637329 0.688285 0.155395
H26   H     H_    0.155952 0.738220 0.285447 0.155990
H27   H     H_    0.155951 0.261779 0.714552 0.155989
H28   H     H_    0.256845 0.362672 0.311716 0.155396
H29   H     H_    0.756844 0.137329 0.688286 0.155395
H30   H     H_    0.655952 0.238219 0.285446 0.155990
H31   H     H_    0.655951 0.761779 0.714552 0.155989
H32   H     H_    0.756845 0.862672 0.311716 0.155396
H33   H     H_    0.136225 0.757188 0.686736 0.157360
H34   H     H_    0.094954 0.798057 0.520644 0.137803
H35   H     H_    0.094954 0.201943 0.479353 0.137803
H36   H     H_    0.136226 0.242813 0.313263 0.157360
H37   H     H_    0.636225 0.257188 0.686735 0.157360
H38   H     H_    0.594955 0.298057 0.520643 0.137804
H39   H     H_    0.594955 0.701942 0.479353 0.137803
H40   H     H_    0.636226 0.742813 0.313263 0.157360
H41   H     H_    0.988251 0.639753 0.123447 0.130631
H42   H     H_    0.987893 0.639736 0.876360 0.130989
H43   H     H_    0.987944 0.360258 0.123641 0.130989
H44   H     H_    0.988302 0.360242 0.876552 0.130631
H45   H     H_    0.488252 0.139752 0.123447 0.130631
H46   H     H_    0.487894 0.139736 0.876360 0.130990
H47   H     H_    0.487943 0.860259 0.123640 0.130990
H48   H     H_    0.488302 0.860243 0.876552 0.130631
H49   H     H_    0.886405 0.580740 0.121035 0.134610
H50   H     H_    0.886239 0.580395 0.879309 0.134332
H51   H     H_    0.886269 0.419563 0.120689 0.134335
H52   H     H_    0.886434 0.419217 0.878966 0.134613
H53   H     H_    0.386405 0.080741 0.121035 0.134610
H54   H     H_    0.386240 0.080396 0.879309 0.134332
H55   H     H_    0.386269 0.919563 0.120690 0.134335
H56   H     H_    0.386434 0.919218 0.878966 0.134613
H57   H     H_    0.129229 0.558528 0.122433 0.133604
H58   H     H_    0.129146 0.558728 0.877708 0.133906
H59   H     H_    0.129167 0.441318 0.122295 0.133902
H60   H     H_    0.129250 0.441518 0.877565 0.133601
H61   H     H_    0.629229 0.058528 0.122433 0.133605
H62   H     H_    0.629146 0.058728 0.877708 0.133906
H63   H     H_    0.629167 0.941318 0.122294 0.133903
H64   H     H_    0.629250 0.941518 0.877565 0.133601
N1    N     N_3   0.001260 0.500000 0.143650 -0.106280
N2    N     N_3   0.001260 0.500000 0.856350 -0.106280
N3    N     N_3   0.501260 0.000000 0.143650 -0.106280
N4    N     N_3   0.501260 0.000000 0.856350 -0.106281
O1    O     O_R   0.091250 0.408820 0.620260 -0.595214
O2    O     O_R   0.091250 0.408820 0.379740 -0.594121
O3    O     O_R   0.091250 0.591180 0.620260 -0.594122
O4    O     O_R   0.091250 0.591180 0.379740 -0.595215
O5    O     O_R   0.591250 0.908820 0.620260 -0.595214
O6    O     O_R   0.591250 0.908820 0.379740 -0.594121
O7    O     O_R   0.591250 0.091180 0.620260 -0.594122
O8    O     O_R   0.591250 0.091180 0.379740 -0.595215
O9    O     O_R   0.908940 0.408800 0.620260 -0.596292
O10   O     O_R   0.908940 0.408800 0.379740 -0.597001
O11   O     O_R   0.908940 0.591200 0.620260 -0.597002
O12   O     O_R   0.908940 0.591200 0.379740 -0.596292
O13   O     O_R   0.408940 0.908800 0.620260 -0.596292
O14   O     O_R   0.408940 0.908800 0.379740 -0.597001
O15   O     O_R   0.408940 0.091200 0.620260 -0.597002
O16   O     O_R   0.408940 0.091200 0.379740 -0.596292
H65   H     H_    0.742798 0.363232 0.687126 0.155815
H66   H     H_    0.701789 0.404897 0.521382 0.138158
H67   H     H_    0.701789 0.595103 0.478615 0.138158
H68   H     H_    0.742799 0.636769 0.312872 0.155814
H69   H     H_    0.242799 0.863232 0.687127 0.155815
H70   H     H_    0.201790 0.904897 0.521383 0.138158
H71   H     H_    0.201789 0.095103 0.478615 0.138158
H72   H     H_    0.242799 0.136769 0.312871 0.155814

loop_
_geom_bond_atom_site_label_1
_geom_bond_atom_site_label_2
_ccdc_geom_bond_type
C16   C28   S    
C41   H33   S    
Cu3   Cu4   S    
C17   H13   S    
C21   H17   S    
C3    O6    A    
C51   N3    S    
C7    H61   S    
C19   H15   S    
Cu1   O11   S    
C52   H56   S    
C13   C25   S    
C14   C33   S    
C8    H62   S    
C7    C8    S    
C4    O8    A    
C32   H71   S    
C13   H9    S    
C45   C46   S    
Cu2   O2    S    
C26   H22   S    
Cu3   O15   S    
C23   H27   S    
C37   C41   S    
C25   H21   S    
C32   C36   S    
C11   O14   A    
C1    O1    A    
C38   C42   S    
C27   H23   S    
C19   C36   S    
C49   H45   S    
C5    C6    S    
Cu4   O16   S    
C26   C39   S    
C47   N1    S    
C13   H1    S    
C28   C40   S    
C51   H47   S    
C49   N3    S    
C29   C33   S    
C50   H54   S    
C43   H38   S    
C47   H43   S    
C42   H35   S    
C16   H4    S    
C6    H58   S    
Cu1   O3    S    
C17   H5    S    
C31   H70   S    
C20   H16   S    
C20   C24   S    
C19   H7    S    
Cu3   O5    S    
C28   H32   S    
C24   C38   S    
C12   O16   A    
C16   H12   S    
C12   C36   S    
C18   C35   S    
C15   C34   S    
C16   C34   S    
C2    O3    A    
C41   H34   S    
C46   H42   S    
Cu2   O12   S    
C18   C22   S    
C5    H59   S    
C9    C33   S    
C30   C44   S    
C14   H2    S    
C45   H49   S    
C4    O7    A    
C29   H65   S    
C48   H44   S    
C30   C34   S    
C51   C52   S    
Cu4   N3    S    
C7    H63   S    
Cu1   O9    S    
C1    O2    A    
C7    N3    S    
C8    N4    S    
C39   C43   S    
C45   N1    S    
Cu1   Cu2   S    
C22   C37   S    
Cu2   O4    S    
C17   C21   S    
C30   H67   S    
C20   C36   S    
C20   H8    S    
C19   C23   S    
C13   C33   S    
C44   H40   S    
Cu4   O14   S    
C15   C27   S    
C47   C48   S    
C4    C39   S    
C27   C40   S    
C26   H30   S    
C15   H11   S    
C25   H29   S    
C14   H10   S    
C12   O15   A    
C50   N4    S    
C10   C34   S    
C14   C26   S    
C27   H31   S    
C6    H60   S    
Cu4   O8    S    
Cu1   O1    S    
C1    C38   S    
C29   C43   S    
Cu2   N1    S    
C21   H25   S    
C3    C40   S    
C50   H46   S    
Cu3   O7    S    
C31   C35   S    
C6    N2    S    
C30   H68   S    
C22   H26   S    
C8    H64   S    
C49   H53   S    
C9    O9    A    
Cu3   N4    S    
C52   H48   S    
C5    N1    S    
C51   H55   S    
C31   C41   S    
C5    H57   S    
C3    O5    A    
C15   H3    S    
C24   H20   S    
C23   H19   S    
C32   H72   S    
C10   O12   A    
C23   C38   S    
C47   H51   S    
C18   H14   S    
Cu3   O13   S    
Cu1   N2    S    
C11   C35   S    
C24   H28   S    
C10   O11   A    
C44   H39   S    
C45   H41   S    
C9    O10   A    
C48   N2    S    
C52   N4    S    
C2    C37   S    
C48   H52   S    
C29   H66   S    
C46   H50   S    
C43   H37   S    
C42   H36   S    
C11   O13   A    
C28   H24   S    
Cu4   O6    S    
C31   H69   S    
C40   C44   S    
C21   C37   S    
C22   H18   S    
C49   C50   S    
C32   C42   S    
C46   N2    S    
C18   H6    S    
C17   C35   S    
C25   C39   S    
C2    O4    A    
Cu2   O10   S    
