data_mof_unit_53008.cif
_audit_creation_date              2012-12-11T15:44:50-0500
_audit_creation_method            fapswitch 2.2
_symmetry_space_group_name_H-M    P1
_symmetry_Int_Tables_number       1
_space_group_crystal_system       triclinic
_cell_length_a                    19.021574
_cell_length_b                    10.92538
_cell_length_c                    18.710834
_cell_angle_alpha                 89.642206
_cell_angle_beta                  90.160313
_cell_angle_gamma                 90.273445
_cell_volume                      3888.31168293

loop_
_atom_site_label
_atom_site_type_symbol
_atom_type_description
_atom_site_fract_x
_atom_site_fract_y
_atom_site_fract_z
_atom_type_partial_charge
C1    C     C_R   0.760735 0.535283 0.646941 0.534563
C2    C     C_R   0.240048 0.535641 0.353327 0.530575
C3    C     C_R   0.260733 0.035287 0.646944 0.536040
C4    C     C_R   0.740048 0.035642 0.353327 0.530826
C5    C     C_R   0.837576 0.114906 0.519832 -0.166628
C6    C     C_R   0.266149 0.038421 0.449503 -0.128258
C7    C     C_R   0.337575 0.614885 0.519836 -0.166912
C8    C     C_R   0.766170 0.538441 0.449501 -0.128315
C9    C     C_R   0.826274 0.088953 0.447699 -0.162241
C10   C     C_R   0.281310 0.009669 0.520365 -0.124997
C11   C     C_R   0.326272 0.588931 0.447704 -0.162044
C12   C     C_R   0.781332 0.509694 0.520364 -0.125051
C13   C     C_3   0.633919 0.159690 0.465256 -0.256112
C14   C     C_3   0.202342 0.299760 0.582248 -0.280794
C15   C     C_3   0.133927 0.659714 0.465256 -0.256096
C16   C     C_3   0.702316 0.799742 0.582239 -0.280467
C17   C     C_3   0.646854 0.184657 0.543973 -0.262641
C18   C     C_3   0.187684 0.332730 0.504888 -0.280243
C19   C     C_3   0.146864 0.684685 0.543972 -0.262707
C20   C     C_3   0.687661 0.832707 0.504879 -0.280582
C21   C     C_R   0.782998 0.161969 0.561452 0.000044
C22   C     C_R   0.223258 0.138862 0.433941 0.033490
C23   C     C_R   0.283002 0.661973 0.561453 -0.000351
C24   C     C_R   0.723261 0.638856 0.433938 0.033518
C25   C     C_R   0.989621 0.329184 0.420908 -0.042074
C26   C     C_R   0.996537 0.347220 0.571024 -0.045094
C27   C     C_R   0.489595 0.829179 0.420888 -0.041851
C28   C     C_R   0.496501 0.847218 0.571004 -0.046762
C29   C     C_R   0.007184 0.104912 0.432541 -0.083791
C30   C     C_R   0.032162 0.130864 0.578228 -0.086596
C31   C     C_R   0.507154 0.604911 0.432518 -0.083697
C32   C     C_R   0.532136 0.630860 0.578202 -0.086950
C33   C     C_R   0.025383 0.003402 0.473934 -0.130475
C34   C     C_R   0.039223 0.016939 0.546373 -0.120614
C35   C     C_R   0.525358 0.503400 0.473907 -0.130447
C36   C     C_R   0.539202 0.516936 0.546345 -0.120765
C37   C     C_R   0.010106 0.233847 0.538024 -0.006636
C38   C     C_R   0.002380 0.222808 0.463079 0.008226
C39   C     C_R   0.510073 0.733844 0.538003 -0.007427
C40   C     C_R   0.502348 0.722804 0.463059 0.008401
C41   C     C_R   0.983367 0.453178 0.527243 0.004560
C42   C     C_R   0.968650 0.437558 0.454304 0.000172
C43   C     C_R   0.483319 0.953173 0.527221 0.003753
C44   C     C_R   0.468611 0.937547 0.454279 0.000364
C45   C     C_R   0.791846 0.172884 0.638903 0.567845
C46   C     C_R   0.208364 0.171147 0.361188 0.566642
C47   C     C_R   0.291847 0.672886 0.638904 0.569602
C48   C     C_R   0.708365 0.671144 0.361188 0.566712
C49   C     C_R   0.983793 0.575328 0.553248 -0.075769
C50   C     C_R   0.938816 0.534960 0.414472 -0.084129
C51   C     C_R   0.483734 0.075328 0.553221 -0.076113
C52   C     C_R   0.438780 0.034940 0.414437 -0.084051
C53   C     C_R   0.957090 0.671983 0.512583 -0.131652
C54   C     C_R   0.932219 0.650880 0.443993 -0.118437
C55   C     C_R   0.457034 0.171975 0.512546 -0.131650
C56   C     C_R   0.432176 0.150863 0.443952 -0.118384
C57   C     C_R   0.756443 0.090771 0.079735 -0.010006
C58   C     C_R   0.248824 0.089116 0.921036 -0.016116
C59   C     C_R   0.257665 0.589419 0.079743 -0.006845
C60   C     C_R   0.748302 0.589852 0.920881 -0.012739
C61   C     C_R   0.817556 0.056091 0.042633 0.042684
C62   C     C_R   0.182718 0.086025 0.953546 0.048200
C63   C     C_R   0.316667 0.548186 0.041505 0.051291
C64   C     C_R   0.682417 0.584094 0.953914 0.051779
C65   C     C_R   0.817730 0.060372 0.969278 -0.017684
C66   C     C_R   0.177876 0.092991 0.026893 -0.000653
C67   C     C_R   0.315396 0.551361 0.968279 -0.022122
C68   C     C_R   0.678060 0.590238 0.027202 0.000265
C69   C     C_R   0.705710 0.159970 0.967203 -0.164283
C70   C     C_R   0.302705 0.123565 0.037683 -0.179482
C71   C     C_R   0.208944 0.666173 0.968299 -0.156525
C72   C     C_R   0.801968 0.629180 0.037145 -0.180749
C73   C     C_R   0.703844 0.154477 0.042067 -0.173307
C74   C     C_R   0.307829 0.118824 0.963256 -0.170886
C75   C     C_R   0.207902 0.660568 0.043237 -0.161853
C76   C     C_R   0.806914 0.623923 0.962666 -0.168424
C77   C     C_3   0.857917 0.936850 0.041457 0.154060
C78   C     C_3   0.124373 0.992954 0.949870 0.160590
C79   C     C_3   0.354229 0.426427 0.039929 0.155818
C80   C     C_3   0.623981 0.490929 0.950554 0.159484
C81   C     C_3   0.854579 0.941990 0.960730 -0.213742
C82   C     C_3   0.120320 0.999995 0.030615 -0.184744
C83   C     C_3   0.349005 0.430532 0.959124 -0.216842
C84   C     C_3   0.621271 0.496124 0.031447 -0.187555
C85   C     C_R   0.761369 0.105578 0.929983 0.007830
C86   C     C_R   0.237582 0.104469 0.070400 0.002090
C87   C     C_R   0.260893 0.604032 0.929804 0.005280
C88   C     C_R   0.737624 0.605071 0.070359 0.004913
C89   C     C_R   0.971007 0.347928 0.645928 0.521926
C90   C     C_R   0.026155 0.343899 0.351597 0.521625
C91   C     C_R   0.470995 0.847929 0.645919 0.530515
C92   C     C_R   0.526148 0.843899 0.351590 0.521827
C93   C     C_R   0.011085 0.344873 0.072267 0.005392
C94   C     C_R   0.999459 0.334561 0.923998 0.027568
C95   C     C_R   0.486590 0.844162 0.082065 0.002120
C96   C     C_R   0.449062 0.846022 0.937235 0.010204
C97   C     C_R   0.037540 0.438879 0.029016 0.045828
C98   C     C_R   0.033355 0.433613 0.955932 0.009210
C99   C     C_R   0.474144 0.954537 0.045761 0.019164
C100  C     C_R   0.456690 0.955265 0.974533 0.010098
C101  C     C_R   0.977810 0.234798 0.966945 -0.080357
C102  C     C_R   0.984663 0.239370 0.040830 -0.162384
C103  C     C_R   0.450313 0.735047 0.975715 -0.107644
C104  C     C_R   0.468768 0.734210 0.048342 -0.140535
C105  C     C_3   0.020233 0.571870 0.030691 -0.252656
C106  C     C_3   0.019186 0.568211 0.950159 -0.265220
C107  C     C_3   0.522091 0.062615 0.036927 -0.262964
C108  C     C_3   0.503969 0.062138 0.958619 -0.262900
C109  C     C_R   0.760208 0.533702 0.851767 0.542217
C110  C     C_R   0.240722 0.534093 0.148511 0.541087
C111  C     C_R   0.260271 0.033623 0.851757 0.534061
C112  C     C_R   0.740494 0.034118 0.148418 0.539591
C113  C     C_R   0.773395 0.128570 0.854466 0.557959
C114  C     C_R   0.226495 0.128015 0.145764 0.555600
C115  C     C_R   0.273299 0.628297 0.854405 0.549079
C116  C     C_R   0.726487 0.628150 0.145742 0.555994
C117  C     C_R   0.969961 0.346237 0.853560 0.549704
C118  C     C_R   0.030232 0.347550 0.146260 0.542664
C119  C     C_R   0.436779 0.851041 0.860658 0.574891
C120  C     C_R   0.528225 0.847373 0.147294 0.544861
C121  C     C_R   0.759552 0.107480 0.416356 0.003679
C122  C     C_R   0.252305 0.079581 0.575534 0.034656
C123  C     C_R   0.259554 0.607478 0.416357 0.003827
C124  C     C_R   0.752308 0.579583 0.575531 0.035038
C125  C     C_R   0.710952 0.176958 0.454383 0.011993
C126  C     C_R   0.202804 0.168930 0.559685 0.008271
C127  C     C_R   0.210959 0.676971 0.454382 0.012001
C128  C     C_R   0.702794 0.668909 0.559680 0.008597
C129  C     C_R   0.722459 0.202833 0.525959 0.025730
C130  C     C_R   0.189196 0.199369 0.489166 0.014028
C131  C     C_R   0.222468 0.702850 0.525957 0.025813
C132  C     C_R   0.689186 0.699345 0.489161 0.013916
Cr1   Cr    Cr6+3 0.885860 0.491680 0.749630 0.997620
Cr2   Cr    Cr6+3 0.114140 0.491680 0.250370 1.001443
Cr3   Cr    Cr6+3 0.385860 0.991680 0.749630 0.993343
Cr4   Cr    Cr6+3 0.614140 0.991680 0.250370 0.998286
Cr5   Cr    Cr6+3 0.730490 0.332970 0.748720 0.984352
Cr6   Cr    Cr6+3 0.269510 0.332970 0.251280 0.974339
Cr7   Cr    Cr6+3 0.230490 0.832970 0.748720 0.975178
Cr8   Cr    Cr6+3 0.769510 0.832970 0.251280 0.974075
Cr9   Cr    Cr6+3 0.887570 0.179310 0.750150 0.982506
Cr10  Cr    Cr6+3 0.112430 0.179310 0.249850 0.992389
Cr11  Cr    Cr6+3 0.387570 0.679310 0.750150 0.978601
Cr12  Cr    Cr6+3 0.612430 0.679310 0.249850 0.991980
H1    H     H_    0.886741 0.088298 0.544284 0.157843
H2    H     H_    0.288945 0.984673 0.407069 0.129005
H3    H     H_    0.386735 0.588256 0.544291 0.157749
H4    H     H_    0.788979 0.484710 0.407068 0.128924
H5    H     H_    0.956057 0.763493 0.534357 0.106243
H6    H     H_    0.910352 0.725241 0.412690 0.121641
H7    H     H_    0.455996 0.263489 0.534315 0.106348
H8    H     H_    0.410312 0.225219 0.412642 0.121700
H9    H     H_    0.662545 0.201320 0.938496 0.117792
H10   H     H_    0.349477 0.140002 0.069415 0.127030
H11   H     H_    0.168383 0.714891 0.940361 0.111507
H12   H     H_    0.848325 0.649159 0.068681 0.115047
H13   H     H_    0.658309 0.189367 0.069649 0.122542
H14   H     H_    0.358838 0.128727 0.939162 0.144734
H15   H     H_    0.166086 0.703972 0.072290 0.114867
H16   H     H_    0.857589 0.637075 0.938438 0.133291
H17   H     H_    0.828700 0.857518 0.063631 0.144540
H18   H     H_    0.140263 0.901437 0.931622 0.121377
H19   H     H_    0.323682 0.350054 0.063648 0.145203
H20   H     H_    0.639447 0.399098 0.931485 0.122204
H21   H     H_    0.906519 0.952447 0.934229 0.185184
H22   H     H_    0.070654 0.038898 0.051076 0.198627
H23   H     H_    0.400458 0.437195 0.931258 0.180338
H24   H     H_    0.571767 0.533688 0.053010 0.188457
H25   H     H_    0.819786 0.871144 0.936941 0.100325
H26   H     H_    0.137059 0.914522 0.058033 0.084601
H27   H     H_    0.311722 0.362499 0.936494 0.102696
H28   H     H_    0.639159 0.410424 0.057927 0.087741
H29   H     H_    0.950571 0.157466 0.944087 0.189773
H30   H     H_    0.966912 0.163978 0.073659 0.172399
H31   H     H_    0.442315 0.649212 0.948656 0.193418
H32   H     H_    0.474826 0.648374 0.076295 0.171880
H33   H     H_    0.062819 0.628702 0.052872 0.146694
H34   H     H_    0.967278 0.591795 0.927945 0.158990
H35   H     H_    0.577721 0.038175 0.047022 0.162637
H36   H     H_    0.475750 0.145899 0.941315 0.137385
H37   H     H_    0.967799 0.589276 0.054434 0.132406
H38   H     H_    0.063375 0.618363 0.924801 0.130743
H39   H     H_    0.502718 0.144821 0.065413 0.145889
H40   H     H_    0.549488 0.037556 0.924445 0.157865
H41   H     H_    0.866989 0.040640 0.419361 0.139122
H42   H     H_    0.315441 0.932972 0.532243 0.123168
H43   H     H_    0.366982 0.540599 0.419370 0.139295
H44   H     H_    0.815476 0.433016 0.532242 0.123212
H45   H     H_    0.115510 0.565301 0.454262 0.160090
H46   H     H_    0.754529 0.832264 0.601423 0.154895
H47   H     H_    0.615505 0.065276 0.454260 0.160161
H48   H     H_    0.254562 0.332263 0.601426 0.154961
H49   H     H_    0.602959 0.232479 0.438211 0.141782
H50   H     H_    0.157626 0.320203 0.618322 0.133569
H51   H     H_    0.102971 0.732503 0.438209 0.141706
H52   H     H_    0.657594 0.820168 0.618306 0.135532
H53   H     H_    0.622171 0.270127 0.562796 0.138180
H54   H     H_    0.134712 0.371863 0.496287 0.135226
H55   H     H_    0.122186 0.770160 0.562794 0.138223
H56   H     H_    0.634686 0.871829 0.496273 0.135371
H57   H     H_    0.638096 0.103005 0.578678 0.140627
H58   H     H_    0.231655 0.383113 0.479195 0.149052
H59   H     H_    0.138105 0.603038 0.578681 0.140104
H60   H     H_    0.731632 0.883099 0.479189 0.149096
H61   H     H_    0.028614 0.914064 0.449632 0.102550
H62   H     H_    0.054299 0.938922 0.578520 0.103158
H63   H     H_    0.528592 0.414064 0.449604 0.102620
H64   H     H_    0.554284 0.438919 0.578489 0.103369
H65   H     H_    0.993689 0.088692 0.377244 0.126403
H66   H     H_    0.045532 0.137936 0.634285 0.121925
H67   H     H_    0.493660 0.588696 0.377221 0.126795
H68   H     H_    0.545511 0.637930 0.634257 0.124286
H69   H     H_    0.921652 0.521632 0.359793 0.124521
H70   H     H_    0.007259 0.599475 0.603870 0.136669
H71   H     H_    0.421630 0.021605 0.359754 0.124703
H72   H     H_    0.507195 0.099491 0.603841 0.137293
O1    O     O_R   0.957020 0.451640 0.669920 -0.525613
O2    O     O_R   0.042980 0.451640 0.330080 -0.519200
O3    O     O_R   0.457020 0.951640 0.669920 -0.521965
O4    O     O_R   0.542980 0.951640 0.330080 -0.518909
O5    O     O_R   0.736470 0.210100 0.823360 -0.502070
O6    O     O_R   0.263530 0.210100 0.176640 -0.512508
O7    O     O_R   0.236470 0.710100 0.823360 -0.504744
O8    O     O_R   0.763530 0.710100 0.176640 -0.510742
O9    O     O_R   0.831960 0.093290 0.830130 -0.522903
O10   O     O_R   0.168040 0.093290 0.169870 -0.517769
O11   O     O_R   0.331960 0.593290 0.830130 -0.530190
O12   O     O_R   0.668040 0.593290 0.169870 -0.518604
O13   O     O_R   0.945600 0.250580 0.824860 -0.516254
O14   O     O_R   0.054400 0.250580 0.175140 -0.509424
O15   O     O_R   0.445600 0.750580 0.824860 -0.510106
O16   O     O_R   0.554400 0.750580 0.175140 -0.510967
O17   O     O_3   0.834640 0.334650 0.749500 -0.256920
O18   O     O_3   0.165360 0.334650 0.250500 -0.254410
O19   O     O_3   0.334640 0.834650 0.749500 -0.278351
O20   O     O_3   0.665360 0.834650 0.250500 -0.253522
O21   O     O_R   0.821450 0.543440 0.674610 -0.499379
O22   O     O_R   0.178550 0.543440 0.325390 -0.497167
O23   O     O_R   0.321450 0.043440 0.674610 -0.498386
O24   O     O_R   0.678550 0.043440 0.325390 -0.496413
O25   O     O_R   0.715320 0.458650 0.668100 -0.532832
O26   O     O_R   0.284680 0.458650 0.331900 -0.541084
O27   O     O_R   0.215320 0.958650 0.668100 -0.531727
O28   O     O_R   0.784680 0.958650 0.331900 -0.541356
O29   O     O_R   0.737170 0.209590 0.674530 -0.499735
O30   O     O_R   0.262830 0.209590 0.325470 -0.509757
O31   O     O_R   0.237170 0.709590 0.674530 -0.497868
O32   O     O_R   0.762830 0.709590 0.325470 -0.509863
O33   O     O_R   0.832710 0.092740 0.669580 -0.522425
O34   O     O_R   0.167290 0.092740 0.330420 -0.512867
O35   O     O_R   0.332710 0.592740 0.669580 -0.521962
O36   O     O_R   0.667290 0.592740 0.330420 -0.512686
O37   O     O_R   0.946290 0.250060 0.676040 -0.523126
O38   O     O_R   0.053710 0.250060 0.323960 -0.523282
O39   O     O_R   0.446290 0.750060 0.676040 -0.518831
O40   O     O_R   0.553710 0.750060 0.323960 -0.523074
O41   O     O_R   0.956270 0.452200 0.830470 -0.527009
O42   O     O_R   0.043730 0.452200 0.169530 -0.519698
O43   O     O_R   0.456270 0.952200 0.830470 -0.520223
O44   O     O_R   0.543730 0.952200 0.169530 -0.522486
O45   O     O_R   0.820760 0.543950 0.823440 -0.502991
O46   O     O_R   0.179240 0.543950 0.176560 -0.495458
O47   O     O_R   0.320760 0.043950 0.823440 -0.517812
O48   O     O_R   0.679240 0.043950 0.176560 -0.499689
O49   O     O_R   0.714570 0.459210 0.828640 -0.544866
O50   O     O_R   0.285430 0.459210 0.171360 -0.545555
O51   O     O_R   0.214570 0.959210 0.828640 -0.545312
O52   O     O_R   0.785430 0.959210 0.171360 -0.544909
O53   O     O_3   0.928765 0.948934 0.063723 -0.590348
C133  C     C_3   0.935963 0.920957 0.136905 -0.113117
H73   H     H_    0.911197 0.831658 0.151286 0.122721
H74   H     H_    0.914941 0.996476 0.169889 0.146466
H75   H     H_    0.992820 0.913382 0.149431 0.116002
O54   O     O_3   0.062468 0.039173 0.918205 -0.578981
C134  C     C_3   0.061541 0.015302 0.844306 -0.098363
H76   H     H_    0.071990 0.917388 0.832330 0.107350
H77   H     H_    0.099099 0.076585 0.815929 0.146155
H78   H     H_    0.008245 0.035471 0.823398 0.141150
O55   O     O_3   0.425793 0.434767 0.060402 -0.588150
C135  C     C_3   0.434421 0.404995 0.133198 -0.117599
H79   H     H_    0.408308 0.316994 0.147818 0.122036
H80   H     H_    0.415844 0.481108 0.167210 0.148249
H81   H     H_    0.491398 0.393762 0.144041 0.112574
O56   O     O_3   0.561561 0.539142 0.920677 -0.570985
C136  C     C_3   0.558240 0.513465 0.847041 -0.088934
H82   H     H_    0.566917 0.414792 0.835645 0.098120
H83   H     H_    0.596034 0.572039 0.817080 0.149648
H84   H     H_    0.504725 0.535429 0.827421 0.148257

loop_
_geom_bond_atom_site_label_1
_geom_bond_atom_site_label_2
_ccdc_geom_bond_type
Cr9   O33   S    
Cr7   O31   S    
C47   O31   A    
C2    C123  S    
Cr11  O35   S    
C116  O12   A    
O56   C136  S    
C6    H2    S    
C94   C117  S    
C95   C99   A    
C29   C33   A    
O54   C134  S    
C46   O34   A    
C35   C36   A    
C83   H27   S    
C70   C74   A    
C9    C121  A    
C17   H53   S    
C81   H25   S    
C112  O52   A    
C87   C115  S    
C119  O15   A    
C106  H34   S    
C97   C105  S    
C14   H50   S    
C15   C127  S    
C22   C130  A    
C19   C131  S    
Cr2   O22   S    
C20   C132  S    
C41   C49   A    
C108  H40   S    
C23   C47   S    
Cr11  O11   S    
C62   C66   A    
C120  O44   A    
C60   C76   A    
C52   H71   S    
Cr8   O28   S    
C48   O36   A    
C43   C44   A    
C115  O11   A    
C37   C38   A    
C84   H24   S    
C66   C82   S    
C78   C82   S    
C113  O9    A    
Cr2   O42   S    
C19   H59   S    
Cr4   O44   S    
C17   H57   S    
C113  O5    A    
C112  O48   A    
Cr4   O24   S    
Cr7   O19   S    
C133  H74   S    
C18   C130  S    
Cr7   O7    S    
Cr7   O51   S    
C107  H35   S    
C93   C102  A    
C105  H33   S    
C10   C122  A    
C14   C126  S    
C57   C61   A    
C118  O42   A    
C59   C63   A    
C98   C106  S    
C60   C64   A    
C1    C124  S    
C111  O51   A    
C136  H83   S    
C91   O39   A    
C49   C53   A    
C51   C55   A    
C127  C131  A    
C61   C65   A    
C5    C21   A    
C48   O32   A    
C126  C130  A    
C51   H72   S    
C88   C116  S    
C72   H12   S    
C101  H29   S    
C120  O16   A    
C97   C98   A    
C104  H32   S    
C53   C54   A    
Cr1   O45   S    
C33   H61   S    
C25   C90   S    
C64   C68   A    
Cr10  O14   S    
Cr6   O6    S    
C73   H13   S    
C36   H64   S    
C57   C73   A    
C20   H56   S    
C60   C109  S    
C45   O33   A    
C27   C44   A    
C61   C77   S    
C29   C38   A    
C107  C108  S    
Cr7   O27   S    
C47   O35   A    
C14   H48   S    
C44   C52   A    
C15   H45   S    
Cr11  O39   S    
C53   H5    S    
Cr1   O21   S    
C21   C45   S    
C100  C108  S    
C5    H1    S    
C30   C34   A    
C24   C48   S    
C134  H78   S    
C135  H79   S    
C46   O30   A    
C109  O49   A    
C39   C40   A    
Cr8   O8    S    
C50   H69   S    
C1    O21   A    
C83   H23   S    
C121  C125  A    
C125  C129  A    
C25   C38   A    
Cr5   O29   S    
C123  C127  A    
C27   C40   A    
C8    C12   A    
Cr2   O18   S    
C23   C131  A    
C2    O26   A    
C21   C129  A    
C42   C50   A    
C90   O38   A    
Cr9   O17   S    
C77   O53   S    
C78   O54   S    
C93   C97   A    
C69   C85   A    
C58   C74   A    
Cr8   O32   S    
C62   C78   S    
C84   H28   S    
C66   C86   A    
C29   H65   S    
Cr3   O43   S    
Cr10  O38   S    
C13   C17   S    
C85   C113  S    
Cr5   O25   S    
C7    C23   A    
C96   C100  A    
C117  O13   A    
C10   H42   S    
C28   C91   S    
C90   O2    A    
Cr11  O15   S    
C4    O28   A    
C58   C62   A    
C119  O43   A    
C55   C56   A    
C101  C102  A    
C41   C42   A    
C96   C119  S    
C134  H76   S    
C135  H81   S    
C80   C84   S    
C15   C19   S    
Cr12  O40   S    
C5    C9    A    
C50   C54   A    
C115  O7    A    
C94   C98   A    
Cr9   O13   S    
C6    C22   A    
Cr5   O5    S    
C31   C40   A    
C32   C39   A    
C80   H20   S    
C7    H3    S    
C18   H54   S    
O55   C135  S    
Cr8   O52   S    
C69   C73   A    
C56   H8    S    
C124  C128  A    
C15   H51   S    
Cr1   O41   S    
C13   H49   S    
O53   C133  S    
C11   H43   S    
C64   C80   S    
C133  H75   S    
C8    H4    S    
Cr10  O10   S    
C77   H17   S    
C74   H14   S    
C58   C111  S    
C68   C84   S    
C20   H60   S    
C54   H6    S    
C45   O29   A    
Cr12  O20   S    
C28   C39   A    
Cr2   O2    S    
C49   H70   S    
C69   H9    S    
C30   C37   A    
C116  O8    A    
C136  H82   S    
C16   H52   S    
C114  O10   A    
C24   C132  A    
C65   C81   S    
C77   C81   S    
C71   H11   S    
C103  H31   S    
C4    O24   A    
C18   H58   S    
Cr1   O17   S    
C114  O6    A    
C16   H46   S    
C71   C87   A    
C92   O40   A    
C35   H63   S    
C22   C46   S    
C80   O56   S    
Cr3   O19   S    
Cr6   O18   S    
C109  O45   A    
C32   C36   A    
C110  O50   A    
C82   H22   S    
C19   H55   S    
Cr12  O16   S    
C11   C123  A    
C25   C42   A    
C6    C10   A    
C26   C37   A    
Cr4   O4    S    
C95   C120  S    
C99   C107  S    
C105  C106  S    
C28   C43   A    
Cr9   O37   S    
C79   C83   S    
C43   C51   A    
C4    C121  S    
C79   O55   S    
C96   C103  A    
C103  C104  A    
Cr8   O20   S    
C133  H73   S    
C13   C125  S    
C3    O23   A    
C82   H26   S    
Cr3   O47   S    
Cr10  O34   S    
Cr4   O48   S    
C14   C18   S    
C72   C76   A    
C63   C79   S    
C34   H62   S    
C26   C89   S    
C7    C11   A    
Cr6   O30   S    
C134  H77   S    
C135  H80   S    
C136  H84   S    
C9    H41   S    
C32   H68   S    
C57   C112  S    
C12   H44   S    
Cr4   O20   S    
C59   C110  S    
C108  H36   S    
Cr11  O19   S    
C92   O4    A    
C106  H38   S    
C8    C24   A    
Cr5   O49   S    
C94   C101  A    
Cr6   O26   S    
C3    C122  S    
C16   C20   S    
Cr12  O36   S    
Cr2   O46   S    
C89   O37   A    
C128  C132  A    
C72   C88   A    
Cr9   O9    S    
C63   C67   A    
C17   C129  S    
C2    O22   A    
Cr6   O50   S    
Cr1   O1    S    
C107  H39   S    
C122  C126  A    
C117  O41   A    
C99   C100  A    
C12   C124  A    
Cr3   O3    S    
C33   C34   A    
C27   C92   S    
C3    O27   A    
C67   C83   S    
C16   C128  S    
C111  O47   A    
C1    O25   A    
C78   H18   S    
C68   C88   A    
C93   C118  S    
Cr5   O17   S    
C70   C86   A    
C59   C75   A    
C95   C104  A    
C75   H15   S    
C55   H7    S    
C76   H16   S    
C70   H10   S    
C79   H19   S    
C30   H66   S    
C65   C85   A    
C102  H30   S    
C67   C87   A    
C13   H47   S    
C86   C114  S    
C105  H37   S    
C71   C75   A    
C118  O14   A    
Cr3   O23   S    
C31   C35   A    
C91   O3    A    
C110  O46   A    
C89   O1    A    
Cr10  O18   S    
C31   H67   S    
C81   H21   S    
Cr12  O12   S    
C52   C56   A    
C26   C41   A    
