data_mof_unit_27824.cif
_audit_creation_date              2012-12-11T14:41:13-0500
_audit_creation_method            fapswitch 2.2
_symmetry_space_group_name_H-M    P1
_symmetry_Int_Tables_number       1
_space_group_crystal_system       triclinic
_cell_length_a                    24.76482
_cell_length_b                    17.697557
_cell_length_c                    15.619386
_cell_angle_alpha                 90.148216
_cell_angle_beta                  129.719404
_cell_angle_gamma                 90.442486
_cell_volume                      5265.12291728

loop_
_atom_site_label
_atom_site_type_symbol
_atom_type_description
_atom_site_fract_x
_atom_site_fract_y
_atom_site_fract_z
_atom_type_partial_charge
C1    C     C_R   0.335998 0.385830 0.200600 0.503885
C2    C     C_R   0.338873 0.617401 0.204803 0.485544
C3    C     C_R   0.835994 0.885837 0.200591 0.503852
C4    C     C_R   0.838877 0.117414 0.204818 0.485463
C5    C     C_R   0.643509 0.364386 0.852903 0.099466
C6    C     C_R   0.624627 0.676422 0.798315 0.110952
C7    C     C_R   0.143513 0.864386 0.852906 0.099499
C8    C     C_R   0.124643 0.176406 0.798353 0.110954
C9    C     C_R   0.677139 0.366373 0.502428 0.203671
C10   C     C_R   0.684630 0.618443 0.502738 0.275239
C11   C     C_R   0.177091 0.866276 0.502432 0.203652
C12   C     C_R   0.184633 0.118439 0.502744 0.275269
C13   C     C_R   0.327063 0.364987 0.505379 -0.027007
C14   C     C_R   0.348844 0.669505 0.504441 0.077637
C15   C     C_R   0.827059 0.864992 0.505378 -0.026995
C16   C     C_R   0.848866 0.169541 0.504429 0.077641
C17   C     C_3   0.338150 0.260583 0.624423 0.230456
C18   C     C_3   0.349112 0.760421 0.630342 0.184849
C19   C     C_3   0.838152 0.760575 0.624410 0.230488
C20   C     C_3   0.849168 0.260534 0.630306 0.184826
C21   C     C_3   0.795628 0.698840 0.628526 0.273293
C22   C     C_3   0.802747 0.323250 0.623110 0.239963
C23   C     C_3   0.295627 0.198845 0.628537 0.273280
C24   C     C_3   0.302686 0.823120 0.623157 0.239925
C25   C     C_3   0.222329 0.321342 0.474924 -0.424013
C26   C     C_3   0.242669 0.684533 0.478673 -0.501950
C27   C     C_3   0.722333 0.821353 0.474954 -0.423980
C28   C     C_3   0.742729 0.184590 0.478762 -0.501968
C29   C     C_3   0.276824 0.235299 0.417927 0.153606
C30   C     C_3   0.292381 0.798452 0.436282 0.295085
C31   C     C_3   0.776796 0.735316 0.417890 0.153582
C32   C     C_3   0.792369 0.298474 0.436186 0.295083
C33   C     C_3   0.291876 0.296708 0.505017 -0.144441
C34   C     C_3   0.309279 0.727120 0.510227 -0.142185
C35   C     C_3   0.791870 0.796714 0.505012 -0.144456
C36   C     C_3   0.809309 0.227177 0.510211 -0.142148
C37   C     C_3   0.727963 0.678396 0.505985 -0.322954
C38   C     C_3   0.725862 0.318205 0.505666 -0.318051
C39   C     C_3   0.227969 0.178391 0.505994 -0.322960
C40   C     C_3   0.225818 0.818121 0.505675 -0.318044
C41   C     C_3   0.680171 0.751221 0.457942 0.212256
C42   C     C_3   0.699026 0.235788 0.491361 0.260419
C43   C     C_3   0.180173 0.251212 0.457934 0.212223
C44   C     C_3   0.198951 0.735709 0.491257 0.260408
C45   C     C_R   0.665044 0.387562 0.794032 -0.069685
C46   C     C_R   0.653692 0.635320 0.761741 -0.076907
C47   C     C_R   0.165045 0.887565 0.794033 -0.069769
C48   C     C_R   0.153698 0.135313 0.761755 -0.076941
C49   C     C_3   0.750452 0.659832 0.432954 0.705959
C50   C     C_3   0.726922 0.336175 0.406690 0.652633
C51   C     C_3   0.250469 0.159821 0.432980 0.705988
C52   C     C_3   0.226930 0.836156 0.406769 0.652653
C53   C     C_2   0.687405 0.327824 0.960332 -0.084481
C54   C     C_2   0.653302 0.748274 0.859943 -0.054865
C55   C     C_2   0.187415 0.827822 0.960338 -0.084466
C56   C     C_2   0.153336 0.248245 0.860012 -0.054910
C57   C     C_2   0.756073 0.322039 0.015728 -0.102508
C58   C     C_2   0.702563 0.786222 0.865150 -0.114721
C59   C     C_2   0.256082 0.822032 0.015720 -0.102557
C60   C     C_2   0.202561 0.286220 0.865159 -0.114735
C61   C     C_2   0.340552 0.722905 0.099107 -0.144182
C62   C     C_2   0.315300 0.326978 0.031546 -0.167085
C63   C     C_2   0.840577 0.222945 0.099174 -0.144250
C64   C     C_2   0.815296 0.826997 0.031530 -0.167099
C65   C     C_2   0.293143 0.762178 0.094696 0.012303
C66   C     C_2   0.246941 0.341709 0.953287 -0.033051
C67   C     C_2   0.793123 0.262176 0.094689 0.012407
C68   C     C_2   0.746932 0.841710 0.953278 -0.033039
C69   C     C_R   0.611087 0.387203 0.408111 -0.084139
C70   C     C_R   0.615768 0.602100 0.409417 -0.058710
C71   C     C_R   0.111055 0.887140 0.408109 -0.084066
C72   C     C_R   0.115771 0.102096 0.409421 -0.058690
C73   C     C_R   0.392094 0.390427 0.595736 -0.132673
C74   C     C_R   0.403232 0.629869 0.595059 -0.171740
C75   C     C_R   0.892092 0.890429 0.595736 -0.132659
C76   C     C_R   0.903249 0.129899 0.595053 -0.171722
C77   C     C_R   0.685901 0.390018 0.594436 0.002757
C78   C     C_R   0.689651 0.599930 0.593218 -0.041207
C79   C     C_R   0.185871 0.889956 0.594443 0.002834
C80   C     C_R   0.189652 0.099928 0.593221 -0.041135
C81   C     C_R   0.313551 0.395582 0.412177 0.587928
C82   C     C_R   0.327373 0.630899 0.409287 0.519566
C83   C     C_R   0.813550 0.895585 0.412177 0.587886
C84   C     C_R   0.827380 0.130911 0.409282 0.519521
C85   C     C_R   0.574950 0.387169 0.796086 -0.024700
C86   C     C_R   0.565448 0.636632 0.767508 -0.048207
C87   C     C_R   0.074953 0.887168 0.796089 -0.024710
C88   C     C_R   0.065462 0.136618 0.767540 -0.048165
C89   C     C_R   0.427373 0.384964 0.203407 -0.171253
C90   C     C_R   0.435409 0.628281 0.220922 -0.132274
C91   C     C_R   0.927368 0.884975 0.203394 -0.171299
C92   C     C_R   0.935417 0.128296 0.220944 -0.132254
C93   C     C_R   0.358016 0.362742 0.142058 -0.002340
C94   C     C_R   0.369476 0.656233 0.168004 0.001235
C95   C     C_R   0.858009 0.862757 0.142040 -0.002303
C96   C     C_R   0.869487 0.156256 0.168036 0.001297
H1    H     H_    0.277852 0.224158 0.672047 0.092074
H2    H     H_    0.301849 0.810738 0.691836 0.130118
H3    H     H_    0.777860 0.724154 0.672047 0.092053
H4    H     H_    0.801947 0.310914 0.691838 0.130134
H5    H     H_    0.233804 0.358149 0.542916 0.220338
H6    H     H_    0.258576 0.633257 0.530816 0.233461
H7    H     H_    0.733824 0.858141 0.542976 0.220302
H8    H     H_    0.758666 0.133339 0.530966 0.233444
H9    H     H_    0.326198 0.225381 0.431883 0.173508
H10   H     H_    0.336452 0.839540 0.488876 0.198154
H11   H     H_    0.826158 0.725402 0.431802 0.173484
H12   H     H_    0.836430 0.339580 0.488721 0.198135
H13   H     H_    0.637322 0.743114 0.366800 0.174923
H14   H     H_    0.642844 0.230239 0.415489 0.181773
H15   H     H_    0.137322 0.243094 0.366794 0.174891
H16   H     H_    0.142779 0.730191 0.415346 0.181744
H17   H     H_    0.274792 0.743708 0.138440 0.215730
H18   H     H_    0.221976 0.387346 0.962183 0.224358
H19   H     H_    0.774725 0.243657 0.138341 0.215749
H20   H     H_    0.721956 0.887329 0.962177 0.224345
H21   H     H_    0.358706 0.740732 0.054638 0.158897
H22   H     H_    0.339268 0.282535 0.018011 0.163410
H23   H     H_    0.858781 0.240822 0.054799 0.158900
H24   H     H_    0.839271 0.782568 0.017992 0.163387
H25   H     H_    0.662170 0.297672 0.987238 0.197207
H26   H     H_    0.638296 0.767013 0.908425 0.201634
H27   H     H_    0.162186 0.797677 0.987260 0.197207
H28   H     H_    0.138370 0.266955 0.908549 0.201635
H29   H     H_    0.417880 0.386605 0.683236 0.147655
H30   H     H_    0.423777 0.633862 0.679936 0.149035
H31   H     H_    0.917880 0.886604 0.683236 0.147633
H32   H     H_    0.923800 0.133919 0.679930 0.148996
H33   H     H_    0.731916 0.389349 0.681238 0.115785
H34   H     H_    0.734501 0.602028 0.680265 0.139309
H35   H     H_    0.231880 0.889273 0.681245 0.115789
H36   H     H_    0.234500 0.102025 0.680269 0.139318
H37   H     H_    0.545678 0.384914 0.825701 0.124731
H38   H     H_    0.534717 0.651385 0.791564 0.142779
H39   H     H_    0.045681 0.884912 0.825705 0.124715
H40   H     H_    0.034742 0.151362 0.791620 0.142682
H41   H     H_    0.457920 0.383626 0.176019 0.157897
H42   H     H_    0.471162 0.642105 0.205682 0.145022
H43   H     H_    0.957911 0.883644 0.176000 0.157882
H44   H     H_    0.971175 0.142129 0.205718 0.145008
N1    N     N_R   0.389430 0.421450 0.294590 -0.102196
N2    N     N_R   0.389430 0.578550 0.294590 -0.102185
N3    N     N_R   0.889430 0.921450 0.294590 -0.102193
N4    N     N_R   0.889430 0.078550 0.294590 -0.102185
N5    N     N_R   0.612200 0.424040 0.705410 -0.055618
N6    N     N_R   0.612200 0.575960 0.705410 -0.057281
N7    N     N_R   0.112200 0.924040 0.705410 -0.055619
N8    N     N_R   0.112200 0.075960 0.705410 -0.057276
N9    N     N_R   0.581780 0.422390 0.443390 -0.061445
N10   N     N_R   0.581780 0.577610 0.443390 -0.051576
N11   N     N_R   0.081780 0.922390 0.443390 -0.061448
N12   N     N_R   0.081780 0.077610 0.443390 -0.051582
N13   N     N_R   0.419850 0.423100 0.556610 -0.079325
N14   N     N_R   0.419850 0.576900 0.556610 -0.085440
N15   N     N_R   0.919850 0.923100 0.556610 -0.079320
N16   N     N_R   0.919850 0.076900 0.556610 -0.085434
N17   N     N_R   0.627410 0.423100 0.556610 -0.066999
N18   N     N_R   0.627410 0.576900 0.556610 -0.058383
N19   N     N_R   0.127410 0.923100 0.556610 -0.067028
N20   N     N_R   0.127410 0.076900 0.556610 -0.058390
N21   N     N_R   0.374220 0.422390 0.443390 -0.108738
N22   N     N_R   0.374220 0.577610 0.443390 -0.102818
N23   N     N_R   0.874220 0.922390 0.443390 -0.108739
N24   N     N_R   0.874220 0.077610 0.443390 -0.102816
N25   N     N_R   0.555000 0.424040 0.705410 -0.054584
N26   N     N_R   0.555000 0.575960 0.705410 -0.060135
N27   N     N_R   0.055000 0.924040 0.705410 -0.054581
N28   N     N_R   0.055000 0.075960 0.705410 -0.060135
N29   N     N_R   0.446630 0.421450 0.294590 -0.078149
N30   N     N_R   0.446630 0.578550 0.294590 -0.078103
N31   N     N_R   0.946630 0.921450 0.294590 -0.078143
N32   N     N_R   0.946630 0.078550 0.294590 -0.078104
Ni1   Ni    Ni4+2 0.382890 0.500000 0.370170 0.361246
Ni2   Ni    Ni4+2 0.882890 0.000000 0.370170 0.361250
Ni3   Ni    Ni4+2 0.618740 0.500000 0.629830 0.247183
Ni4   Ni    Ni4+2 0.118740 0.000000 0.629830 0.247217
Ni5   Ni    Ni4+2 0.514090 0.500000 0.370170 0.248139
Ni6   Ni    Ni4+2 0.014090 0.000000 0.370170 0.248162
Ni7   Ni    Ni4+2 0.487550 0.500000 0.629830 0.226803
Ni8   Ni    Ni4+2 0.987550 0.000000 0.629830 0.226803
Cl1   Cl    Cl    0.249878 0.381780 0.151344 -0.473849
Cl2   Cl    Cl    0.253669 0.579649 0.104979 -0.462125
Cl3   Cl    Cl    0.749877 0.881783 0.151346 -0.473858
Cl4   Cl    Cl    0.753670 0.079669 0.104984 -0.462158
Cl5   Cl    Cl    0.421647 0.227846 0.668114 -0.477918
Cl6   Cl    Cl    0.437683 0.792405 0.696972 -0.519656
Cl7   Cl    Cl    0.921638 0.727830 0.668061 -0.477861
Cl8   Cl    Cl    0.937726 0.292513 0.696843 -0.519549
Cl9   Cl    Cl    0.849849 0.621049 0.717831 -0.408190
Cl10  Cl    Cl    0.839522 0.417430 0.653820 -0.386255
Cl11  Cl    Cl    0.349851 0.121059 0.717853 -0.408130
Cl12  Cl    Cl    0.339490 0.917297 0.653995 -0.386426
Cl13  Cl    Cl    0.637425 0.770940 0.515312 -0.621457
Cl14  Cl    Cl    0.700828 0.203977 0.602705 -0.616252
Cl15  Cl    Cl    0.137427 0.270941 0.515301 -0.621463
Cl16  Cl    Cl    0.200684 0.703839 0.602505 -0.616132
Cl17  Cl    Cl    0.715287 0.767658 0.275828 -0.472015
Cl18  Cl    Cl    0.793622 0.293566 0.322754 -0.519526
Cl19  Cl    Cl    0.215356 0.267622 0.275862 -0.472096
Cl20  Cl    Cl    0.293672 0.793589 0.322884 -0.519445
Cl21  Cl    Cl    0.819649 0.592165 0.496754 -0.317640
Cl22  Cl    Cl    0.730185 0.435076 0.387318 -0.409524
Cl23  Cl    Cl    0.319663 0.092152 0.496795 -0.317663
Cl24  Cl    Cl    0.230244 0.935072 0.387544 -0.409494
Cl25  Cl    Cl    0.683185 0.613962 0.301153 -0.489237
Cl26  Cl    Cl    0.650555 0.300635 0.272266 -0.546253
Cl27  Cl    Cl    0.183203 0.113953 0.301177 -0.489248
Cl28  Cl    Cl    0.150576 0.800691 0.272277 -0.546293
H45   H     H_    0.190063 0.355277 0.397901 0.270068
H46   H     H_    0.207590 0.664018 0.391936 0.273562
H47   H     H_    0.690065 0.855313 0.397950 0.270074
H48   H     H_    0.707637 0.164027 0.392041 0.273562
H49   H     H_    0.716742 0.385169 0.818374 0.100531
H50   H     H_    0.701647 0.647017 0.776035 0.101284
H51   H     H_    0.216744 0.885178 0.818377 0.100506
H52   H     H_    0.201653 0.147011 0.776051 0.101295
H53   H     H_    0.782385 0.351621 0.990609 0.135554
H54   H     H_    0.718984 0.767880 0.818671 0.154013
H55   H     H_    0.282387 0.851602 0.990582 0.135574
H56   H     H_    0.218939 0.267905 0.818623 0.154070
H57   H     H_    0.588161 0.383763 0.322043 0.176474
H58   H     H_    0.590024 0.610863 0.322963 0.150959
H59   H     H_    0.088124 0.883677 0.322041 0.176435
H60   H     H_    0.090031 0.110853 0.322967 0.150948
Cl29  Cl    Cl    0.236014 0.446866 0.318728 -0.456539
Cl30  Cl    Cl    0.242886 0.628462 0.278658 -0.447607
Cl31  Cl    Cl    0.736016 0.946876 0.318739 -0.456458
Cl32  Cl    Cl    0.742874 0.128448 0.278681 -0.447481
H61   H     H_    0.351196 0.304246 0.686703 0.077525
H62   H     H_    0.354779 0.715077 0.684832 0.122493
H63   H     H_    0.851213 0.804230 0.686709 0.077503
H64   H     H_    0.854863 0.215220 0.684856 0.122516

loop_
_geom_bond_atom_site_label_1
_geom_bond_atom_site_label_2
_ccdc_geom_bond_type
C42   H14   S    
C15   C75   A    
N12   N20   A    
C80   H36   S    
C55   C59   D    
C58   H54   S    
C20   C36   S    
C30   Cl20  S    
C70   N10   A    
C16   C84   A    
C29   H9    S    
C25   C43   S    
C48   H52   S    
C10   C78   A    
C26   C44   S    
N22   Ni1   S    
C83   Cl31  S    
C15   C83   A    
C82   Cl30  S    
C17   C23   S    
C11   C71   A    
C81   Cl29  S    
C27   C35   S    
C26   H46   S    
C10   C37   S    
C20   H64   S    
C56   H28   S    
C5    C53   S    
C85   N25   A    
C19   C21   S    
C6    C54   S    
C38   C42   S    
C60   H56   S    
C54   C58   D    
C21   H3    S    
C51   Cl27  S    
C80   N20   A    
C41   Cl13  S    
C22   C38   S    
C13   C81   A    
C92   C96   A    
C63   H23   S    
C74   N14   A    
C43   Cl15  S    
C2    Cl2   S    
N29   Ni5   S    
C42   Cl14  S    
N7    N27   A    
C67   H19   S    
C32   Cl18  S    
C19   Cl7   S    
C39   C51   S    
C4    C96   A    
C28   C42   S    
C37   C41   S    
C26   C34   S    
C7    C87   A    
C8    C88   A    
N5    Ni3   S    
C29   C33   S    
C17   Cl5   S    
C27   C41   S    
C72   N12   A    
C47   H51   S    
C45   H49   S    
N31   Ni6   S    
N24   Ni2   S    
C7    C55   S    
C22   Cl10  S    
C6    C46   A    
C75   H31   S    
C84   N24   A    
N2    N30   A    
C5    C85   A    
N27   Ni8   S    
C12   C72   A    
C60   C66   S    
C41   H13   S    
N14   Ni7   S    
C30   H10   S    
N1    Ni1   S    
N20   Ni4   S    
C8    C56   S    
C31   H11   S    
C31   C49   S    
C15   C35   S    
C90   H42   S    
C86   H38   S    
C90   C94   A    
N2    Ni1   S    
C49   Cl21  S    
C50   Cl22  S    
C54   H26   S    
C55   H27   S    
C72   H60   S    
C44   Cl16  S    
C78   N18   A    
C30   C34   S    
N30   Ni5   S    
C61   H21   S    
C59   H55   S    
C87   H39   S    
C23   Cl11  S    
C2    C94   A    
C22   H4    S    
C88   H40   S    
C24   Cl12  S    
C18   H62   S    
C50   Cl26  S    
C62   C66   D    
C61   C94   S    
N11   Ni6   S    
N5    N25   A    
C12   C80   A    
C82   N22   A    
C88   N28   A    
C40   C52   S    
C5    C45   A    
C63   C96   S    
C76   N16   A    
C1    C93   A    
C56   C60   D    
N13   N21   A    
C52   Cl24  S    
N11   N19   A    
C8    C48   A    
C63   C67   D    
C13   C33   S    
C45   N5    A    
N28   Ni8   S    
C20   Cl8   S    
N21   Ni1   S    
C28   H8    S    
C21   Cl9   S    
C73   H29   S    
N12   Ni6   S    
C79   H35   S    
N6    Ni3   S    
C90   N30   A    
C27   H47   S    
N9    Ni5   S    
C52   Cl28  S    
C3    N3    A    
C17   C33   S    
C9    C77   A    
C4    Cl4   S    
C25   H45   S    
C18   C34   S    
C2    N2    A    
C32   C50   S    
C37   C49   S    
C11   C79   A    
C57   C67   S    
N17   Ni3   S    
N10   Ni5   S    
C91   H43   S    
C10   C70   A    
C58   C68   S    
N7    Ni4   S    
C68   H20   S    
N4    Ni2   S    
C74   H30   S    
C89   H41   S    
N19   Ni4   S    
C32   H12   S    
N25   Ni7   S    
C18   C24   S    
C17   H61   S    
C20   C22   S    
C51   Cl23  S    
C92   H44   S    
C64   C68   D    
C14   C74   A    
C6    C86   A    
C31   Cl17  S    
C71   N11   A    
N15   Ni8   S    
C73   N13   A    
C29   C51   S    
N32   Ni6   S    
C83   N23   A    
C24   C40   S    
C1    Cl1   S    
C66   H18   S    
C23   H1    S    
N1    N29   A    
C16   C76   A    
C65   H17   S    
C46   H50   S    
N14   N22   A    
C64   C95   S    
C13   C73   A    
N13   Ni7   S    
C53   C57   D    
C14   C34   S    
C4    N4    A    
C39   C43   S    
C77   H33   S    
C32   C36   S    
C75   N15   A    
C38   C50   S    
C28   H48   S    
C87   N27   A    
C7    C47   A    
N4    N32   A    
C44   H16   S    
C64   H24   S    
C91   N31   A    
C3    Cl3   S    
N15   N23   A    
C9    C69   A    
C12   C39   S    
C59   C65   S    
C78   H34   S    
C69   N9    A    
C47   N7    A    
C53   H25   S    
C26   H6    S    
N16   N24   A    
C79   N19   A    
N16   Ni8   S    
C29   Cl19  S    
C25   H5    S    
C46   N6    A    
C57   H53   S    
N3    N31   A    
C92   N32   A    
N8    N28   A    
C48   N8    A    
C31   C35   S    
C19   C35   S    
C9    C38   S    
C70   H58   S    
C71   H59   S    
C18   Cl6   S    
C69   H57   S    
C89   C93   A    
C11   C40   S    
C62   H22   S    
C1    N1    A    
C49   Cl25  S    
C89   N29   A    
C24   H2    S    
C43   H15   S    
C61   C65   D    
N18   Ni3   S    
C40   C44   S    
C21   C37   S    
C86   N26   A    
C28   C36   S    
C91   C95   A    
C3    C95   A    
N8    Ni4   S    
C62   C93   S    
C25   C33   S    
C14   C82   A    
C77   N17   A    
C81   N21   A    
N26   Ni7   S    
N6    N26   A    
N3    Ni2   S    
N9    N17   A    
N23   Ni2   S    
C19   H63   S    
C27   H7    S    
C23   C39   S    
N10   N18   A    
C16   C36   S    
C85   H37   S    
C30   C52   S    
C76   H32   S    
C84   Cl32  S    
