data_mof_unit_15196.cif
_audit_creation_date              2012-12-10T17:18:57-0500
_audit_creation_method            fapswitch 2.2
_symmetry_space_group_name_H-M    P1
_symmetry_Int_Tables_number       1
_space_group_crystal_system       triclinic
_cell_length_a                    10.252195
_cell_length_b                    10.548782
_cell_length_c                    13.640695
_cell_angle_alpha                 92.389871
_cell_angle_beta                  100.690646
_cell_angle_gamma                 96.196514
_cell_volume                      1438.26236613

loop_
_atom_site_label
_atom_site_type_symbol
_atom_type_description
_atom_site_fract_x
_atom_site_fract_y
_atom_site_fract_z
_atom_type_partial_charge
C1    C     C_R   0.054863 0.734542 0.496952 0.826558
C2    C     C_2   0.031525 0.075730 0.569442 -0.116735
C3    C     C_2   0.431472 0.514328 0.507089 0.314634
C4    C     C_2   0.568432 0.486191 0.492478 0.315342
C5    C     C_R   0.093326 0.510970 0.685740 0.871298
C6    C     C_R   0.905252 0.484199 0.314302 0.874750
C7    C     C_R   0.139334 0.502516 0.792815 -0.061916
C8    C     C_R   0.847479 0.454639 0.208683 -0.070668
C9    C     C_R   0.113774 0.529455 0.964745 -0.206616
C10   C     C_R   0.846399 0.350223 0.047214 -0.198357
C11   C     C_R   0.063438 0.536194 0.863178 -0.195041
C12   C     C_R   0.948100 0.266063 0.509462 0.830761
C13   C     C_R   0.914210 0.392666 0.143392 -0.212688
C14   C     C_R   0.261638 0.456313 0.824019 -0.235662
C15   C     C_R   0.714463 0.474170 0.177263 -0.205562
C16   C     C_R   0.313034 0.446421 0.925009 0.089865
C17   C     C_R   0.641644 0.422508 0.085344 0.094321
C18   C     C_R   0.239428 0.487847 0.996234 0.171742
C19   C     C_R   0.710466 0.365159 0.017608 0.164636
C20   C     C_R   0.441214 0.407329 0.956687 0.065092
C21   C     C_R   0.503355 0.432272 0.057939 0.067927
C22   C     C_2   0.786540 0.063345 0.492977 0.442298
C23   C     C_R   0.425378 0.466228 0.128358 -0.198291
C24   C     C_2   0.187436 0.929970 0.446800 0.466593
C25   C     C_R   0.510562 0.347082 0.890555 -0.206135
C26   C     C_R   0.294314 0.491243 0.097702 -0.238149
C27   C     C_R   0.642613 0.324362 0.921471 -0.217730
C28   C     C_2   0.092466 0.872330 0.507634 -0.195652
C29   C     C_2   0.923771 0.131116 0.527305 -0.220016
C30   C     C_2   0.031827 0.938477 0.569457 -0.097730
Cl1   Cl    Cl    0.580791 0.356940 0.409832 -0.653881
Cl2   Cl    Cl    0.418867 0.644330 0.589006 -0.604409
H1    H     H_    0.238214 0.519302 0.153381 0.150870
H2    H     H_    0.463763 0.313255 0.815164 0.156157
H3    H     H_    0.127732 0.132686 0.595109 0.198371
H4    H     H_    0.967071 0.888782 0.613838 0.196809
H5    H     H_    0.669518 0.628970 0.587189 0.202595
H6    H     H_    0.330520 0.370621 0.413208 0.204822
H7    H     H_    0.709496 0.114027 0.451830 0.133533
H8    H     H_    0.223025 0.869039 0.393821 0.075117
H9    H     H_    0.692807 0.278172 0.869053 0.157513
H10   H     H_    0.668552 0.530828 0.225964 0.171722
H11   H     H_    0.319242 0.434322 0.768378 0.177819
H12   H     H_    0.017236 0.375446 0.166962 0.165592
H13   H     H_    0.967312 0.570469 0.839967 0.167369
H14   H     H_    0.056536 0.560477 0.018647 0.153301
H15   H     H_    0.899448 0.304384 0.996601 0.152252
H16   H     H_    0.462826 0.471848 0.207964 0.183619
N1    N     N_2   0.322180 0.446120 0.460900 -0.201529
N2    N     N_2   0.677820 0.553880 0.539100 -0.190948
O1    O     O_R   0.935190 0.693030 0.507870 -0.578221
O2    O     O_2   0.227962 0.043744 0.455078 -0.551112
O3    O     O_R   0.064810 0.306970 0.492130 -0.577040
O4    O     O_R   0.142080 0.658430 0.482770 -0.559765
O5    O     O_R   0.857920 0.341570 0.517230 -0.561515
O6    O     O_R   0.969700 0.527180 0.651960 -0.623500
O7    O     O_R   0.030300 0.472820 0.348040 -0.621762
O8    O     O_R   0.176600 0.492580 0.626860 -0.562650
O9    O     O_R   0.823400 0.507420 0.373140 -0.555085
O10   O     O_2   0.757049 0.952447 0.510344 -0.551185
Zn1   Zn    Zn3+2 0.861850 0.523100 0.516760 1.015342
Zn2   Zn    Zn3+2 0.138150 0.476900 0.483240 1.010930

loop_
_geom_bond_atom_site_label_1
_geom_bond_atom_site_label_2
_ccdc_geom_bond_type
C2    H3    S    
O8    Zn2   S    
C1    C28   S    
C1    O4    A    
C24   O2    D    
C8    C13   A    
N1    Zn2   S    
C22   C29   S    
C12   C29   S    
C25   C27   A    
C19   C27   A    
O3    Zn2   S    
C27   H9    S    
C26   H1    S    
C12   O3    A    
C18   C26   A    
O1    Zn1   S    
C30   H4    S    
C25   H2    S    
C2    C30   S    
C28   C30   D    
C3    N1    D    
C23   C26   A    
C9    H14   S    
H6    N1    S    
C7    C11   A    
H5    N2    S    
C9    C11   A    
C6    O7    A    
C5    O8    A    
C2    C29   D    
C22   H7    S    
O5    Zn1   S    
C16   C20   A    
C17   C19   A    
C10   C19   A    
C8    C15   A    
C5    C7    S    
C21   C23   A    
C22   O10   D    
C3    Cl2   S    
C14   C16   A    
C11   H13   S    
C4    Cl1   S    
O9    Zn1   S    
C20   C25   A    
C3    C4    S    
C12   O5    A    
C9    C18   A    
O7    Zn2   S    
C20   C21   A    
C16   C18   A    
C1    O1    A    
C10   H15   S    
C15   C17   A    
N2    Zn1   S    
O6    Zn1   S    
C6    C8    S    
C23   H16   S    
C5    O6    A    
C24   H8    S    
O4    Zn2   S    
C6    O9    A    
C13   H12   S    
C7    C14   A    
C24   C28   S    
C15   H10   S    
C4    N2    D    
C14   H11   S    
C10   C13   A    
C17   C21   A    
