data_mof_unit_44093.cif
_audit_creation_date              2012-12-10T17:11:01-0500
_audit_creation_method            fapswitch 2.2
_symmetry_space_group_name_H-M    P1
_symmetry_Int_Tables_number       1
_space_group_crystal_system       triclinic
_cell_length_a                    11.726721
_cell_length_b                    13.043653
_cell_length_c                    13.392179
_cell_angle_alpha                 92.903337
_cell_angle_beta                  76.930227
_cell_angle_gamma                 100.22245
_cell_volume                      1963.60077583

loop_
_atom_site_label
_atom_site_type_symbol
_atom_type_description
_atom_site_fract_x
_atom_site_fract_y
_atom_site_fract_z
_atom_type_partial_charge
C1    C     C_R   0.521778 0.700733 0.498911 0.810564
C2    C     C_R   0.446347 0.501118 0.977051 0.098303
C3    C     C_R   0.469545 0.532759 0.874147 0.062261
C4    C     C_R   0.532651 0.536263 0.036371 0.036701
C5    C     C_R   0.633653 0.614117 0.997653 0.087595
C6    C     C_R   0.640114 0.659547 0.901782 -0.031112
C7    C     C_R   0.561827 0.616297 0.840585 -0.245170
C8    C     C_R   0.520735 0.494286 0.133331 -0.222951
C9    C     C_R   0.702093 0.601788 0.155972 -0.179369
C10   C     C_R   0.396257 0.483561 0.808335 -0.140939
C11   C     C_R   0.468698 0.186514 0.493336 -0.050129
C12   C     C_R   0.436314 0.495056 0.696056 0.783296
C13   C     C_R   0.533629 0.814438 0.498187 -0.143374
C14   C     C_R   0.629415 0.982464 0.552090 0.163944
C15   C     C_R   0.620152 0.874440 0.543472 -0.200099
C16   C     C_R   0.456250 0.863054 0.457041 -0.097185
C17   C     C_R   0.459694 0.970947 0.470274 0.081805
C18   C     C_R   0.547523 0.031257 0.516862 0.142719
C19   C     C_R   0.551342 0.139174 0.526587 -0.236148
C20   C     C_R   0.380043 0.126365 0.451323 -0.187208
C21   C     C_R   0.376075 0.019998 0.438800 -0.181556
C22   C     C_R   0.947260 0.601894 0.594415 0.079844
C23   C     C_R   0.478982 0.299421 0.498474 0.801622
C24   C     C_R   0.827934 0.590572 0.584657 0.091655
C25   C     C_R   0.854946 0.456766 0.461060 0.025822
C26   C     C_R   0.975394 0.464152 0.467295 -0.064969
C27   C     C_R   0.022952 0.537267 0.534920 0.035965
C28   C     C_R   0.144310 0.543460 0.540472 0.016737
C29   C     C_R   0.169058 0.409721 0.413669 0.359020
C30   C     C_R   0.048708 0.400286 0.406925 -0.113916
C31   C     C_R   0.563459 0.507615 0.304355 0.799237
C32   C     C_R   0.722104 0.642563 0.057345 0.167174
C33   C     C_R   0.599893 0.530933 0.194854 -0.084991
C34   C     C_R   0.289998 0.414870 0.850370 -0.032967
C35   C     C_R   0.259818 0.395029 0.954818 -0.177562
C36   C     C_R   0.336869 0.436053 0.017109 -0.183780
Cu1   Cu    Cu3+1 0.386470 0.492430 0.492410 0.966104
Cu2   Cu    Cu3+1 0.613530 0.507570 0.507590 0.943442
H1    H     H_    0.764295 0.628516 0.204422 0.157996
H2    H     H_    0.315181 0.161673 0.425807 0.155237
H3    H     H_    0.306426 0.976774 0.404770 0.151874
H4    H     H_    0.679758 0.836434 0.574088 0.163967
H5    H     H_    0.182459 0.598183 0.592279 0.145845
H6    H     H_    0.769541 0.639615 0.629660 0.124391
H7    H     H_    0.816372 0.401684 0.409724 0.149472
H8    H     H_    0.449133 0.432862 0.164557 0.139360
H9    H     H_    0.306059 0.417587 0.097024 0.134868
H10   H     H_    0.177333 0.344643 0.988225 0.156686
H11   H     H_    0.569817 0.652616 0.767730 0.149596
H12   H     H_    0.618233 0.187423 0.560244 0.167286
N1    N     N_R   0.215880 0.481050 0.481000 -0.181327
N2    N     N_R   0.784100 0.518950 0.519000 -0.205279
O1    O     O_R   0.419710 0.645650 0.494620 -0.574449
O2    O     O_R   0.611450 0.658430 0.507430 -0.595806
O3    O     O_R   0.357340 0.490460 0.641450 -0.573228
O4    O     O_R   0.549080 0.503250 0.654260 -0.578530
O5    O     O_R   0.388550 0.341570 0.492570 -0.585027
O6    O     O_R   0.580290 0.354350 0.505380 -0.587067
O7    O     O_R   0.450920 0.496750 0.345740 -0.580466
O8    O     O_R   0.642660 0.509540 0.358550 -0.583586
C37   C     C_3   0.725285 0.042984 0.600995 -0.848585
H13   H     H_    0.780809 0.991482 0.623797 0.244419
H14   H     H_    0.784923 0.100562 0.545936 0.236620
H15   H     H_    0.684384 0.083984 0.671045 0.236360
C38   C     C_1   0.376416 0.803409 0.398153 0.260703
N3    N     N_1   0.312933 0.756015 0.351221 -0.274000
C39   C     C_3   0.239962 0.337575 0.343078 -0.778094
H16   H     H_    0.332999 0.342483 0.343764 0.259075
H17   H     H_    0.197431 0.255635 0.361032 0.197028
H18   H     H_    0.238176 0.352183 0.262699 0.187016
C40   C     C_3   0.991414 0.683020 0.667162 -0.899455
H19   H     H_    0.921509 0.728030 0.704902 0.251116
H20   H     H_    0.019622 0.644977 0.727683 0.238521
H21   H     H_    0.067577 0.738826 0.624633 0.243335
C41   C     C_1   0.000771 0.324290 0.336969 0.198969
N4    N     N_1   0.962747 0.263884 0.281384 -0.281820
C42   C     C_1   0.717290 0.755763 0.865764 0.214559
N5    N     N_1   0.777679 0.833388 0.836510 -0.301449
C43   C     C_3   0.839478 0.713091 0.019533 -0.831674
H22   H     H_    0.825790 0.795004 0.018903 0.250613
H23   H     H_    0.902248 0.710840 0.070028 0.226286
H24   H     H_    0.883069 0.687585 0.942093 0.237970
C44   C     C_1   0.211292 0.360816 0.788479 0.266603
N6    N     N_1   0.148241 0.317500 0.739023 -0.266312

loop_
_geom_bond_atom_site_label_1
_geom_bond_atom_site_label_2
_ccdc_geom_bond_type
C24   N2    A    
C23   O6    A    
C14   C18   A    
C35   C36   A    
C4    C8    A    
C42   N5    T    
C11   C19   A    
C26   C27   A    
C29   C30   A    
C18   C19   A    
C3    C7    A    
C5    C6    A    
Cu1   N1    S    
C28   N1    A    
Cu2   N2    S    
C9    H1    S    
C36   H9    S    
C34   C35   A    
C31   O7    A    
C37   H14   S    
C1    O1    A    
C9    C32   A    
Cu2   O6    S    
C16   C17   A    
C31   C33   S    
C5    C32   A    
Cu1   O1    S    
Cu2   O8    S    
C29   C39   S    
C9    C33   A    
C35   H10   S    
C11   C20   A    
C39   H16   S    
C7    H11   S    
C43   H23   S    
C6    C42   S    
C25   C26   A    
C14   C37   S    
C17   C21   A    
C39   H17   S    
C31   O8    A    
C37   H15   S    
C2    C4    A    
C41   N4    T    
Cu1   Cu2   S    
C43   H24   S    
C44   N6    T    
Cu2   O2    S    
C17   C18   A    
C10   C34   A    
C12   O4    A    
Cu1   O7    S    
C10   C12   S    
C1    O2    A    
C21   H3    S    
C26   C30   A    
C22   C27   A    
C13   C15   A    
C24   H6    S    
C22   C24   A    
C1    C13   S    
C34   C44   S    
C25   H7    S    
C22   C40   S    
C40   H20   S    
C29   N1    A    
C2    C36   A    
C23   O5    A    
C15   H4    S    
C4    C5    A    
C40   H21   S    
C6    C7    A    
C28   H5    S    
C39   H18   S    
C2    C3    A    
C25   N2    A    
C40   H19   S    
C3    C10   A    
C32   C43   S    
C30   C41   S    
C19   H12   S    
C20   H2    S    
C11   C23   S    
C8    C33   A    
C37   H13   S    
C8    H8    S    
C12   O3    A    
C43   H22   S    
Cu1   O3    S    
Cu2   O4    S    
C20   C21   A    
C38   N3    T    
C13   C16   A    
C27   C28   A    
C14   C15   A    
C16   C38   S    
Cu1   O5    S    
