data_mof_unit_53330.cif
_audit_creation_date              2012-12-10T17:20:49-0500
_audit_creation_method            fapswitch 2.2
_symmetry_space_group_name_H-M    P1
_symmetry_Int_Tables_number       1
_space_group_crystal_system       triclinic
_cell_length_a                    14.340517
_cell_length_b                    10.870796
_cell_length_c                    9.591459
_cell_angle_alpha                 90.238774
_cell_angle_beta                  89.938631
_cell_angle_gamma                 92.835169
_cell_volume                      1493.39597907

loop_
_atom_site_label
_atom_site_type_symbol
_atom_type_description
_atom_site_fract_x
_atom_site_fract_y
_atom_site_fract_z
_atom_type_partial_charge
C1    C     C_R   0.507099 0.263040 0.500393 0.802031
C2    C     C_R   0.508604 0.063401 0.378252 -0.206789
C3    C     C_R   0.503622 0.936234 0.379737 -0.236637
C4    C     C_R   0.331153 0.499515 0.500092 0.823809
C5    C     C_R   0.493776 0.872474 0.505934 -0.088653
C6    C     C_R   0.626183 0.661526 0.144044 -0.288654
C7    C     C_R   0.693638 0.734627 0.072728 0.346238
C8    C     C_R   0.694824 0.730885 0.927817 0.390959
C9    C     C_R   0.627368 0.659376 0.856623 -0.254318
C10   C     C_R   0.561278 0.580215 0.925594 0.037754
C11   C     C_R   0.561006 0.580634 0.074746 0.155021
C12   C     C_1   0.771165 0.500682 0.499765 -0.177059
C13   C     C_R   0.443215 0.421383 0.074125 -0.152005
C14   C     C_R   0.441282 0.422194 0.924543 0.550139
C15   C     C_R   0.495931 0.737733 0.501310 0.763422
C16   C     C_R   0.668842 0.500498 0.499906 0.781207
C17   C     C_1   0.228808 0.499759 0.500225 -0.215706
C18   C     C_1   0.143378 0.500020 0.500206 -0.015197
C19   C     C_1   0.042700 0.500341 0.500063 0.004774
C20   C     C_1   0.957264 0.500566 0.499911 0.010924
C21   C     C_1   0.856590 0.500710 0.499775 0.011020
C22   C     C_3   0.757364 0.918118 0.853351 0.128932
C23   C     C_R   0.552661 0.121414 0.756106 -0.319155
C24   C     C_3   0.761598 0.965039 0.704060 -0.849444
C25   C     C_3   0.296647 0.313524 0.901136 0.041010
C26   C     C_3   0.285783 0.182352 0.956503 -0.803216
C27   C     C_3   0.636641 0.206552 0.004812 0.030520
C28   C     C_3   0.671761 0.241492 0.149640 -0.798829
C29   C     C_3   0.363879 0.846022 0.014445 0.050581
C30   C     C_3   0.320449 0.843224 0.159196 -0.778827
C31   C     C_3   0.730285 0.883823 0.237979 0.044428
C32   C     C_3   0.808835 0.974528 0.282627 -0.784679
C33   C     C_R   0.533384 0.067108 0.887089 0.448786
C34   C     C_R   0.480563 0.954901 0.890116 0.414611
C35   C     C_R   0.464888 0.889274 0.763809 -0.382274
C36   C     C_R   0.493126 0.939869 0.633871 0.056337
C37   C     C_R   0.521153 0.064990 0.631150 0.055549
C38   C     C_R   0.516380 0.129388 0.503284 -0.100898
Cu1   Cu    Cu3+1 0.499990 0.499990 0.640660 0.951154
Cu2   Cu    Cu3+1 0.500010 0.500010 0.359340 0.915916
H1    H     H_    0.426585 0.801865 0.768110 0.184057
H2    H     H_    0.247068 0.321656 0.813149 0.175882
H3    H     H_    0.275002 0.380970 0.981283 0.106448
H4    H     H_    0.336190 0.168070 0.041929 0.257499
H5    H     H_    0.213813 0.164225 0.996716 0.206148
H6    H     H_    0.298781 0.115932 0.871204 0.248716
H7    H     H_    0.594257 0.206330 0.750132 0.158418
H8    H     H_    0.617540 0.293245 0.953473 0.164759
H9    H     H_    0.694892 0.164969 0.947483 0.126416
H10   H     H_    0.680008 0.158186 0.213471 0.244113
H11   H     H_    0.740133 0.293627 0.142035 0.209333
H12   H     H_    0.630458 0.667578 0.253562 0.214528
H13   H     H_    0.621680 0.300916 0.201199 0.283155
H14   H     H_    0.370475 0.749095 0.979726 0.148814
H15   H     H_    0.315204 0.893072 0.944033 0.141078
H16   H     H_    0.320601 0.937828 0.203453 0.254885
H17   H     H_    0.247266 0.805179 0.152898 0.204113
H18   H     H_    0.359821 0.783310 0.228860 0.255351
H19   H     H_    0.505854 0.887930 0.281190 0.219098
H20   H     H_    0.399698 0.355611 0.131867 0.159641
H21   H     H_    0.703762 0.836176 0.333433 0.146270
H22   H     H_    0.673733 0.936640 0.190618 0.163062
H23   H     H_    0.506792 0.109865 0.278920 0.230013
H24   H     H_    0.835145 0.028328 0.191284 0.239255
H25   H     H_    0.782848 0.038763 0.362475 0.202166
H26   H     H_    0.866981 0.924262 0.328303 0.260948
H27   H     H_    0.816550 0.962108 0.912879 0.180250
H28   H     H_    0.691666 0.948036 0.901896 0.117862
H29   H     H_    0.703079 0.921765 0.642531 0.248713
H30   H     H_    0.756079 0.066554 0.703182 0.198782
H31   H     H_    0.828711 0.942024 0.654870 0.261996
H32   H     H_    0.631486 0.668955 0.746821 0.231767
N1    N     N_R   0.500820 0.501210 0.147910 -0.199369
N2    N     N_R   0.500850 0.501290 0.852040 -0.221585
O1    O     O_R   0.499990 0.319640 0.618810 -0.527419
O2    O     O_3   0.388040 0.335606 0.848098 -0.544282
O3    O     O_3   0.557765 0.123132 0.014415 -0.578381
O4    O     O_3   0.453202 0.907680 0.019569 -0.580361
O5    O     O_3   0.765835 0.798794 0.142119 -0.556863
O6    O     O_R   0.500000 0.319660 0.381240 -0.591448
O7    O     O_R   0.376050 0.499990 0.618810 -0.534008
O8    O     O_R   0.376060 0.500010 0.381240 -0.557369
O9    O     O_R   0.500000 0.680340 0.618760 -0.599612
O10   O     O_R   0.500010 0.680360 0.381190 -0.597602
O11   O     O_R   0.623940 0.499990 0.618760 -0.579867
O12   O     O_R   0.623950 0.500010 0.381190 -0.578115
O13   O     O_3   0.766466 0.789218 0.852612 -0.560031

loop_
_geom_bond_atom_site_label_1
_geom_bond_atom_site_label_2
_ccdc_geom_bond_type
C27   H8    S    
C30   H17   S    
C31   H21   S    
C35   C36   A    
C9    H32   S    
C25   H3    S    
C24   H30   S    
C7    C8    A    
C13   H20   S    
C29   C30   S    
C14   N2    A    
C7    O5    S    
C36   C37   A    
C18   C19   S    
C28   H11   S    
C29   H14   S    
C5    C36   A    
Cu2   N1    S    
C34   C35   A    
Cu1   N2    S    
Cu2   O12   S    
Cu2   O10   S    
C26   H5    S    
C28   H10   S    
C4    O7    A    
C12   C16   S    
C8    C9    A    
C23   C33   A    
Cu2   O6    S    
Cu1   O1    S    
C9    C10   A    
C13   C14   A    
C16   O12   A    
C31   H22   S    
C24   H29   S    
C33   C34   A    
C23   H7    S    
C29   O4    S    
C26   H4    S    
C1    O1    A    
Cu2   O8    S    
Cu1   O7    S    
C11   N1    A    
C6    C11   A    
C15   O9    A    
C29   H15   S    
C27   O3    S    
C25   C26   S    
C23   C37   A    
C30   H16   S    
C12   C21   T    
C14   O2    S    
C32   H24   S    
C37   C38   A    
C2    C38   A    
C31   C32   S    
C17   C18   T    
C22   O13   S    
C22   H28   S    
C15   O10   A    
C1    C38   S    
C4    C17   S    
C13   N1    A    
C16   O11   A    
C22   C24   S    
Cu1   O11   S    
Cu1   Cu2   S    
C2    H23   S    
C32   H26   S    
C3    C5    A    
C25   H2    S    
C28   H13   S    
C31   O5    S    
C6    C7    A    
C8    O13   S    
C25   O2    S    
C19   C20   T    
C2    C3    A    
Cu1   O9    S    
C34   O4    S    
C10   N2    A    
C33   O3    S    
C30   H18   S    
C35   H1    S    
C22   H27   S    
C5    C15   S    
C10   C11   A    
C26   H6    S    
C4    O8    A    
C20   C21   S    
C27   C28   S    
C1    O6    A    
C6    H12   S    
C27   H9    S    
C24   H31   S    
C32   H25   S    
C3    H19   S    
