data_mof_unit_43350.cif
_audit_creation_date              2012-10-26T20:12:46-0400
_audit_creation_method            fapswitch 2.2
_symmetry_space_group_name_H-M    P1
_symmetry_Int_Tables_number       1
_space_group_crystal_system       triclinic
_cell_length_a                    15.114577
_cell_length_b                    13.771376
_cell_length_c                    10.823572
_cell_angle_alpha                 90.82322
_cell_angle_beta                  89.939113
_cell_angle_gamma                 89.884078
_cell_volume                      2252.67203394

loop_
_atom_site_label
_atom_site_type_symbol
_atom_type_description
_atom_site_fract_x
_atom_site_fract_y
_atom_site_fract_z
_atom_type_partial_charge
C1    C     C_R   0.329830 0.500109 0.500050 0.553907
C2    C     C_R   0.432828 0.791935 0.554876 0.019410
C3    C     C_R   0.439527 0.208069 0.431412 0.025720
C4    C     C_R   0.568027 0.789074 0.444978 0.007089
C5    C     C_R   0.501480 0.054437 0.500439 0.102306
C6    C     C_R   0.501898 0.945227 0.500494 0.101652
C7    C     C_R   0.511936 0.499214 0.262493 0.543610
C8    C     C_R   0.489388 0.500912 0.738027 0.542701
C9    C     C_R   0.562149 0.672427 0.117567 -0.076545
C10   C     C_R   0.443681 0.327143 0.884729 -0.079454
C11   C     C_R   0.475153 0.683850 0.892718 -0.079575
C12   C     C_R   0.670235 0.499977 0.499929 0.552536
C13   C     C_R   0.533784 0.317903 0.107615 -0.081613
C14   C     C_R   0.550326 0.762363 0.062771 -0.124326
C15   C     C_R   0.458345 0.237606 0.939390 -0.134805
C16   C     C_R   0.503532 0.768403 0.952888 -0.130173
C17   C     C_R   0.507948 0.232675 0.047027 -0.137177
C18   C     C_R   0.493802 0.590992 0.941654 0.014969
C19   C     C_R   0.512039 0.409925 0.059110 0.013518
C20   C     C_R   0.526823 0.586813 0.063114 0.014383
C21   C     C_R   0.478225 0.413630 0.938125 0.012493
C22   C     C_R   0.479646 0.502890 0.874421 -0.045170
C23   C     C_R   0.048732 0.501419 0.502101 0.080652
C24   C     C_R   0.524321 0.497715 0.126620 -0.045666
C25   C     C_R   0.094931 0.572784 0.436135 0.262265
C26   C     C_R   0.904897 0.423737 0.438886 0.204917
C27   C     C_R   0.905072 0.578548 0.554092 0.258799
C28   C     C_R   0.095609 0.430011 0.569302 0.206757
C29   C     C_R   0.187549 0.572720 0.437923 -0.139351
C30   C     C_R   0.812898 0.423258 0.443475 -0.082165
C31   C     C_R   0.812472 0.578138 0.552758 -0.148081
C32   C     C_R   0.187616 0.429157 0.564900 -0.079970
C33   C     C_R   0.233557 0.500517 0.500718 -0.070161
C34   C     C_R   0.951517 0.501202 0.497112 0.081248
C35   C     C_R   0.766626 0.500239 0.499094 -0.071204
C36   C     C_3   0.617416 0.079909 0.765667 -0.024504
C37   C     C_3   0.663191 0.000928 0.838864 -0.372028
C38   C     C_3   0.366740 0.941947 0.736935 -0.024976
C39   C     C_3   0.300567 0.013788 0.791962 -0.347086
C40   C     C_3   0.406522 0.043021 0.239556 -0.024813
C41   C     C_3   0.360057 0.956260 0.180440 -0.352480
C42   C     C_3   0.721982 0.898629 0.379535 -0.000282
C43   C     C_3   0.764125 0.881979 0.506150 -0.364785
C44   C     C_R   0.562669 0.107860 0.571975 0.221541
C45   C     C_R   0.432281 0.894230 0.556715 0.219150
C46   C     C_R   0.439223 0.105637 0.429558 0.225780
C47   C     C_R   0.572252 0.892428 0.445740 0.231295
C48   C     C_R   0.561041 0.210560 0.568942 0.024157
Cu1   Cu    Cu3+1 0.500000 0.596430 0.500000 0.926380
Cu2   Cu    Cu3+1 0.500000 0.403570 0.500000 0.925629
H1    H     H_    0.525020 0.162888 0.084982 0.093840
H2    H     H_    0.777354 0.363571 0.400177 0.163786
H3    H     H_    0.776184 0.637450 0.596118 0.116095
H4    H     H_    0.223468 0.374005 0.615007 0.158970
H5    H     H_    0.609126 0.251997 0.621346 0.145255
H6    H     H_    0.378840 0.753032 0.596980 0.137592
H7    H     H_    0.391400 0.247098 0.377233 0.153629
H8    H     H_    0.618280 0.745565 0.400663 0.123469
H9    H     H_    0.090345 0.685103 0.328957 0.324567
H10   H     H_    0.008996 0.362695 0.363650 0.338472
H11   H     H_    0.909241 0.700995 0.646280 0.317382
H12   H     H_    0.490392 0.838604 0.913284 0.085092
H13   H     H_    0.991689 0.376473 0.651228 0.337409
H14   H     H_    0.546843 0.081923 0.795097 0.109721
H15   H     H_    0.649049 0.150704 0.788660 0.144991
H16   H     H_    0.734624 0.998088 0.814894 0.166052
H17   H     H_    0.656125 0.016402 0.939389 0.102466
H18   H     H_    0.632730 0.929331 0.817238 0.150161
H19   H     H_    0.433818 0.962902 0.770380 0.107333
H20   H     H_    0.350294 0.868137 0.770493 0.119905
H21   H     H_    0.232348 0.993359 0.763993 0.183609
H22   H     H_    0.305008 0.013626 0.894330 0.087542
H23   H     H_    0.433053 0.171920 0.896523 0.093318
H24   H     H_    0.315041 0.088090 0.758908 0.161161
H25   H     H_    0.479247 0.028824 0.233813 0.129910
H26   H     H_    0.390154 0.108879 0.185962 0.136959
H27   H     H_    0.287418 0.968509 0.179485 0.173990
H28   H     H_    0.383731 0.945734 0.083996 0.081935
H29   H     H_    0.374911 0.889609 0.233292 0.171109
H30   H     H_    0.766819 0.947699 0.328497 0.169105
H31   H     H_    0.719628 0.831373 0.322060 0.102309
H32   H     H_    0.724943 0.830088 0.561235 0.133676
H33   H     H_    0.831651 0.851491 0.493504 0.121368
H34   H     H_    0.575712 0.827546 0.107110 0.115891
H35   H     H_    0.769199 0.951894 0.557944 0.206940
H36   H     H_    0.600661 0.670138 0.201497 0.121255
H37   H     H_    0.404048 0.328031 0.801599 0.138534
H38   H     H_    0.435780 0.692756 0.810513 0.126106
H39   H     H_    0.573408 0.310674 0.190060 0.143477
H40   H     H_    0.223782 0.627456 0.387822 0.126119
N1    N     N_R   0.500000 0.258690 0.500000 -0.292026
N2    N     N_R   0.500000 0.741310 0.500000 -0.282338
O1    O     O_R   0.371460 0.581430 0.500010 -0.501022
O2    O     O_3   0.945853 0.347471 0.377094 -0.674106
O3    O     O_3   0.951615 0.652684 0.611677 -0.662320
O4    O     O_3   0.054909 0.360096 0.639780 -0.674709
O5    O     O_3   0.626526 0.058652 0.638260 -0.557505
O6    O     O_3   0.361378 0.944716 0.606883 -0.526909
O7    O     O_3   0.376099 0.055462 0.362195 -0.527937
O8    O     O_3   0.638778 0.945825 0.388174 -0.566389
O9    O     O_R   0.628540 0.418570 0.499990 -0.504897
O10   O     O_R   0.628540 0.581430 0.499990 -0.509659
O11   O     O_R   0.371460 0.418570 0.500010 -0.504595
O12   O     O_R   0.499990 0.581440 0.319660 -0.496060
O13   O     O_R   0.500010 0.418560 0.680340 -0.505151
O14   O     O_R   0.500010 0.581440 0.680340 -0.502121
O15   O     O_R   0.499990 0.418560 0.319660 -0.505854
O16   O     O_3   0.048130 0.640660 0.369559 -0.663378

loop_
_geom_bond_atom_site_label_1
_geom_bond_atom_site_label_2
_ccdc_geom_bond_type
C28   O4    S    
C26   O2    S    
C48   H5    S    
C46   O7    S    
C38   H20   S    
C11   C18   A    
C42   H30   S    
C6    C45   A    
C43   H33   S    
C27   O3    S    
C14   H34   S    
C38   O6    S    
C8    O13   A    
C17   H1    S    
C40   O7    S    
C1    C33   S    
C30   C35   A    
C36   C37   S    
C19   C21   A    
C45   O6    S    
C41   H27   S    
C38   C39   S    
C7    C24   S    
C37   H18   S    
C29   C33   A    
C3    N1    A    
C44   O5    S    
C39   H24   S    
C26   C34   A    
C20   C24   A    
C48   N1    A    
Cu2   O13   S    
C8    C22   S    
C39   H22   S    
C36   O5    S    
C1    O11   A    
C18   C20   A    
C38   H19   S    
Cu2   O11   S    
C10   C21   A    
C21   C22   A    
C42   H31   S    
C16   H12   S    
Cu1   O12   S    
C32   H4    S    
C29   H40   S    
C27   C34   A    
C25   C29   A    
C10   H37   S    
C6    C47   A    
C13   C19   A    
C27   C31   A    
C43   H35   S    
C28   C32   A    
C41   H28   S    
C36   H15   S    
H13   O4    S    
C47   O8    S    
C40   H26   S    
C9    C14   A    
C12   O10   A    
C42   O8    S    
C9    H36   S    
C11   C16   A    
C9    C20   A    
C11   H38   S    
C23   C34   S    
C37   H16   S    
C23   C28   A    
C31   H3    S    
C12   C35   S    
C2    N2    A    
C3    H7    S    
C40   C41   S    
C15   H23   S    
C5    C44   A    
C26   C30   A    
C7    O12   A    
Cu2   O15   S    
C14   C16   A    
C42   C43   S    
Cu1   N2    S    
Cu1   O10   S    
C15   C17   A    
C30   H2    S    
C13   H39   S    
C18   C22   A    
C8    O14   A    
C41   H29   S    
H11   O3    S    
Cu1   O14   S    
C5    C46   A    
C3    C46   A    
H9    O16   S    
C40   H25   S    
C13   C17   A    
C10   C15   A    
C32   C33   A    
C19   C24   A    
C12   O9    A    
C2    H6    S    
C5    C6    S    
C37   H17   S    
C31   C35   A    
C7    O15   A    
C23   C25   A    
C2    C45   A    
Cu2   N1    S    
Cu2   O9    S    
C1    O1    A    
Cu1   Cu2   S    
C4    H8    S    
C43   H32   S    
C39   H21   S    
Cu1   O1    S    
C36   H14   S    
C44   C48   A    
C25   O16   S    
C4    N2    A    
C4    C47   A    
H10   O2    S    
