data_mof_unit_27247.cif
_audit_creation_date              2013-03-05T16:48:14-0500
_audit_creation_method            fapswitch 2.2
_symmetry_space_group_name_H-M    P1
_symmetry_Int_Tables_number       1
_space_group_crystal_system       triclinic
_cell_length_a                    23.405037
_cell_length_b                    8.965745
_cell_length_c                    8.118007
_cell_angle_alpha                 89.104563
_cell_angle_beta                  90.004482
_cell_angle_gamma                 90.000125
_cell_volume                      1703.30372292

loop_
_atom_site_label
_atom_site_type_symbol
_atom_site_description
_atom_site_fract_x
_atom_site_fract_y
_atom_site_fract_z
_atom_type_partial_charge
O1    O     O_R   0.500000 0.285350 0.636850 -0.605349
O2    O     O_R   0.500000 0.714650 0.363150 -0.609055
O3    O     O_R   0.500000 0.714650 0.636850 -0.613359
O4    O     O_R   0.500000 0.285350 0.363150 -0.614706
H1    H     H_    0.947976 0.348772 0.886345 0.198969
H2    H     H_    0.052008 0.538334 0.078095 0.199997
H3    H     H_    0.947921 0.538223 0.078118 0.200030
H4    H     H_    0.052081 0.348843 0.886318 0.199005
C1    C     C_R   0.499998 0.217967 0.500738 0.949295
C2    C     C_R   0.500000 0.782025 0.499180 0.946528
O5    O     O_R   0.416160 0.500000 0.636910 -0.601091
O6    O     O_R   0.583840 0.500000 0.363090 -0.603797
O7    O     O_R   0.583840 0.500000 0.636910 -0.601093
O8    O     O_R   0.416160 0.500000 0.363090 -0.603804
C3    C     C_R   0.208953 0.465610 0.487557 0.059240
C4    C     C_R   0.791043 0.465476 0.487658 0.059250
C5    C     C_R   0.389286 0.499357 0.500013 0.960108
C6    C     C_R   0.610714 0.499347 0.500026 0.960108
Zn1   Zn    Zn3+2 0.500000 0.500000 0.682780 1.058441
Zn2   Zn    Zn3+2 0.500000 0.500000 0.317220 1.055664
C7    C     C_R   0.294985 0.612541 0.445672 0.080711
C8    C     C_R   0.698783 0.354865 0.548554 0.073333
C9    C     C_R   0.301204 0.354925 0.548464 0.073370
C10   C     C_R   0.705026 0.612467 0.445732 0.080766
C11   C     C_R   0.327526 0.489514 0.499632 -0.251834
C12   C     C_R   0.672473 0.489465 0.499683 -0.251836
C13   C     C_R   0.880334 0.469904 0.338017 0.604321
C14   C     C_R   0.119293 0.430175 0.629944 0.600533
C15   C     C_R   0.880721 0.430031 0.630002 0.600525
C16   C     C_R   0.119641 0.470112 0.337968 0.604302
N1    N     N_R   0.852031 0.453933 0.484900 -0.333236
N2    N     N_R   0.147964 0.454115 0.484829 -0.333237
C17   C     C_R   0.940132 0.416831 0.630096 -0.026607
C18   C     C_R   0.059972 0.472888 0.335059 -0.026177
C19   C     C_R   0.940002 0.472769 0.335082 -0.026166
C20   C     C_R   0.059884 0.416916 0.630068 -0.026594
C21   C     C_R   0.969989 0.443641 0.482252 -0.006147
C22   C     C_R   0.030006 0.443693 0.482238 -0.006155
C23   C     C_R   0.970283 0.379145 0.774051 -0.144955
C24   C     C_R   0.029737 0.507345 0.190252 -0.145218
C25   C     C_R   0.970213 0.507284 0.190262 -0.145175
C26   C     C_R   0.029756 0.379183 0.774037 -0.144890
C27   C     C_1   0.499998 0.065073 0.500952 -0.114363
C28   C     C_1   0.499999 0.934868 0.498754 -0.116445
C29   C     C_R   0.235333 0.602486 0.446814 0.291583
C30   C     C_R   0.758048 0.340819 0.534664 0.299767
C31   C     C_R   0.241938 0.340919 0.534543 0.299708
C32   C     C_R   0.764677 0.602368 0.446883 0.291492
N3    N     N_1   0.500000 0.500000 0.073640 -0.007959
N4    N     N_1   0.500000 0.500000 0.926360 -0.007066
O9    O     O_2   0.850702 0.484791 0.196019 -0.475631
O10   O     O_2   0.148278 0.420410 0.773516 -0.478167
O11   O     O_2   0.851754 0.420268 0.773592 -0.478168
O12   O     O_2   0.149255 0.485109 0.195959 -0.475652
Br1   Br    Br    0.189331 0.776084 0.398238 -0.309543
Br2   Br    Br    0.794429 0.150710 0.574599 -0.299588
Br3   Br    Br    0.205539 0.150832 0.574439 -0.299643
Br4   Br    Br    0.810696 0.775922 0.398238 -0.309646
I1    I     I_    0.336175 0.813443 0.364250 -0.153381
I2    I     I_    0.649208 0.172641 0.643625 -0.174010
I3    I     I_    0.350764 0.172660 0.643534 -0.173971
I4    I     I_    0.663855 0.813406 0.364321 -0.153330

loop_
_geom_bond_atom_site_label_1
_geom_bond_atom_site_label_2
_geom_bond_distance
_ccdc_geom_bond_type
C32   Br4   1.928256 S    
C27   C28   1.167805 T    
O3    Zn1   1.954554 S    
C21   C22   1.404696 A    
O8    Zn2   1.997329 S    
C31   Br3   1.928208 S    
Zn2   N3    1.977384 S    
C14   O10   1.350180 S    
C10   C32   1.399086 A    
C20   C26   1.401932 A    
C6    C12   1.448197 S    
C9    I3    2.138224 S    
C14   C20   1.395550 A    
C5    C11   1.448190 S    
C13   C19   1.396975 A    
C4    C32   1.408547 A    
C20   C22   1.406309 A    
C1    C27   1.370775 S    
C3    N2    1.431362 S    
C15   N1    1.369802 A    
O3    C2    1.262077 A    
C4    N1    1.431364 S    
C16   N2    1.369645 A    
C16   O12   1.350094 S    
O8    C5    1.277137 A    
O5    Zn1   1.997271 S    
C17   C23   1.401926 A    
C15   O11   1.350192 S    
O7    C6    1.277020 A    
C18   C24   1.402368 A    
C24   C25   1.393155 A    
C8    C30   1.397527 A    
H4    C26   1.081680 S    
C7    I1    2.138609 S    
C23   C26   1.391951 A    
C7    C29   1.399089 A    
C9    C11   1.406368 A    
C13   N1    1.369641 A    
C8    I2    2.138202 S    
C19   C25   1.402372 A    
Zn1   N4    1.977384 S    
O1    Zn1   1.965997 S    
C9    C31   1.397515 A    
C16   C18   1.396987 A    
C2    C28   1.370297 S    
O4    Zn2   1.954555 S    
C15   C17   1.395558 A    
C14   N2    1.369807 A    
H2    C24   1.081697 S    
O1    C1    1.267591 A    
C29   Br1   1.928212 S    
C17   C21   1.406309 A    
N3    N4    1.195619 T    
C8    C12   1.406391 A    
C30   Br2   1.928232 S    
H1    C23   1.081694 S    
C7    C11   1.404810 A    
C3    C31   1.406388 A    
C4    C30   1.406356 A    
O7    Zn1   1.997326 S    
C10   I4    2.138615 S    
C19   C21   1.406518 A    
O4    C1    1.261527 A    
C18   C22   1.406525 A    
O2    Zn2   1.965996 S    
O6    Zn2   1.997269 S    
O2    C2    1.266970 A    
O5    C5    1.277029 A    
C10   C12   1.404796 A    
H3    C25   1.081661 S    
C13   O9    1.350060 S    
C3    C29   1.408530 A    
O6    C6    1.277147 A    
