data_mof_unit_47866.cif
_audit_creation_date              2013-03-05T15:40:27-0500
_audit_creation_method            fapswitch 2.2
_symmetry_space_group_name_H-M    P1
_symmetry_Int_Tables_number       1
_space_group_crystal_system       triclinic
_cell_length_a                    19.030793
_cell_length_b                    10.957831
_cell_length_c                    18.791441
_cell_angle_alpha                 89.844494
_cell_angle_beta                  90.146408
_cell_angle_gamma                 90.009509
_cell_volume                      3918.66867585

loop_
_atom_site_label
_atom_site_type_symbol
_atom_site_description
_atom_site_fract_x
_atom_site_fract_y
_atom_site_fract_z
_atom_type_partial_charge
O1    O     O_R   0.215090 0.709860 0.828130 -0.520652
O2    O     O_R   0.784910 0.709860 0.171870 -0.523462
O3    O     O_R   0.715090 0.209860 0.828130 -0.523862
O4    O     O_R   0.284910 0.209860 0.171870 -0.522647
O5    O     O_R   0.236990 0.958390 0.823710 -0.496127
O6    O     O_R   0.763010 0.958390 0.176290 -0.493189
O7    O     O_R   0.736990 0.458390 0.823710 -0.493019
O8    O     O_R   0.263010 0.458390 0.176290 -0.498369
C1    C     C_R   0.272574 0.042174 0.853566 0.557578
C2    C     C_R   0.727422 0.042375 0.146438 0.562260
C3    C     C_R   0.772569 0.542189 0.853559 0.561951
C4    C     C_R   0.227420 0.542372 0.146436 0.554691
O9    O     O_R   0.332380 0.074750 0.830850 -0.508733
O10   O     O_R   0.667620 0.074750 0.169150 -0.509990
O11   O     O_R   0.832380 0.574750 0.830850 -0.509072
O12   O     O_R   0.167620 0.574750 0.169150 -0.512393
O13   O     O_R   0.445800 0.917770 0.825070 -0.509571
O14   O     O_R   0.554200 0.917770 0.174930 -0.510108
O15   O     O_R   0.945800 0.417770 0.825070 -0.508108
O16   O     O_R   0.054200 0.417770 0.174930 -0.512346
C5    C     C_R   0.471387 0.821941 0.853299 0.541033
C6    C     C_R   0.528107 0.822560 0.147068 0.537183
C7    C     C_R   0.971356 0.321942 0.853323 0.536524
C8    C     C_R   0.028080 0.322559 0.147090 0.541644
O17   O     O_R   0.456410 0.716580 0.829970 -0.517540
O18   O     O_R   0.543590 0.716580 0.170030 -0.522159
O19   O     O_R   0.956410 0.216580 0.829970 -0.522830
O20   O     O_R   0.043590 0.216580 0.170030 -0.517141
O21   O     O_R   0.321080 0.625290 0.822650 -0.498663
O22   O     O_R   0.678920 0.625290 0.177350 -0.499823
O23   O     O_R   0.821080 0.125290 0.822650 -0.500009
O24   O     O_R   0.178920 0.125290 0.177350 -0.500519
C9    C     C_R   0.261029 0.636085 0.851455 0.549382
C10   C     C_R   0.738955 0.636305 0.148529 0.547391
C11   C     C_R   0.761027 0.136077 0.851452 0.546758
C12   C     C_R   0.238956 0.136300 0.148531 0.547108
O25   O     O_R   0.214930 0.711450 0.668160 -0.509345
O26   O     O_R   0.785070 0.711450 0.331840 -0.508801
O27   O     O_R   0.714930 0.211450 0.668160 -0.508611
O28   O     O_R   0.285070 0.211450 0.331840 -0.506468
O29   O     O_R   0.236850 0.959870 0.675420 -0.486116
O30   O     O_R   0.763150 0.959870 0.324580 -0.459439
O31   O     O_R   0.736850 0.459870 0.675420 -0.459330
O32   O     O_R   0.263150 0.459870 0.324580 -0.482828
C13   C     C_R   0.273924 0.042367 0.646226 0.557350
C14   C     C_R   0.725958 0.041907 0.353900 0.585307
C15   C     C_R   0.774044 0.542123 0.646096 0.585322
C16   C     C_R   0.228959 0.548229 0.350345 0.558919
O33   O     O_R   0.332230 0.076350 0.670880 -0.508539
O34   O     O_R   0.667770 0.076350 0.329120 -0.514411
O35   O     O_R   0.832230 0.576350 0.670880 -0.513328
O36   O     O_R   0.167770 0.576350 0.329120 -0.511918
O37   O     O_R   0.445660 0.919250 0.676780 -0.519826
O38   O     O_R   0.554340 0.919250 0.323220 -0.516585
O39   O     O_R   0.945660 0.419250 0.676780 -0.514362
O40   O     O_R   0.054340 0.419250 0.323220 -0.510636
C17   C     C_R   0.473656 0.824737 0.650478 0.576679
C18   C     C_R   0.531401 0.822694 0.353895 0.559001
C19   C     C_R   0.968539 0.322894 0.646051 0.560097
C20   C     C_R   0.026209 0.324533 0.349390 0.581037
O41   O     O_R   0.456260 0.718170 0.670000 -0.438045
O42   O     O_R   0.543740 0.718170 0.330000 -0.437799
O43   O     O_R   0.956260 0.218170 0.670000 -0.437588
O44   O     O_R   0.043740 0.218170 0.330000 -0.439565
O45   O     O_R   0.320940 0.626760 0.674370 -0.485406
O46   O     O_R   0.679060 0.626760 0.325630 -0.472885
O47   O     O_R   0.820940 0.126760 0.674370 -0.473655
O48   O     O_R   0.179060 0.126760 0.325630 -0.491594
C21   C     C_R   0.261742 0.642270 0.643839 0.549504
C22   C     C_R   0.740085 0.633998 0.352587 0.557585
C23   C     C_R   0.759931 0.134212 0.647419 0.557220
C24   C     C_R   0.239998 0.134035 0.352630 0.554543
Cr1   Cr    Cr6+3 0.230530 0.836340 0.748870 1.046553
Cr2   Cr    Cr6+3 0.769470 0.836340 0.251130 1.066889
Cr3   Cr    Cr6+3 0.730530 0.336340 0.748870 1.067532
Cr4   Cr    Cr6+3 0.269470 0.336340 0.251130 1.046736
Cr5   Cr    Cr6+3 0.387420 0.989430 0.750820 1.029687
Cr6   Cr    Cr6+3 0.612580 0.989430 0.249180 1.028886
Cr7   Cr    Cr6+3 0.887420 0.489430 0.750820 1.034288
Cr8   Cr    Cr6+3 0.112580 0.489430 0.249180 1.029597
Cr9   Cr    Cr6+3 0.385640 0.677860 0.749230 1.076259
Cr10  Cr    Cr6+3 0.614360 0.677860 0.250770 1.077747
Cr11  Cr    Cr6+3 0.885640 0.177860 0.749230 1.078431
Cr12  Cr    Cr6+3 0.114360 0.177860 0.250770 1.072741
O49   O     O_3   0.334530 0.834540 0.749640 -0.265530
O50   O     O_3   0.665470 0.834540 0.250360 -0.269742
O51   O     O_3   0.834530 0.334540 0.749640 -0.271135
O52   O     O_3   0.165470 0.334540 0.250360 -0.259932
H1    H     H_    0.490490 0.632178 0.939882 0.139255
H2    H     H_    0.492457 0.634697 0.065294 0.138829
H3    H     H_    0.990301 0.132193 0.939945 0.138358
H4    H     H_    0.992283 0.134707 0.065360 0.140351
C25   C     C_R   0.498960 0.832040 0.075137 -0.000106
C26   C     C_R   0.498105 0.829264 0.926195 0.004043
C27   C     C_R   0.998846 0.332039 0.075198 0.001784
C28   C     C_R   0.997986 0.329274 0.926256 0.002639
C29   C     C_R   0.498377 0.944426 0.037169 0.024598
C30   C     C_R   0.504937 0.942321 0.962149 0.023709
C31   C     C_R   0.998238 0.444424 0.037238 0.024565
C32   C     C_R   0.004798 0.442336 0.962219 0.023633
C33   C     C_R   0.495125 0.720439 0.965340 -0.151067
C34   C     C_R   0.493699 0.722014 0.038080 -0.154367
C35   C     C_R   0.994955 0.220451 0.965403 -0.152301
C36   C     C_R   0.993536 0.222022 0.038143 -0.152916
C37   C     C_R   0.491901 0.058593 0.071510 -0.082719
C38   C     C_R   0.517845 0.053117 0.925681 -0.085952
C39   C     C_R   0.991746 0.558570 0.071596 -0.082345
C40   C     C_R   0.017693 0.553156 0.925768 -0.086193
C41   C     C_R   0.000502 0.667248 0.033883 -0.125883
C42   C     C_R   0.015668 0.664356 0.961566 -0.126481
C43   C     C_R   0.500683 0.167253 0.033783 -0.125708
C44   C     C_R   0.515846 0.164329 0.961466 -0.126630
H5    H     H_    0.478396 0.065236 0.127207 0.133332
H6    H     H_    0.531017 0.054739 0.869746 0.133132
H7    H     H_    0.978254 0.565173 0.127300 0.133867
H8    H     H_    0.030881 0.554815 0.869839 0.133081
H9    H     H_    0.996402 0.753920 0.061071 0.110292
H10   H     H_    0.024805 0.748645 0.932862 0.112457
H11   H     H_    0.496598 0.253938 0.060960 0.109977
H12   H     H_    0.524997 0.248603 0.932751 0.112964
C45   C     C_2   0.249281 0.579779 0.920634 -0.112201
C46   C     C_2   0.750768 0.580161 0.079445 -0.110654
C47   C     C_2   0.749273 0.079761 0.920628 -0.110448
C48   C     C_2   0.250776 0.080138 0.079455 -0.112234
C49   C     C_2   0.249749 0.587112 0.077086 -0.105683
C50   C     C_2   0.750199 0.586734 0.922827 -0.103005
C51   C     C_2   0.749747 0.087101 0.077083 -0.103370
C52   C     C_2   0.250209 0.086700 0.922840 -0.105625
C53   C     C_2   0.295115 0.522327 0.037683 -0.164779
C54   C     C_2   0.705116 0.521629 0.962603 -0.163495
C55   C     C_2   0.795105 0.022299 0.037678 -0.164572
C56   C     C_2   0.205135 0.021575 0.962616 -0.164212
C57   C     C_2   0.304031 0.547114 0.961693 -0.162440
C58   C     C_2   0.696102 0.546888 0.038496 -0.162038
C59   C     C_2   0.804019 0.047077 0.961686 -0.161941
C60   C     C_2   0.196116 0.046836 0.038508 -0.162347
H13   H     H_    0.325255 0.447769 0.060678 0.153750
H14   H     H_    0.675241 0.446612 0.939979 0.153332
H15   H     H_    0.825241 0.947740 0.060674 0.153844
H16   H     H_    0.175269 0.946548 0.939993 0.153092
H17   H     H_    0.356831 0.541464 0.940134 0.151393
H18   H     H_    0.643293 0.541016 0.060061 0.154280
H19   H     H_    0.856817 0.041406 0.940124 0.151709
H20   H     H_    0.143306 0.040952 0.060072 0.153999
H21   H     H_    0.221430 0.663894 0.054107 0.113611
H22   H     H_    0.778281 0.663883 0.945455 0.113398
H23   H     H_    0.721430 0.163885 0.054103 0.113322
H24   H     H_    0.278285 0.163857 0.945468 0.113896
H25   H     H_    0.196350 0.581875 0.942232 0.113386
H26   H     H_    0.803695 0.582537 0.057839 0.112361
H27   H     H_    0.696342 0.081872 0.942226 0.113281
H28   H     H_    0.303703 0.082523 0.057850 0.112431
C61   C     C_2   0.512390 0.838924 0.584690 -0.121921
C62   C     C_2   0.511351 0.828493 0.428690 -0.139538
C63   C     C_2   0.988205 0.328987 0.571124 -0.138995
C64   C     C_2   0.987264 0.338305 0.415043 -0.122365
C65   C     C_2   0.519287 0.728712 0.471615 0.167678
C66   C     C_2   0.532223 0.738748 0.549092 0.167864
C67   C     C_2   0.968010 0.238021 0.451169 0.165252
C68   C     C_2   0.981190 0.228755 0.528670 0.166069
H29   H     H_    0.508609 0.920093 0.449527 0.049512
H30   H     H_    0.504738 0.926314 0.559083 0.048925
H31   H     H_    0.994424 0.425930 0.440251 0.060458
H32   H     H_    0.989877 0.420559 0.549845 0.056656
C69   C     C_2   0.254869 0.612571 0.569371 -0.085572
C70   C     C_2   0.754084 0.565471 0.416795 -0.098639
C71   C     C_2   0.746025 0.066165 0.583228 -0.098048
C72   C     C_2   0.253498 0.065622 0.416975 -0.107437
C73   C     C_2   0.256521 0.603756 0.414104 -0.099516
C74   C     C_2   0.762317 0.568790 0.571826 -0.070371
C75   C     C_2   0.737835 0.068483 0.428099 -0.070810
C76   C     C_2   0.262084 0.069071 0.572025 -0.095679
C77   C     C_2   0.216956 0.680984 0.450854 -0.166467
C78   C     C_2   0.818118 0.560488 0.528192 -0.158210
C79   C     C_2   0.682010 0.061059 0.471796 -0.158140
C80   C     C_2   0.317639 0.058708 0.528194 -0.152434
C81   C     C_2   0.228977 0.700174 0.526096 -0.143355
C82   C     C_2   0.813388 0.585324 0.452654 -0.162518
C83   C     C_2   0.686797 0.086224 0.547226 -0.161803
C84   C     C_2   0.313009 0.083939 0.452692 -0.159024
H33   H     H_    0.170536 0.723031 0.427577 0.171394
H34   H     H_    0.870555 0.543543 0.549073 0.158042
H35   H     H_    0.629499 0.044574 0.451012 0.157762
H36   H     H_    0.369926 0.039677 0.548917 0.159467
H37   H     H_    0.210521 0.786670 0.547257 0.171292
H38   H     H_    0.857752 0.631734 0.428321 0.176116
H39   H     H_    0.642459 0.132724 0.571387 0.176023
H40   H     H_    0.357732 0.129052 0.428207 0.171001
H41   H     H_    0.305090 0.567577 0.436199 0.156295
H42   H     H_    0.709375 0.585070 0.552501 0.157848
H43   H     H_    0.790843 0.084240 0.447329 0.157358
H44   H     H_    0.209193 0.087418 0.553078 0.130234
H45   H     H_    0.273936 0.525478 0.549979 0.110499
H46   H     H_    0.711689 0.512101 0.439758 0.159026
H47   H     H_    0.788450 0.012828 0.560463 0.157699
H48   H     H_    0.210529 0.013680 0.440109 0.122973
N1    N     N_R   0.515204 0.607364 0.442756 0.142783
O53   O     O_R   0.570369 0.537249 0.442320 -0.308345
O54   O     O_R   0.456942 0.569185 0.414054 -0.333234
N2    N     N_R   0.556069 0.632874 0.588290 0.109212
O55   O     O_R   0.524555 0.528215 0.581025 -0.265215
O56   O     O_R   0.601124 0.646313 0.639909 -0.360912
N3    N     N_R   0.944811 0.131432 0.412558 0.109333
O57   O     O_R   0.977001 0.027450 0.420348 -0.269562
O58   O     O_R   0.899682 0.143680 0.360864 -0.361476
N4    N     N_R   0.986639 0.107673 0.558065 0.142071
O59   O     O_R   0.932111 0.036042 0.559337 -0.305105
O60   O     O_R   0.045441 0.071402 0.586590 -0.332045

loop_
_geom_bond_atom_site_label_1
_geom_bond_atom_site_label_2
_geom_bond_distance
_ccdc_geom_bond_type
C14   C75   1.442398 S    
C18   O42   1.253813 A    
Cr11  O51   1.973436 S    
N3    O57   1.301484 A    
O4    C12   1.267520 A    
O47   Cr11  1.950307 S    
C65   C66   1.480349 S    
O39   C19   1.281635 A    
O20   Cr12  2.069331 S    
C24   C72   1.443458 S    
C62   H29   1.079712 S    
C71   C83   1.331099 D    
C43   C44   1.390422 A    
C73   H41   1.086825 S    
C78   H34   1.087188 S    
O29   Cr1   1.934541 S    
Cr7   O51   1.973276 S    
C29   C30   1.415812 A    
C50   H22   1.087087 S    
C41   H9    1.082579 S    
C38   C44   1.394034 A    
C76   H44   1.085446 S    
O7    C3    1.271578 A    
C76   C80   1.346874 D    
N3    O58   1.301668 A    
C33   C34   1.367377 A    
C38   H6    1.081290 S    
C46   H26   1.087226 S    
C37   H5    1.081016 S    
C12   C48   1.456062 S    
O25   C21   1.257522 A    
C22   C70   1.443639 S    
O26   Cr2   2.061022 S    
C60   H20   1.086430 S    
C27   C31   1.421516 A    
C83   H39   1.086780 S    
C5    C26   1.462338 S    
C50   C54   1.343099 D    
C81   H37   1.087525 S    
C48   H28   1.087228 S    
C51   C55   1.343116 D    
O21   C9    1.271442 A    
O8    Cr4   1.941789 S    
O23   Cr11  1.936224 S    
C7    C28   1.462409 S    
N1    O54   1.301261 A    
O30   C14   1.271819 A    
C61   C66   1.341760 D    
O32   Cr4   1.939805 S    
C1    O9    1.267495 A    
C46   C58   1.343377 D    
O25   Cr1   2.066416 S    
C84   H40   1.086790 S    
C3    O11   1.267499 A    
O11   Cr7   2.061287 S    
C4    O12   1.267533 A    
C26   C33   1.400628 A    
O33   Cr5   2.061892 S    
N2    O55   1.301450 A    
C66   N2    1.445084 S    
C70   C82   1.331172 D    
C7    O19   1.268246 A    
N1    O53   1.301107 A    
C18   C62   1.458866 S    
C78   C82   1.447165 S    
O47   C23   1.268063 A    
O2    Cr2   2.058908 S    
C56   C60   1.463986 S    
C29   C37   1.414746 A    
O2    C10   1.267523 A    
C59   H19   1.086221 S    
O42   Cr10  2.057175 S    
C77   H33   1.086778 S    
C10   C46   1.456079 S    
C23   C71   1.443683 S    
C9    C45   1.455226 S    
C39   C41   1.394320 A    
C42   H10   1.082583 S    
C54   C58   1.463998 S    
C71   H47   1.086169 S    
C52   C56   1.343108 D    
C53   H13   1.086340 S    
C14   O34   1.257819 A    
O6    Cr2   1.941789 S    
C47   H27   1.087250 S    
O31   Cr3   1.934541 S    
O24   Cr12  1.938574 S    
O9    Cr5   2.061287 S    
C32   C40   1.414311 A    
C1    C52   1.456064 S    
O30   Cr2   1.939805 S    
O22   C10   1.271214 A    
O1    C9    1.267414 A    
O48   Cr12  1.948231 S    
C70   H46   1.085992 S    
C3    C50   1.456064 S    
C64   H31   1.080274 S    
C62   C65   1.365117 D    
C2    O10   1.267541 A    
C8    C27   1.463152 S    
C44   H12   1.082584 S    
O16   Cr8   1.948194 S    
N4    O59   1.301263 A    
C52   H24   1.087085 S    
C48   C60   1.343363 D    
O7    Cr3   1.947013 S    
C4    C49   1.455502 S    
O27   C23   1.267053 A    
Cr10  O50   1.973120 S    
C17   C61   1.448928 S    
O13   C5    1.271612 A    
C67   N3    1.445098 S    
O28   Cr4   2.061022 S    
C47   C59   1.342960 D    
O48   C24   1.267232 A    
O12   Cr8   2.057421 S    
Cr12  O52   1.973120 S    
O22   Cr10  1.938574 S    
O15   C7    1.271563 A    
C20   C64   1.449096 S    
O5    C1    1.271576 A    
C15   O35   1.257732 A    
C58   H18   1.086428 S    
O39   Cr7   1.941540 S    
O3    C11   1.267414 A    
C80   C84   1.447213 S    
O45   Cr9   1.950307 S    
C67   C68   1.480389 S    
C13   O33   1.258058 A    
C69   C81   1.348868 D    
O8    C4    1.271143 A    
Cr1   O49   1.979321 S    
O13   Cr5   1.945285 S    
C75   H43   1.084639 S    
O29   C13   1.270832 A    
Cr2   O50   1.979312 S    
O15   Cr7   1.945285 S    
O35   Cr7   2.061892 S    
C39   H7    1.081036 S    
C53   C57   1.463130 S    
C43   H11   1.082580 S    
Cr3   O51   1.979321 S    
O26   C22   1.266844 A    
O21   Cr9   1.936224 S    
O27   Cr3   2.066416 S    
C72   H48   1.087164 S    
O37   Cr5   1.941540 S    
C6    C25   1.463204 S    
O23   C11   1.271455 A    
C69   H45   1.085308 S    
C2    C51   1.455523 S    
C54   H14   1.086376 S    
C13   C76   1.441115 S    
C25   C29   1.421617 A    
O34   Cr6   2.065490 S    
C15   C74   1.441968 S    
O3    Cr3   2.053391 S    
C27   C36   1.397342 A    
O14   Cr6   1.948194 S    
O38   C18   1.280675 A    
C80   H36   1.087624 S    
C5    O17   1.268208 A    
C19   C63   1.459138 S    
O28   C24   1.267931 A    
H1    C33   1.083643 S    
C63   C68   1.365564 D    
O14   C6    1.269104 A    
C79   H35   1.087278 S    
C19   O43   1.253663 A    
C37   C43   1.394344 A    
C64   C67   1.341553 D    
C8    O20   1.272131 A    
H3    C35   1.083636 S    
O17   Cr9   2.070923 S    
O37   C17   1.266904 A    
C25   C34   1.397382 A    
O6    C2    1.271129 A    
C79   C83   1.447400 S    
O24   C12   1.271216 A    
C17   O41   1.267269 A    
C74   C78   1.346544 D    
C63   H32   1.079649 S    
C56   H16   1.086373 S    
C31   C39   1.414725 A    
C74   H42   1.084726 S    
C55   C59   1.463147 S    
C30   C38   1.414292 A    
C31   C32   1.415806 A    
O44   Cr12  2.057175 S    
C61   H30   1.080259 S    
C20   O44   1.267093 A    
O1    Cr1   2.053391 S    
C40   H8    1.081266 S    
H2    C34   1.083959 S    
C11   C47   1.455229 S    
O40   Cr8   1.938399 S    
Cr8   O52   1.973460 S    
O32   C16   1.264759 A    
C72   C84   1.330478 D    
C41   C42   1.390419 A    
C73   C77   1.328919 D    
Cr6   O50   1.973460 S    
O46   C22   1.268390 A    
C40   C42   1.394052 A    
C75   C79   1.346707 D    
Cr5   O49   1.973276 S    
O45   C21   1.274151 A    
C28   C32   1.418611 A    
O19   Cr11  2.070923 S    
C45   H25   1.087249 S    
C65   N1    1.439413 S    
O10   Cr6   2.057422 S    
O5    Cr1   1.947013 S    
Cr4   O52   1.979312 S    
O16   C8    1.269147 A    
C21   C69   1.443184 S    
O4    Cr4   2.058908 S    
C55   H15   1.086340 S    
H4    C36   1.083962 S    
C68   N4    1.439452 S    
C16   C73   1.442734 S    
C82   H38   1.086780 S    
C49   C53   1.343106 D    
C16   O36   1.267725 A    
O40   C20   1.266512 A    
O18   Cr10  2.069331 S    
C6    O18   1.272159 A    
C28   C35   1.400669 A    
O43   Cr11  2.055344 S    
C35   C36   1.367395 A    
C26   C30   1.418512 A    
O41   Cr9   2.055344 S    
C57   H17   1.086228 S    
C45   C57   1.342963 D    
C77   C81   1.447619 S    
O36   Cr8   2.065490 S    
N4    O60   1.301339 A    
O31   C15   1.271265 A    
C49   H21   1.087107 S    
N2    O56   1.301624 A    
Cr9   O49   1.973436 S    
O46   Cr10  1.948231 S    
C51   H23   1.087105 S    
O38   Cr6   1.938399 S    
