data_mof_unit_13282.cif
_audit_creation_date              2012-12-11T14:27:05-0500
_audit_creation_method            fapswitch 2.2
_symmetry_space_group_name_H-M    P1
_symmetry_Int_Tables_number       1
_space_group_crystal_system       triclinic
_cell_length_a                    15.102796
_cell_length_b                    14.963112
_cell_length_c                    14.977805
_cell_angle_alpha                 110.433824
_cell_angle_beta                  109.171583
_cell_angle_gamma                 109.120167
_cell_volume                      2595.17948265

loop_
_atom_site_label
_atom_site_type_symbol
_atom_type_description
_atom_site_fract_x
_atom_site_fract_y
_atom_site_fract_z
_atom_type_partial_charge
C1    C     C_R   0.958152 0.775403 0.049212 0.537781
C2    C     C_R   0.218641 0.768363 0.314847 -0.093472
C3    C     C_R   0.908166 0.410721 0.209069 -0.045501
C4    C     C_R   0.794428 0.196900 0.701367 0.023140
C5    C     C_R   0.313162 0.590019 0.035415 0.065917
C6    C     C_R   0.940843 0.503513 0.303637 0.107381
C7    C     C_R   0.325437 0.497979 0.019022 -0.005088
C8    C     C_R   0.320974 0.810418 0.328566 0.097549
C9    C     C_R   0.927343 0.128651 0.918306 -0.100938
C10   C     C_3   0.544420 0.476096 0.957913 -0.410340
C11   C     C_3   0.453335 0.502075 0.949046 -0.200029
C12   C     C_R   0.704501 0.131049 0.700131 -0.039517
C13   C     C_3   0.534329 0.401003 0.088736 -0.230457
C14   C     C_3   0.629524 0.602659 0.163213 -0.432346
C15   C     C_3   0.606904 0.492015 0.074139 0.165985
C16   C     C_R   0.045776 0.589049 0.775908 -0.141625
C17   C     C_3   0.425471 0.492544 0.038020 0.025841
C18   C     C_3   0.418026 0.383955 0.038375 0.284397
C19   C     C_3   0.521985 0.594851 0.152745 0.237006
C20   C     C_2   0.447903 0.861536 0.513888 0.082643
C21   C     C_2   0.419928 0.885159 0.433293 -0.171106
C22   C     C_2   0.546444 0.947382 0.620531 -0.133687
C23   C     C_R   0.976895 0.495445 0.672857 0.178825
C24   C     C_2   0.635142 0.011181 0.622192 0.406450
C25   C     C_2   0.851737 0.426009 0.480053 0.554529
C26   C     C_2   0.950441 0.493638 0.570782 -0.358079
C27   C     C_2   0.839848 0.420294 0.377147 -0.179380
C28   C     C_R   0.705373 0.406542 0.008306 -0.218045
C29   C     C_2   0.900836 0.510302 0.379968 -0.222331
C30   C     C_2   0.934714 0.961694 0.840243 0.007330
C31   C     C_2   0.880656 0.009659 0.869954 -0.001274
C32   C     C_2   0.937750 0.877139 0.865067 -0.371413
C33   C     C_2   0.975380 0.898885 0.969229 0.555875
C34   C     C_R   0.708132 0.494504 0.082367 -0.050988
C35   C     C_R   0.950937 0.404963 0.685275 -0.022153
C36   C     C_R   0.798150 0.587310 0.110302 0.498009
C37   C     C_R   0.703176 0.197076 0.791344 -0.120695
C38   C     C_R   0.055499 0.777443 0.964960 -0.218238
C39   C     C_R   0.994471 0.819595 0.993057 -0.127555
C40   C     C_1   0.382170 0.688199 0.042194 -0.020856
C41   C     C_1   0.361175 0.433435 0.834923 0.257094
C42   C     C_1   0.535652 0.296345 0.053157 0.220031
C43   C     C_1   0.380270 0.757989 0.500916 0.154300
C44   C     C_1   0.538673 0.967003 0.718657 0.086661
C45   C     C_R   0.004090 0.593106 0.303306 -0.092058
C46   C     C_R   0.223289 0.407492 0.962862 -0.050978
C47   C     C_R   0.312441 0.773938 0.225899 -0.050815
C48   C     C_R   0.903355 0.193612 0.987097 0.455637
C49   C     C_R   0.992619 0.195115 0.895307 0.353385
Cl1   Cl    Cl    0.874803 0.805773 0.097608 -0.538626
Cl2   Cl    Cl    0.796841 0.141440 0.011015 -0.666243
Cl3   Cl    Cl    0.003794 0.149053 0.776050 -0.627340
Cl4   Cl    Cl    0.330065 0.259633 0.903643 -0.637087
Cl5   Cl    Cl    0.507220 0.592131 0.266235 -0.595258
Cl6   Cl    Cl    0.661548 0.953114 0.515007 -0.552531
Cl7   Cl    Cl    0.739530 0.334098 0.475969 -0.611920
Cl8   Cl    Cl    0.017888 0.025851 0.082669 -0.534216
Cl9   Cl    Cl    0.873773 0.706350 0.242462 -0.622933
H1    H     H_    0.200092 0.322833 0.934320 0.210765
H2    H     H_    0.669484 0.670532 0.150578 0.225337
H3    H     H_    0.528136 0.673351 0.161396 0.139178
H4    H     H_    0.566215 0.434267 0.178539 0.164536
H5    H     H_    0.383937 0.370187 0.090948 0.134961
H6    H     H_    0.088598 0.672113 0.793846 0.113248
H7    H     H_    0.471525 0.963150 0.444403 0.174415
H8    H     H_    0.017951 0.549235 0.570616 0.136130
H9    H     H_    0.796638 0.339048 0.304683 0.170767
H10   H     H_    0.936903 0.591547 0.450559 0.162546
H11   H     H_    0.999930 0.001317 0.828038 0.207901
H12   H     H_    0.378008 0.799387 0.209933 0.140181
H13   H     H_    0.819367 0.967682 0.886121 0.196186
H14   H     H_    0.921669 0.801316 0.800395 0.166613
H15   H     H_    0.646344 0.320436 0.963168 0.151117
H16   H     H_    0.905602 0.319030 0.621865 0.151696
H17   H     H_    0.651833 0.172406 0.823682 0.141257
H18   H     H_    0.104156 0.803787 0.930514 0.146291
H19   H     H_    0.032239 0.677969 0.359536 0.161352
H20   H     H_    0.196717 0.785954 0.378134 0.117039
H21   H     H_    0.845076 0.328802 0.176148 0.167076
H22   H     H_    0.511988 0.389965 0.893332 0.217632
H23   H     H_    0.599363 0.531092 0.941946 0.175234
H24   H     H_    0.484236 0.588461 0.967353 0.133820
H25   H     H_    0.826895 0.169044 0.649866 0.190301
H26   H     H_    0.683935 0.623232 0.247187 0.258959
N1    N     N_R   0.993980 0.704500 0.053430 -0.094756
N2    N     N_R   0.053690 0.556380 0.849240 -0.052672
N3    N     N_R   0.790390 0.443640 0.997160 -0.066626
N4    N     N_R   0.998260 0.443670 0.792970 -0.061792
N5    N     N_R   0.845830 0.556350 0.053430 -0.090508
N6    N     N_R   0.792820 0.295510 0.849240 -0.046583
N7    N     N_R   0.051260 0.704510 0.997160 -0.063477
N8    N     N_R   0.001740 0.556330 0.207030 -0.054605
N9    N     N_1   0.437302 0.766847 0.047181 -0.036445
N10   N     N_1   0.289062 0.380010 0.745670 -0.021809
N11   N     N_1   0.535842 0.213878 0.026339 -0.035011
N12   N     N_R   0.154170 0.443650 0.946570 -0.055939
N13   N     N_1   0.326262 0.675372 0.490518 -0.058598
N14   N     N_1   0.531473 0.981286 0.796462 -0.015493
N15   N     N_R   0.207180 0.704490 0.150760 -0.060894
N16   N     N_R   0.948740 0.295490 0.002840 -0.112551
N17   N     N_R   0.006020 0.295500 0.946570 -0.113475
N18   N     N_R   0.149890 0.704480 0.207030 -0.048297
N19   N     N_R   0.946310 0.443620 0.150760 -0.052212
N20   N     N_R   0.209610 0.556360 0.002840 -0.066243
N21   N     N_R   0.850110 0.295520 0.792970 -0.065165
Ni1   Ni    Ni4+2 0.997880 0.629240 0.129060 0.299399
Ni2   Ni    Ni4+2 0.002120 0.370760 0.870940 0.277025
Ni3   Ni    Ni4+2 0.129260 0.629260 0.000000 0.233818
Ni4   Ni    Ni4+2 0.870740 0.370740 0.000000 0.247723

loop_
_geom_bond_atom_site_label_1
_geom_bond_atom_site_label_2
_ccdc_geom_bond_type
C36   N5    A    
N17   Ni2   S    
C35   H16   S    
C6    C45   A    
C46   H1    S    
C27   C29   D    
C25   Cl7   S    
C14   H26   S    
C40   N9    T    
C3    C6    A    
C3    H21   S    
C30   H11   S    
N1    N7    A    
C32   H14   S    
C38   H18   S    
C24   Cl6   S    
N15   Ni3   S    
N21   Ni2   S    
C33   C39   S    
C13   C18   S    
C36   Cl9   S    
C10   C15   S    
C49   N17   A    
C38   C39   A    
N2    N4    A    
C18   H5    S    
C2    N18   A    
C47   N15   A    
C23   C26   S    
C12   C37   A    
C45   N8    A    
C18   Cl4   S    
C44   N14   T    
C48   Cl2   S    
C22   C44   S    
C13   H4    S    
C7    C17   S    
N5    Ni1   S    
N18   Ni1   S    
C4    C12   A    
C1    Cl1   S    
C15   C34   S    
N8    N19   A    
C31   H13   S    
C37   H17   S    
C5    N20   A    
C28   C34   A    
N16   Ni4   S    
C16   N2    A    
C28   H15   S    
C14   C19   S    
C13   C42   S    
C8    C21   S    
C11   H24   S    
C1    N1    A    
C48   N16   A    
N2    Ni3   S    
C42   N11   T    
C26   H8    S    
C7    C46   A    
C9    C49   A    
C5    C7    A    
N4    Ni2   S    
C10   H22   S    
C25   C26   D    
C38   N7    A    
C47   H12   S    
C2    H20   S    
C29   H10   S    
C35   N4    A    
C1    C39   A    
C41   N10   T    
C49   Cl3   S    
C6    C29   S    
C28   N3    A    
C17   C18   S    
C37   N6    A    
C19   Cl5   S    
N8    Ni1   S    
N12   Ni2   S    
C20   C22   S    
C16   C23   A    
C23   C35   A    
C13   C15   S    
C22   C24   D    
N1    Ni1   S    
N20   Ni3   S    
C20   C43   S    
C3    N19   A    
C11   C17   S    
C33   Cl8   S    
C21   H7    S    
N7    Ni3   S    
C2    C8    A    
C43   N13   T    
N6    N21   A    
N3    Ni4   S    
C25   C27   S    
C14   H2    S    
C4    N21   A    
C12   C24   S    
C10   H23   S    
N19   Ni4   S    
C32   C33   D    
N12   N20   A    
C8    C47   A    
C30   C32   S    
C30   C31   D    
C4    H25   S    
C19   H3    S    
N16   N17   A    
C17   C19   S    
C11   C41   S    
C34   C36   A    
C27   H9    S    
C10   C11   S    
C9    C31   S    
N15   N18   A    
C46   N12   A    
C20   C21   D    
C9    C48   A    
C5    C40   S    
N3    N5    A    
C14   C15   S    
C45   H19   S    
C16   H6    S    
N6    Ni4   S    
