data_mof_unit_26117.cif
_audit_creation_date              2012-12-10T20:53:06-0500
_audit_creation_method            fapswitch 2.2
_symmetry_space_group_name_H-M    P1
_symmetry_Int_Tables_number       1
_space_group_crystal_system       triclinic
_cell_length_a                    18.530692
_cell_length_b                    18.514355
_cell_length_c                    18.444337
_cell_angle_alpha                 59.316694
_cell_angle_beta                  59.307342
_cell_angle_gamma                 59.312658
_cell_volume                      4404.47008764

loop_
_atom_site_label
_atom_site_type_symbol
_atom_type_description
_atom_site_fract_x
_atom_site_fract_y
_atom_site_fract_z
_atom_type_partial_charge
C1    C     C_R   0.390145 0.103209 0.116840 0.486677
C2    C     C_R   0.393694 0.808473 0.775131 -0.110695
C3    C     C_R   0.962266 0.592112 0.985035 0.002656
C4    C     C_R   0.407459 0.017522 0.035001 0.002940
C5    C     C_R   0.592542 0.982476 0.965002 0.002941
C6    C     C_R   0.940280 0.952689 0.547028 0.004667
C7    C     C_R   0.059721 0.047309 0.452972 0.004666
C8    C     C_R   0.930372 0.552577 0.963674 -0.013337
C9    C     C_R   0.069634 0.447423 0.036321 -0.013338
C10   C     C_R   0.553497 0.963202 0.930531 -0.013813
C11   C     C_R   0.446503 0.036796 0.069471 -0.013813
C12   C     C_3   0.895555 0.099723 0.803931 -0.017349
C13   C     C_R   0.186492 0.216625 0.607496 -0.108895
C14   C     C_3   0.936321 0.111600 0.848967 -0.398905
C15   C     C_3   0.104444 0.900285 0.196066 -0.017336
C16   C     C_3   0.063660 0.888439 0.151023 -0.398939
C17   C     C_3   0.074457 0.816701 0.923608 -0.025525
C18   C     C_3   0.145385 0.853547 0.893822 -0.377018
C19   C     C_3   0.925488 0.183313 0.076518 -0.025523
C20   C     C_3   0.854530 0.146493 0.106340 -0.377022
C21   C     C_3   0.808008 0.914946 0.091218 -0.031014
C22   C     C_3   0.839268 0.886274 0.166301 -0.377947
C23   C     C_3   0.192008 0.085104 0.908750 -0.031014
C24   C     C_R   0.813503 0.783374 0.392495 -0.108903
C25   C     C_3   0.160758 0.113764 0.833665 -0.377975
C26   C     C_R   0.181549 0.571144 0.282311 -0.051135
C27   C     C_R   0.818461 0.428843 0.717705 -0.051130
C28   C     C_R   0.568877 0.282584 0.182154 -0.059649
C29   C     C_R   0.431105 0.717417 0.817856 -0.059623
C30   C     C_R   0.278628 0.174289 0.575912 -0.066356
C31   C     C_R   0.721367 0.825712 0.424079 -0.066351
C32   C     C_R   0.090498 0.583631 0.315141 0.065220
C33   C     C_R   0.609855 0.896791 0.883161 0.486676
C34   C     C_R   0.909511 0.416366 0.684863 0.065217
C35   C     C_R   0.583460 0.315319 0.090150 0.062664
C36   C     C_R   0.416539 0.684681 0.909856 0.062672
C37   C     C_R   0.313319 0.083646 0.585730 0.059269
C38   C     C_R   0.686678 0.916352 0.414271 0.059271
C39   C     C_R   0.041692 0.635673 0.256490 -0.092417
C40   C     C_R   0.958327 0.364333 0.743507 -0.092437
C41   C     C_R   0.636871 0.256791 0.041132 -0.094196
C42   C     C_R   0.363142 0.743207 0.958875 -0.094196
C43   C     C_R   0.255209 0.035404 0.629112 -0.088652
C44   C     C_R   0.110543 0.109295 0.391797 0.494902
C45   C     C_R   0.744790 0.964590 0.370902 -0.088649
C46   C     C_R   0.083972 0.673288 0.165420 -0.106748
C47   C     C_R   0.916059 0.326715 0.834579 -0.106744
C48   C     C_R   0.674508 0.166130 0.083863 -0.097870
C49   C     C_R   0.325499 0.833868 0.916150 -0.097864
C50   C     C_R   0.163162 0.078020 0.660405 -0.115220
C51   C     C_R   0.836837 0.921971 0.339612 -0.115212
C52   C     C_R   0.174961 0.659928 0.132382 -0.094489
C53   C     C_R   0.825071 0.340062 0.867629 -0.094493
C54   C     C_R   0.658466 0.133197 0.175900 -0.091892
C55   C     C_R   0.889457 0.890705 0.608203 0.494901
C56   C     C_R   0.341524 0.866802 0.824117 -0.091896
C57   C     C_R   0.128797 0.168607 0.649429 -0.099796
C58   C     C_R   0.871199 0.831388 0.350575 -0.099790
C59   C     C_R   0.991840 0.589725 0.465340 -0.161116
C60   C     C_R   0.008157 0.410275 0.534660 -0.161118
C61   C     C_R   0.590091 0.464993 0.990494 -0.164061
C62   C     C_R   0.409910 0.535005 0.009506 -0.164057
C63   C     C_R   0.464549 0.988725 0.591054 -0.166069
C64   C     C_R   0.535449 0.011271 0.408948 -0.166071
C65   C     C_R   0.944873 0.552533 0.554974 0.014508
C66   C     C_R   0.116892 0.390407 0.103019 0.494383
C67   C     C_R   0.055125 0.447467 0.445026 0.014505
C68   C     C_R   0.552586 0.554902 0.944661 0.015378
C69   C     C_R   0.447414 0.445098 0.055339 0.015379
C70   C     C_R   0.555191 0.945770 0.552197 0.016091
C71   C     C_R   0.444807 0.054228 0.447804 0.016090
C72   C     C_R   0.953523 0.461435 0.590127 -0.035090
C73   C     C_R   0.046477 0.538564 0.409874 -0.035092
C74   C     C_R   0.461224 0.590238 0.954425 -0.034351
C75   C     C_R   0.538776 0.409761 0.045577 -0.034345
C76   C     C_R   0.591179 0.957729 0.459756 -0.035726
C77   C     C_R   0.883109 0.609593 0.896980 0.494383
C78   C     C_R   0.408818 0.042268 0.540246 -0.035723
C79   C     C_R   0.110618 0.390367 0.389873 0.503767
C80   C     C_R   0.889381 0.609633 0.610127 0.503769
C81   C     C_R   0.390382 0.389830 0.110703 0.499804
C82   C     C_R   0.609618 0.610170 0.889297 0.499804
C83   C     C_R   0.389716 0.110159 0.390565 0.499628
C84   C     C_R   0.610283 0.889840 0.609435 0.499631
C85   C     C_R   0.149665 0.960230 0.351147 -0.133048
C86   C     C_R   0.850333 0.039771 0.648851 -0.133047
C87   C     C_R   0.080741 0.318657 0.017144 -0.118701
C88   C     C_R   0.223598 0.609429 0.190940 -0.097471
C89   C     C_R   0.919269 0.681343 0.982847 -0.118690
C90   C     C_R   0.317672 0.021560 0.075547 -0.129929
C91   C     C_R   0.682329 0.978438 0.924457 -0.129927
C92   C     C_R   0.154425 0.913162 0.308922 -0.120356
C93   C     C_R   0.845572 0.086840 0.691075 -0.120351
C94   C     C_R   0.036234 0.273997 0.021923 -0.125303
C95   C     C_R   0.963778 0.726004 0.978063 -0.125285
C96   C     C_R   0.275415 0.024318 0.029612 -0.136681
C97   C     C_R   0.724585 0.975681 0.970391 -0.136684
C98   C     C_R   0.081767 0.888836 0.336713 0.269728
C99   C     C_R   0.776423 0.390554 0.809079 -0.097488
C100  C     C_R   0.918230 0.111166 0.663286 0.269729
C101  C     C_R   0.948221 0.318755 0.020612 0.272919
C102  C     C_R   0.051789 0.681245 0.979381 0.272947
C103  C     C_R   0.322475 0.021660 0.941759 0.272801
C104  C     C_R   0.677525 0.978341 0.058245 0.272821
C105  C     C_R   0.012833 0.897576 0.417240 -0.079542
C106  C     C_R   0.987168 0.102421 0.582763 -0.079530
C107  C     C_R   0.913833 0.411846 0.998747 -0.048520
C108  C     C_R   0.086176 0.588154 0.001246 -0.048516
C109  C     C_R   0.415058 0.000546 0.909072 -0.047283
C110  C     C_R   0.606283 0.191528 0.224885 -0.110711
C111  C     C_R   0.584942 0.999452 0.090931 -0.047276
C112  C     C_R   0.007710 0.943560 0.463501 -0.037598
C113  C     C_R   0.992291 0.056438 0.536500 -0.037594
C114  C     C_R   0.960611 0.458329 0.990552 -0.035947
C115  C     C_R   0.039396 0.541671 0.009441 -0.035949
C116  C     C_R   0.459469 0.992263 0.958068 -0.037049
C117  C     C_R   0.540532 0.007735 0.041935 -0.037050
C118  C     C_R   0.072119 0.984552 0.422184 0.001687
C119  C     C_R   0.927881 0.015447 0.577815 0.001687
C120  C     C_R   0.037742 0.407889 0.014959 0.002658
H1    H     H_    0.987108 0.658840 0.438372 0.146060
H2    H     H_    0.851085 0.717932 0.983997 0.152732
H3    H     H_    0.279276 0.021522 0.143502 0.144470
H4    H     H_    0.720725 0.978475 0.856502 0.144473
H5    H     H_    0.213510 0.898521 0.252818 0.095122
H6    H     H_    0.786484 0.101484 0.747177 0.095125
H7    H     H_    0.070416 0.203967 0.030199 0.068358
H8    H     H_    0.929596 0.796037 0.969777 0.068339
H9    H     H_    0.205726 0.030936 0.062666 0.069202
H10   H     H_    0.794275 0.969061 0.937336 0.069192
H11   H     H_    0.961814 0.873229 0.436720 0.178530
H12   H     H_    0.012890 0.341160 0.561629 0.146061
H13   H     H_    0.038190 0.126763 0.563290 0.178528
H14   H     H_    0.847434 0.446274 0.994734 0.155721
H15   H     H_    0.152575 0.553724 0.005260 0.155721
H16   H     H_    0.450907 0.996158 0.842490 0.154849
H17   H     H_    0.549092 0.003840 0.157514 0.154850
H18   H     H_    0.207396 0.689405 0.061699 0.135532
H19   H     H_    0.792646 0.310577 0.938314 0.135583
H20   H     H_    0.687886 0.062910 0.208884 0.139270
H21   H     H_    0.312099 0.937090 0.791138 0.139279
H22   H     H_    0.057576 0.201391 0.674020 0.146431
H23   H     H_    0.659581 0.437591 0.984674 0.144571
H24   H     H_    0.942420 0.798603 0.325985 0.146435
H25   H     H_    0.293931 0.599281 0.165580 0.099847
H26   H     H_    0.706092 0.400693 0.834447 0.099849
H27   H     H_    0.594740 0.166283 0.295877 0.100918
H28   H     H_    0.405224 0.833720 0.704142 0.100912
H29   H     H_    0.159936 0.286671 0.599146 0.100622
H30   H     H_    0.840057 0.713331 0.400837 0.100619
H31   H     H_    0.219904 0.530729 0.327091 0.091717
H32   H     H_    0.780098 0.469251 0.672932 0.091724
H33   H     H_    0.527389 0.327212 0.220722 0.091619
H34   H     H_    0.340420 0.562407 0.015325 0.144581
H35   H     H_    0.472584 0.672791 0.779287 0.091624
H36   H     H_    0.322691 0.212548 0.541334 0.092816
H37   H     H_    0.677302 0.787456 0.458647 0.092824
H38   H     H_    0.971379 0.645773 0.281075 0.094699
H39   H     H_    0.028640 0.354241 0.718913 0.094703
H40   H     H_    0.648296 0.281188 0.970202 0.093952
H41   H     H_    0.351731 0.718808 0.029802 0.093952
H42   H     H_    0.281023 0.965834 0.635751 0.093680
H43   H     H_    0.718977 0.034157 0.364271 0.093679
H44   H     H_    0.045401 0.713956 0.121202 0.148848
H45   H     H_    0.436893 0.981506 0.661263 0.146154
H46   H     H_    0.954639 0.286049 0.878790 0.148893
H47   H     H_    0.717044 0.122101 0.044909 0.147959
H48   H     H_    0.282972 0.877895 0.955107 0.147984
H49   H     H_    0.118555 0.040963 0.692287 0.120721
H50   H     H_    0.881445 0.959024 0.307742 0.120720
H51   H     H_    0.917192 0.026551 0.819272 0.112493
H52   H     H_    0.821795 0.127008 0.833560 0.139048
H53   H     H_    0.922925 0.183274 0.829095 0.177905
H54   H     H_    0.906883 0.083874 0.922907 0.084380
H55   H     H_    0.009362 0.076591 0.828751 0.132776
H56   H     H_    0.563104 0.018488 0.338740 0.146156
H57   H     H_    0.178202 0.872980 0.166440 0.139055
H58   H     H_    0.082829 0.973453 0.180724 0.112493
H59   H     H_    0.990623 0.923446 0.171249 0.132800
H60   H     H_    0.093082 0.916185 0.077089 0.084393
H61   H     H_    0.077053 0.816775 0.170868 0.177870
H62   H     H_    0.014538 0.846712 0.973530 0.111666
H63   H     H_    0.059397 0.836753 0.863305 0.139242
H64   H     H_    0.207433 0.822228 0.846530 0.175398
H65   H     H_    0.122562 0.926831 0.859638 0.081185
H66   H     H_    0.158393 0.839300 0.953035 0.147426
H67   H     H_    0.207226 0.978171 0.326865 0.126547
H68   H     H_    0.940496 0.163360 0.136820 0.139271
H69   H     H_    0.985423 0.153198 0.026684 0.111699
H70   H     H_    0.841605 0.160606 0.047128 0.147410
H71   H     H_    0.877274 0.073234 0.140673 0.081194
H72   H     H_    0.792451 0.177944 0.153511 0.175432
H73   H     H_    0.847589 0.955512 0.029468 0.112635
H74   H     H_    0.820406 0.853364 0.083473 0.135614
H75   H     H_    0.800285 0.846236 0.229049 0.174092
H76   H     H_    0.911049 0.845099 0.150264 0.084869
H77   H     H_    0.829878 0.945774 0.175181 0.150417
H78   H     H_    0.792772 0.021830 0.673130 0.126544
H79   H     H_    0.179656 0.146688 0.916454 0.135644
H80   H     H_    0.152387 0.044590 0.970508 0.112657
H81   H     H_    0.170096 0.054263 0.824831 0.150410
H82   H     H_    0.088995 0.154985 0.849661 0.084905
H83   H     H_    0.199784 0.153744 0.770908 0.174103
H84   H     H_    0.148924 0.282070 0.015994 0.152726
O1    O     O_3   0.250000 0.250000 0.250000 -0.439271
O2    O     O_R   0.865800 0.694910 0.573470 -0.547843
O3    O     O_R   0.305090 0.426530 0.134200 -0.551190
O4    O     O_R   0.694910 0.573470 0.865800 -0.551190
O5    O     O_R   0.426530 0.134200 0.305090 -0.549734
O6    O     O_R   0.573470 0.865800 0.694910 -0.549735
O7    O     O_R   0.134190 0.426530 0.134200 -0.548946
O8    O     O_R   0.865810 0.573470 0.865800 -0.548946
O9    O     O_R   0.426530 0.134200 0.134190 -0.548283
O10   O     O_R   0.573470 0.865800 0.865810 -0.548284
O11   O     O_R   0.134200 0.134190 0.426530 -0.566669
O12   O     O_3   0.750000 0.750000 0.750000 -0.439271
O13   O     O_R   0.865800 0.865810 0.573470 -0.566677
O14   O     O_R   0.426530 0.305080 0.134210 -0.526045
O15   O     O_R   0.573470 0.694920 0.865790 -0.526048
O16   O     O_R   0.305080 0.134210 0.426530 -0.529671
O17   O     O_R   0.694920 0.865790 0.573470 -0.529671
O18   O     O_R   0.134210 0.426530 0.305080 -0.527005
O19   O     O_R   0.865790 0.573470 0.694920 -0.527004
O20   O     O_3   0.923076 0.146924 0.710550 -0.575198
O21   O     O_3   0.076915 0.853085 0.289446 -0.575194
O22   O     O_3   0.106498 0.722732 0.962804 -0.582480
O23   O     O_R   0.305080 0.134200 0.134200 -0.558574
O24   O     O_3   0.893523 0.277265 0.037177 -0.582540
O25   O     O_3   0.716271 0.966144 0.113309 -0.584874
O26   O     O_3   0.283726 0.033851 0.886701 -0.584902
O27   O     O_R   0.694920 0.865800 0.865800 -0.558574
O28   O     O_R   0.134200 0.134200 0.305080 -0.541261
O29   O     O_R   0.865800 0.865800 0.694920 -0.541254
O30   O     O_R   0.134200 0.305080 0.134200 -0.543312
O31   O     O_R   0.865800 0.694920 0.865800 -0.543312
O32   O     O_R   0.134200 0.305090 0.426530 -0.547845
Zn1   Zn    Zn3+2 0.206620 0.206630 0.380140 0.929475
Zn2   Zn    Zn3+2 0.793380 0.793370 0.619860 0.929472
Zn3   Zn    Zn3+2 0.206630 0.380140 0.206620 0.939685
Zn4   Zn    Zn3+2 0.793370 0.619860 0.793380 0.939686
Zn5   Zn    Zn3+2 0.380140 0.206620 0.206630 0.933455
Zn6   Zn    Zn3+2 0.619860 0.793380 0.793370 0.933453
Zn7   Zn    Zn3+2 0.206620 0.206620 0.206620 0.914570
Zn8   Zn    Zn3+2 0.793380 0.793380 0.793380 0.914577

loop_
_geom_bond_atom_site_label_1
_geom_bond_atom_site_label_2
_ccdc_geom_bond_type
C85   H67   S    
C40   C47   A    
C80   O2    A    
C59   H1    S    
C27   H32   S    
C23   H79   S    
C44   O11   A    
C90   H3    S    
C6    C119  A    
C40   H39   S    
C36   C42   A    
C19   C20   S    
C1    C11   S    
C77   O31   A    
C6    C55   S    
C5    C91   A    
C92   H5    S    
C60   H12   S    
C20   H71   S    
C82   O4    A    
C42   H41   S    
C92   C98   A    
C55   O13   A    
C38   C76   S    
C94   H7    S    
C53   C99   A    
C48   C54   A    
C29   C36   A    
C35   C75   S    
C98   C105  A    
C57   H22   S    
C15   O21   S    
C101  O24   S    
C34   C40   A    
C108  C115  A    
C26   H31   S    
O15   Zn6   S    
C97   H10   S    
C107  H14   S    
C25   H81   S    
O19   Zn4   S    
O23   Zn7   S    
C84   O6    A    
C64   C71   A    
C13   C57   A    
C89   H2    S    
C100  O20   S    
C68   C74   A    
C15   C16   S    
O28   Zn7   S    
C87   C94   A    
C46   C52   A    
O18   Zn3   S    
C102  O22   S    
O32   Zn1   S    
C54   C110  A    
C32   C39   A    
O1    Zn3   S    
C93   H6    S    
C12   O20   S    
C38   C45   A    
C22   H77   S    
C109  C116  A    
C9    C66   S    
C45   C51   A    
C17   H62   S    
C61   H23   S    
C106  H13   S    
C54   H20   S    
C82   O15   A    
C94   C101  A    
C52   H18   S    
C88   H25   S    
C102  C108  A    
C86   C119  A    
O11   Zn1   S    
C21   H74   S    
C31   H37   S    
C70   C84   S    
C59   C73   A    
C4    C90   A    
C77   O8    A    
C95   C102  A    
O3    Zn3   S    
O30   Zn7   S    
C29   H35   S    
C98   O21   S    
C1    O23   A    
C103  O26   S    
C30   H36   S    
C103  C109  A    
C21   O25   S    
C65   C80   S    
C46   H44   S    
C21   C22   S    
C109  H16   S    
C7    C118  A    
C22   H76   S    
O16   Zn1   S    
C55   O29   A    
C86   H78   S    
O1    Zn5   S    
C95   H8    S    
C5    C10   A    
C85   C92   A    
C4    C116  A    
C12   H51   S    
C71   C83   S    
O12   Zn8   S    
C27   C34   A    
O12   Zn6   S    
C106  C113  A    
C9    C115  A    
C13   C30   A    
C52   C88   A    
C67   C79   S    
O4    Zn4   S    
C60   C67   A    
C108  H15   S    
C105  H11   S    
C3    C8    A    
O5    Zn5   S    
C32   C73   S    
C47   H46   S    
C26   C32   A    
C28   C110  A    
C23   H80   S    
C18   H66   S    
C61   C75   A    
C62   H34   S    
C30   C37   A    
C5    C117  A    
O12   Zn4   S    
C97   C104  A    
C89   C95   A    
C19   O24   S    
C107  C114  A    
C20   H72   S    
C14   H55   S    
C86   C93   A    
C19   H68   S    
C112  C118  A    
C41   H40   S    
C17   O22   S    
C17   H63   S    
O29   Zn8   S    
C63   C70   A    
C18   H64   S    
O14   Zn5   S    
C27   C99   A    
C17   C18   S    
C64   C76   A    
O1    Zn7   S    
O2    Zn2   S    
C51   C58   A    
C113  C119  A    
C7    C44   S    
C91   C97   A    
C4    C11   A    
O1    Zn1   S    
C93   C100  A    
O6    Zn6   S    
C83   O5    A    
C24   H30   S    
C49   H48   S    
C39   C46   A    
C67   C73   A    
C56   H21   S    
C24   C58   A    
C99   H26   S    
C66   O30   A    
C25   H82   S    
C91   H4    S    
C15   H57   S    
C39   H38   S    
C1    O9    A    
C8    C77   S    
O7    Zn3   S    
C37   C43   A    
C15   H58   S    
C64   H56   S    
C84   O17   A    
C70   C76   A    
C81   O14   A    
C110  H27   S    
C11   C117  A    
C34   C72   S    
C87   H84   S    
C10   C116  A    
C12   H52   S    
C79   O18   A    
C28   C35   A    
C36   C74   S    
C53   H19   S    
C50   C57   A    
C6    C112  A    
C105  C112  A    
C51   H50   S    
C81   O3    A    
C12   C14   S    
C25   H83   S    
C19   H69   S    
C79   O32   A    
C104  C111  A    
C33   O10   A    
C16   H59   S    
C43   C50   A    
C90   C96   A    
C22   H75   S    
C8    C114  A    
C14   H53   S    
C65   C72   A    
C37   C78   S    
C18   H65   S    
C100  C106  A    
C31   C38   A    
O10   Zn6   S    
O17   Zn2   S    
C3    C89   A    
C68   C82   S    
C7    C113  A    
O9    Zn5   S    
O27   Zn8   S    
C44   O28   A    
C24   C31   A    
O12   Zn2   S    
C87   C120  A    
C14   H54   S    
C49   C56   A    
C3    C115  A    
C111  C117  A    
C59   C65   A    
C80   O19   A    
C20   H70   S    
C83   O16   A    
C61   C68   A    
C104  O25   S    
C28   H33   S    
C48   H47   S    
C111  H17   S    
C47   C53   A    
C41   C48   A    
C69   C75   A    
C10   C33   S    
C23   C25   S    
C45   H43   S    
C85   C118  A    
C35   C41   A    
O31   Zn8   S    
C23   O26   S    
C69   C81   S    
C50   H49   S    
C42   C49   A    
C13   H29   S    
C16   H61   S    
C43   H42   S    
C58   H24   S    
C63   H45   S    
C2    C29   A    
C62   C69   A    
C26   C88   A    
C96   C103  A    
C101  C107  A    
C9    C120  A    
C60   C72   A    
C62   C74   A    
C2    C56   A    
O8    Zn4   S    
C21   H73   S    
C66   O7    A    
C33   O27   A    
C2    H28   S    
O13   Zn2   S    
C71   C78   A    
C114  C120  A    
C16   H60   S    
C96   H9    S    
C63   C78   A    
