data_mof_unit_18909.cif
_audit_creation_date              2013-03-05T16:37:39-0500
_audit_creation_method            fapswitch 2.2
_symmetry_space_group_name_H-M    P1
_symmetry_Int_Tables_number       1
_space_group_crystal_system       triclinic
_cell_length_a                    15.975261
_cell_length_b                    14.754716
_cell_length_c                    15.121911
_cell_angle_alpha                 89.982268
_cell_angle_beta                  90.381011
_cell_angle_gamma                 89.720895
_cell_volume                      3564.27097308

loop_
_atom_site_label
_atom_site_type_symbol
_atom_site_description
_atom_site_fract_x
_atom_site_fract_y
_atom_site_fract_z
_atom_type_partial_charge
O1    O     O_R   0.380310 0.575320 0.500020 -0.536183
O2    O     O_R   0.619690 0.424680 0.499980 -0.545951
O3    O     O_R   0.619690 0.575320 0.499980 -0.596947
O4    O     O_R   0.380310 0.424680 0.500020 -0.604373
C1    C     C_R   0.340813 0.500155 0.499101 0.877937
C2    C     C_R   0.659127 0.499612 0.499667 0.878579
O5    O     O_R   0.499980 0.575350 0.370250 -0.565061
O6    O     O_R   0.500020 0.424650 0.629750 -0.552748
O7    O     O_R   0.500020 0.575350 0.629750 -0.545913
O8    O     O_R   0.499980 0.424650 0.370250 -0.553515
C3    C     C_R   0.499844 0.500047 0.328635 0.915710
C4    C     C_R   0.500051 0.499954 0.671425 0.920392
Cu1   Cu    Cu3+1 0.500000 0.589220 0.500000 1.077364
Cu2   Cu    Cu3+1 0.500000 0.410780 0.500000 1.065936
C5    C     C_R   0.560187 0.448390 0.813742 0.288377
C6    C     C_R   0.439801 0.551482 0.186275 0.289083
C7    C     C_R   0.499881 0.499665 0.767858 -0.289916
C8    C     C_R   0.499961 0.500190 0.232332 -0.296464
C9    C     C_R   0.439285 0.550314 0.813018 0.280116
C10   C     C_R   0.560309 0.449046 0.187374 0.290738
C11   C     C_R   0.434685 0.544731 0.906093 -0.113647
C12   C     C_R   0.564763 0.454200 0.094286 -0.122256
C13   C     C_R   0.499658 0.499152 0.953342 -0.048285
C14   C     C_R   0.499781 0.499598 0.046913 -0.052608
C15   C     C_R   0.564374 0.452985 0.907054 -0.120814
C16   C     C_R   0.435037 0.545649 0.093156 -0.116108
C17   C     C_R   0.365933 0.581563 0.952880 0.251696
C18   C     C_R   0.633109 0.416645 0.047602 0.262774
C19   C     C_R   0.366259 0.582367 0.045379 0.257869
C20   C     C_R   0.632399 0.414925 0.955163 0.268264
C21   C     C_R   0.954369 0.566822 0.448364 0.301218
C22   C     C_R   0.045084 0.417077 0.513261 0.306796
C23   C     C_R   0.041997 0.570885 0.453752 0.320414
C24   C     C_R   0.957214 0.417777 0.518239 0.317779
C25   C     C_R   0.912336 0.492722 0.485512 -0.188627
C26   C     C_R   0.087151 0.495559 0.485346 -0.188434
C27   C     C_1   0.822880 0.494960 0.491342 0.114794
C28   C     C_1   0.176760 0.498717 0.490106 0.130382
C29   C     C_1   0.251737 0.500154 0.494625 -0.088206
C30   C     C_1   0.748043 0.497828 0.495801 -0.099333
C31   C     C_R   0.577770 0.951506 0.506123 0.347678
C32   C     C_R   0.426668 0.048455 0.486868 0.344737
C33   C     C_R   0.427192 0.952508 0.482404 0.346136
C34   C     C_R   0.578332 0.047944 0.504892 0.340850
C35   C     C_R   0.502188 0.902973 0.495963 -0.301829
C36   C     C_R   0.502181 0.097300 0.496600 -0.298159
C37   C     C_1   0.501192 0.802674 0.498646 0.315272
C38   C     C_1   0.500725 0.197397 0.498863 0.277120
N1    N     N_1   0.500000 0.276710 0.500000 -0.161227
N2    N     N_1   0.500000 0.723290 0.500000 -0.153721
N3    N     N_R   0.616089 0.391247 0.764589 0.156439
O9    O     O_R   0.605339 0.303906 0.764805 -0.303614
O10   O     O_R   0.670525 0.426759 0.711296 -0.366064
N4    N     N_R   0.385383 0.610951 0.234710 0.157083
O11   O     O_R   0.332040 0.578195 0.290839 -0.349511
O12   O     O_R   0.395115 0.698237 0.229032 -0.363712
N5    N     N_R   0.384328 0.609125 0.763708 0.160387
O13   O     O_R   0.331610 0.575721 0.706560 -0.345653
O14   O     O_R   0.392680 0.696554 0.769984 -0.294189
N6    N     N_R   0.615374 0.390529 0.236953 0.157306
O15   O     O_R   0.606563 0.303070 0.231883 -0.333596
O16   O     O_R   0.668611 0.424382 0.293301 -0.382993
N7    N     N_R   0.290043 0.606975 0.907817 0.179620
O17   O     O_R   0.264828 0.690945 0.907621 -0.246273
O18   O     O_R   0.242147 0.544624 0.874183 -0.293511
N8    N     N_R   0.708960 0.390883 0.092613 0.182121
O19   O     O_R   0.757239 0.453045 0.125962 -0.338953
O20   O     O_R   0.733643 0.306729 0.093275 -0.258974
N9    N     N_R   0.290955 0.609441 0.089544 0.181016
O21   O     O_R   0.267848 0.694110 0.090210 -0.272571
O22   O     O_R   0.241586 0.548166 0.122019 -0.297225
N10   N     N_R   0.706304 0.383488 0.911393 0.171868
O23   O     O_R   0.760798 0.441716 0.883009 -0.323529
O24   O     O_R   0.724398 0.297441 0.910598 -0.285724
O25   O     O_3   0.083692 0.645610 0.421195 -0.576021
C39   C     C_3   0.081018 0.715787 0.484713 0.114827
H1    H     H_    0.128331 0.701951 0.537480 0.164611
H2    H     H_    0.018123 0.723032 0.515781 0.159999
C40   C     C_3   0.101619 0.805330 0.439353 -0.317534
H3    H     H_    0.164831 0.800663 0.409637 0.235747
H4    H     H_    0.055531 0.818250 0.385326 0.219791
C41   C     C_3   0.099276 0.884290 0.504460 -0.910160
H5    H     H_    0.036715 0.889381 0.535881 0.258981
H6    H     H_    0.111370 0.948452 0.468651 0.249256
H7    H     H_    0.148052 0.875139 0.556506 0.281596
O26   O     O_3   0.914535 0.342215 0.547417 -0.599967
C42   C     C_3   0.917722 0.339605 0.640651 0.086935
H8    H     H_    0.888009 0.401526 0.669104 0.171753
H9    H     H_    0.983539 0.334312 0.664903 0.189316
C43   C     C_3   0.869845 0.256580 0.672563 -0.361416
H10   H     H_    0.802386 0.264681 0.655598 0.269007
H11   H     H_    0.894065 0.194997 0.638738 0.216719
C44   C     C_3   0.879422 0.244007 0.772221 -0.712372
H12   H     H_    0.945701 0.228745 0.789499 0.234026
H13   H     H_    0.839930 0.186673 0.794287 0.279614
H14   H     H_    0.859583 0.306414 0.807383 0.310615
O27   O     O_3   0.910063 0.638642 0.411783 -0.601755
C45   C     C_3   0.882836 0.615642 0.325297 0.081048
H15   H     H_    0.820398 0.647340 0.314664 0.170219
H16   H     H_    0.873932 0.541362 0.314618 0.161793
C46   C     C_3   0.943704 0.653019 0.256674 -0.360052
H17   H     H_    0.952580 0.726820 0.267641 0.231297
H18   H     H_    0.005378 0.618665 0.264050 0.265055
C47   C     C_3   0.911250 0.637825 0.162761 -0.772533
H19   H     H_    0.904037 0.564204 0.149629 0.292929
H20   H     H_    0.956495 0.665991 0.114708 0.272999
H21   H     H_    0.849926 0.672394 0.153138 0.253879
O28   O     O_3   0.089636 0.341152 0.540435 -0.600340
C48   C     C_3   0.113411 0.289034 0.465903 0.097383
H22   H     H_    0.179954 0.268859 0.475048 0.162940
H23   H     H_    0.109858 0.326384 0.401603 0.138146
C49   C     C_3   0.060163 0.203243 0.460516 -0.343897
H24   H     H_    0.067595 0.163575 0.522566 0.228158
H25   H     H_    0.993244 0.222281 0.453265 0.253195
C50   C     C_3   0.085056 0.144334 0.381919 -0.930330
H26   H     H_    0.074506 0.181763 0.319052 0.276231
H27   H     H_    0.046254 0.082105 0.380875 0.258042
H28   H     H_    0.152036 0.124343 0.386869 0.266477
O29   O     O_3   0.653963 0.091772 0.519170 -0.557999
C51   C     C_3   0.678672 0.139106 0.442113 0.085584
H29   H     H_    0.654662 0.209762 0.444752 0.188808
H30   H     H_    0.655767 0.106756 0.379762 0.122195
C52   C     C_3   0.774202 0.143290 0.439172 -0.378646
H31   H     H_    0.798173 0.175730 0.500532 0.246151
H32   H     H_    0.800329 0.073505 0.435530 0.216773
C53   C     C_3   0.803859 0.197578 0.359412 -0.757274
H33   H     H_    0.779775 0.167138 0.297124 0.272465
H34   H     H_    0.873259 0.197137 0.357364 0.242719
H35   H     H_    0.781821 0.268953 0.364117 0.294401
O30   O     O_3   0.352011 0.907475 0.471743 -0.589270
C54   C     C_3   0.344264 0.875369 0.383801 0.110754
H36   H     H_    0.313601 0.808055 0.386596 0.197317
H37   H     H_    0.405262 0.864309 0.349626 0.136602
C55   C     C_3   0.289518 0.940231 0.329221 -0.404112
H38   H     H_    0.230660 0.954929 0.365260 0.236588
H39   H     H_    0.323286 0.005067 0.319434 0.247926
C56   C     C_3   0.267943 0.899980 0.239018 -0.756096
H40   H     H_    0.325947 0.886139 0.201124 0.287567
H41   H     H_    0.228589 0.948720 0.201041 0.252127
H42   H     H_    0.232484 0.835937 0.247022 0.281733
O31   O     O_3   0.351523 0.094260 0.475795 -0.600052
C57   C     C_3   0.321662 0.125297 0.558504 0.091165
H43   H     H_    0.301950 0.197092 0.550079 0.162112
H44   H     H_    0.369274 0.124392 0.613031 0.138418
C58   C     C_3   0.245924 0.069221 0.585953 -0.341705
H45   H     H_    0.200075 0.067185 0.530624 0.228512
H46   H     H_    0.266293 0.998722 0.600823 0.259498
C59   C     C_3   0.203444 0.109176 0.667256 -0.874945
H47   H     H_    0.247791 0.110474 0.724123 0.274765
H48   H     H_    0.148790 0.066892 0.685145 0.263711
H49   H     H_    0.181056 0.179177 0.653285 0.270709
O32   O     O_3   0.651633 0.905051 0.522621 -0.554008
C60   C     C_3   0.692423 0.888562 0.441545 0.069321
H50   H     H_    0.694011 0.950265 0.399145 0.135595
H51   H     H_    0.659733 0.833727 0.404625 0.131577
C61   C     C_3   0.782509 0.858640 0.460573 -0.289196
H52   H     H_    0.812159 0.906893 0.507613 0.232346
H53   H     H_    0.782365 0.790299 0.491569 0.240166
C62   C     C_3   0.834358 0.855744 0.376256 -0.903992
H54   H     H_    0.804784 0.810402 0.326669 0.259710
H55   H     H_    0.898130 0.830043 0.391963 0.276316
H56   H     H_    0.839906 0.924778 0.347633 0.250023

loop_
_geom_bond_atom_site_label_1
_geom_bond_atom_site_label_2
_geom_bond_distance
_ccdc_geom_bond_type
N8    O20   1.300957 A    
C42   H8    1.115291 S    
N7    O18   1.300942 A    
C3    C8    1.456295 S    
C46   H17   1.111143 S    
C17   C19   1.398785 A    
C61   C62   1.525567 S    
C39   C40   1.526768 S    
C54   C55   1.530928 S    
C55   C56   1.525887 S    
C49   H25   1.108721 S    
C58   H45   1.108833 S    
C43   H10   1.112003 S    
C52   H31   1.110868 S    
C31   O32   1.382942 S    
C9    N5    1.436409 S    
O5    C3    1.277087 A    
C56   H41   1.110303 S    
C53   H33   1.110881 S    
O1    C1    1.278676 A    
C22   C26   1.407748 A    
C61   H52   1.111919 S    
C9    C11   1.412279 A    
C39   H2    1.116670 S    
C27   C30   1.198430 T    
C2    C30   1.422163 S    
C48   H23   1.118461 S    
C24   O26   1.383356 S    
C28   C29   1.199575 T    
C52   H32   1.110671 S    
Cu2   N1    1.978166 S    
C50   H26   1.110771 S    
C23   C26   1.403974 A    
O28   C48   1.417487 S    
N6    O16   1.301392 A    
C24   C25   1.403182 A    
C32   C36   1.415088 A    
N9    O22   1.300918 A    
O7    Cu1   1.972646 S    
C49   H24   1.111126 S    
C23   O25   1.383057 S    
C34   C36   1.419608 A    
C50   H27   1.110376 S    
C4    C7    1.458278 S    
O6    Cu2   1.972773 S    
C13   C14   1.414969 A    
C62   H55   1.109536 S    
C5    N3    1.436237 S    
C10   N6    1.436937 S    
O3    Cu1   1.922053 S    
C51   C52   1.528598 S    
O3    C2    1.279817 A    
C13   C15   1.423329 A    
N8    O19   1.300927 A    
C11   C17   1.416687 A    
C46   H18   1.110738 S    
C12   C18   1.414970 A    
Cu1   Cu2   2.632830 S    
C57   C58   1.528725 S    
O2    C2    1.275193 A    
C47   H20   1.110364 S    
C47   H19   1.110725 S    
C58   H46   1.110863 S    
C51   H30   1.117194 S    
O27   C45   1.417366 S    
C37   N2    1.171703 T    
C19   N9    1.434916 S    
C35   C37   1.480594 S    
C6    C16   1.412354 A    
C56   H42   1.111078 S    
C36   C38   1.477380 S    
N3    O9    1.300917 A    
C49   C50   1.526381 S    
C59   H49   1.111109 S    
C39   H1    1.113579 S    
N10   O24   1.300802 A    
O8    Cu2   1.972648 S    
C48   C49   1.530418 S    
C40   H4    1.111944 S    
O26   C42   1.410959 S    
O4    C1    1.277294 A    
C52   C53   1.526946 S    
C55   H39   1.110889 S    
C53   H35   1.111223 S    
N7    O17   1.300927 A    
Cu1   N2    1.978166 S    
N6    O15   1.300993 A    
N3    O10   1.301451 A    
C22   C24   1.406247 A    
C18   N8    1.435425 S    
O25   C39   1.413249 S    
C43   H11   1.111956 S    
C62   H54   1.109828 S    
O6    C4    1.277541 A    
C50   H28   1.110583 S    
C32   O31   1.383921 S    
C21   C23   1.403270 A    
C62   H56   1.110780 S    
C44   H12   1.110878 S    
C59   H47   1.110770 S    
C60   C61   1.528746 S    
C33   C35   1.414116 A    
C17   N7    1.434981 S    
C16   C19   1.416379 A    
C59   H48   1.110433 S    
C38   N1    1.170380 T    
C10   C12   1.411972 A    
C45   H15   1.110311 S    
C44   H14   1.109392 S    
C45   H16   1.117493 S    
C11   C13   1.422384 A    
C31   C34   1.423104 A    
C12   C14   1.422171 A    
C60   H51   1.113355 S    
C32   C33   1.417298 A    
C54   H36   1.110485 S    
C41   H7    1.111557 S    
C58   C59   1.525553 S    
C51   H29   1.109901 S    
C43   C44   1.524926 S    
C15   C20   1.417349 A    
C5    C7    1.402008 A    
N4    O11   1.301385 A    
C53   H34   1.109302 S    
C25   C27   1.432609 S    
C33   O30   1.383923 S    
C14   C16   1.422517 A    
N10   O23   1.300863 A    
C54   H37   1.117344 S    
C40   C41   1.526046 S    
C20   N10   1.432632 S    
O29   C51   1.417630 S    
N4    O12   1.300848 A    
C55   H38   1.110442 S    
C46   C47   1.525578 S    
C45   C46   1.531275 S    
C56   H40   1.110846 S    
C41   H6    1.108898 S    
C34   O29   1.388825 S    
C1    C29   1.424160 S    
O30   C54   1.416689 S    
C18   C20   1.398063 A    
C48   H22   1.110284 S    
C26   C28   1.433834 S    
N5    O13   1.301393 A    
C44   H13   1.110318 S    
C21   C25   1.404849 A    
C61   H53   1.111856 S    
C7    C9    1.401432 A    
C8    C10   1.401096 A    
C21   O27   1.384578 S    
O4    Cu2   1.922057 S    
N9    O21   1.301004 A    
O2    Cu2   1.924040 S    
O7    C4    1.278374 A    
C6    N4    1.436506 S    
N5    O14   1.300936 A    
O8    C3    1.277938 A    
C40   H3    1.109867 S    
O5    Cu1   1.972774 S    
O1    Cu1   1.924043 S    
O32   C60   1.412867 S    
C5    C15   1.413851 A    
C6    C8    1.401841 A    
C41   H5    1.111687 S    
C22   O28   1.385070 S    
C42   C43   1.527155 S    
C42   H9    1.113635 S    
C31   C35   1.414325 A    
C57   H43   1.110712 S    
C60   H50   1.113859 S    
O31   C57   1.416954 S    
C47   H21   1.110966 S    
C57   H44   1.118087 S    
