data_mof_unit_26178.cif
_audit_creation_date              2012-12-11T14:40:17-0500
_audit_creation_method            fapswitch 2.2
_symmetry_space_group_name_H-M    P1
_symmetry_Int_Tables_number       1
_space_group_crystal_system       triclinic
_cell_length_a                    19.540835
_cell_length_b                    10.891464
_cell_length_c                    19.529219
_cell_angle_alpha                 89.816449
_cell_angle_beta                  97.569636
_cell_angle_gamma                 89.671157
_cell_volume                      4120.04903834

loop_
_atom_site_label
_atom_site_type_symbol
_atom_type_description
_atom_site_fract_x
_atom_site_fract_y
_atom_site_fract_z
_atom_type_partial_charge
C1    C     C_R   0.726483 0.947591 0.359178 0.547287
C2    C     C_R   0.289570 0.992356 0.632305 0.531187
C3    C     C_R   0.225936 0.449527 0.359958 0.546954
C4    C     C_R   0.773799 0.450974 0.639881 0.552901
C5    C     C_3   0.702566 0.283954 0.497790 -0.165056
C6    C     C_3   0.226087 0.293305 0.513591 -0.132873
C7    C     C_3   0.204599 0.818462 0.499805 -0.158086
C8    C     C_3   0.725868 0.785208 0.511893 -0.132331
C9    C     C_3   0.734363 0.350696 0.440205 0.036066
C10   C     C_3   0.255708 0.391592 0.565372 0.060483
C11   C     C_3   0.239131 0.863995 0.438450 0.040474
C12   C     C_3   0.758302 0.881023 0.563663 0.055430
C13   C     C_3   0.714418 0.476287 0.466663 -0.113394
C14   C     C_3   0.315303 0.415578 0.523066 -0.106246
C15   C     C_3   0.230079 0.998398 0.458132 -0.113873
C16   C     C_3   0.817904 0.900915 0.520910 -0.109080
C17   C     C_3   0.785723 0.480582 0.511697 -0.127264
C18   C     C_3   0.269834 0.516580 0.484026 -0.123606
C19   C     C_3   0.302268 0.992818 0.501618 -0.152120
C20   C     C_3   0.774589 0.005497 0.483091 -0.120244
C21   C     C_3   0.805799 0.355034 0.484416 -0.104563
C22   C     C_3   0.210617 0.491420 0.527890 -0.141120
C23   C     C_3   0.311401 0.857896 0.481062 -0.107655
C24   C     C_3   0.715330 0.983842 0.527404 -0.143305
C25   C     C_3   0.773957 0.290319 0.542308 -0.021144
C26   C     C_3   0.181594 0.394332 0.475850 -0.001528
C27   C     C_3   0.276619 0.814599 0.542509 -0.004427
C28   C     C_3   0.683445 0.889758 0.475188 -0.000697
C29   C     C_3   0.754298 0.413847 0.569323 0.045270
C30   C     C_3   0.239827 0.419272 0.432181 0.041565
C31   C     C_3   0.268202 0.948069 0.563142 0.044081
C32   C     C_3   0.741574 0.911793 0.430726 0.041401
C33   C     C_3   0.526961 0.271910 0.977102 -0.012603
C34   C     C_3   0.469167 0.269491 0.022564 -0.013343
C35   C     C_3   0.026957 0.771914 0.977103 -0.012673
C36   C     C_3   0.969163 0.769487 0.022565 -0.013575
C37   C     C_3   0.567483 0.173083 0.022056 -0.131457
C38   C     C_3   0.431901 0.167581 0.978168 -0.130076
C39   C     C_3   0.067483 0.673090 0.022057 -0.131448
C40   C     C_3   0.931901 0.667574 0.978169 -0.130099
C41   C     C_3   0.508444 0.170999 0.067606 0.031449
C42   C     C_3   0.490990 0.170339 0.932650 0.029278
C43   C     C_3   0.008443 0.670999 0.067606 0.031357
C44   C     C_3   0.990990 0.670339 0.932651 0.029640
C45   C     C_R   0.556871 0.182540 0.347812 0.530249
C46   C     C_R   0.439115 0.183502 0.651751 0.526778
C47   C     C_R   0.057366 0.682570 0.347927 0.530477
C48   C     C_R   0.938939 0.683475 0.651714 0.539303
C49   C     C_3   0.472256 0.067541 0.023937 -0.126576
C50   C     C_3   0.530551 0.069998 0.976980 -0.129291
C51   C     C_3   0.972260 0.567537 0.023938 -0.126542
C52   C     C_3   0.030555 0.570002 0.976980 -0.129053
C53   C     C_1   0.774230 0.453052 0.910863 0.010705
C54   C     C_1   0.218559 0.474595 0.085367 0.001350
C55   C     C_1   0.274247 0.953098 0.910870 0.009659
C56   C     C_1   0.718559 0.974596 0.085367 0.001512
C57   C     C_1   0.744300 0.390648 0.032042 -0.021596
C58   C     C_1   0.241746 0.437171 0.958239 -0.023177
C59   C     C_1   0.244316 0.890700 0.032051 -0.021445
C60   C     C_1   0.741746 0.937174 0.958238 -0.023480
C61   C     C_1   0.759670 0.424192 0.966447 -0.017299
C62   C     C_1   0.229414 0.458721 0.026728 -0.021819
C63   C     C_1   0.259688 0.924246 0.966457 -0.017012
C64   C     C_1   0.729413 0.958723 0.026728 -0.021819
C65   C     C_1   0.733407 0.359553 0.088549 0.001774
C66   C     C_1   0.251933 0.410184 0.900669 0.004934
C67   C     C_1   0.233419 0.859593 0.088554 0.001586
C68   C     C_1   0.751933 0.910187 0.900668 0.004066
C69   C     C_R   0.725459 0.312416 0.368224 0.544463
C70   C     C_R   0.261124 0.361828 0.637596 0.557385
C71   C     C_R   0.226640 0.816463 0.368790 0.537623
C72   C     C_R   0.762303 0.857443 0.636343 0.559747
C73   C     C_R   0.704974 0.997013 0.154605 0.537238
C74   C     C_R   0.292540 0.990281 0.845716 0.548605
C75   C     C_R   0.204974 0.497013 0.154605 0.537252
C76   C     C_R   0.792531 0.490258 0.845716 0.545010
C77   C     C_R   0.529365 0.178851 0.141161 0.547168
C78   C     C_R   0.470431 0.178313 0.858993 0.549645
C79   C     C_R   0.029365 0.678851 0.141161 0.547274
C80   C     C_R   0.970431 0.678313 0.858994 0.549228
C81   C     C_R   0.723912 0.317118 0.155686 0.530616
C82   C     C_R   0.263429 0.361980 0.834962 0.543462
C83   C     C_R   0.223917 0.817135 0.155685 0.530566
C84   C     C_R   0.763428 0.861983 0.834961 0.542174
C85   C     C_1   0.464160 0.175906 0.586580 -0.016674
C86   C     C_1   0.528278 0.174890 0.411133 0.010285
C87   C     C_1   0.963904 0.675671 0.586465 -0.011525
C88   C     C_1   0.028909 0.674796 0.411362 0.008177
C89   C     C_1   0.506986 0.171997 0.465993 -0.033108
C90   C     C_1   0.483927 0.172436 0.531000 -0.049956
C91   C     C_1   0.007373 0.671723 0.466119 -0.033431
C92   C     C_1   0.983855 0.672074 0.530953 -0.045719
C93   C     C_3   0.683055 0.410714 0.525708 -0.130302
C94   C     C_3   0.284988 0.318873 0.469733 -0.166481
C95   C     C_3   0.195959 0.954120 0.521030 -0.120494
C96   C     C_3   0.784665 0.807206 0.467104 -0.164662
Cr1   Cr    Cr6+3 0.765830 0.160660 0.268180 1.042547
Cr2   Cr    Cr6+3 0.234170 0.160660 0.731820 1.044601
Cr3   Cr    Cr6+3 0.265830 0.660660 0.268180 1.042124
Cr4   Cr    Cr6+3 0.734170 0.660660 0.731820 1.041085
Cr5   Cr    Cr6+3 0.612110 0.009150 0.248770 1.047164
Cr6   Cr    Cr6+3 0.387890 0.009150 0.751230 1.049714
Cr7   Cr    Cr6+3 0.112110 0.509150 0.248770 1.047678
Cr8   Cr    Cr6+3 0.887890 0.509150 0.751230 1.051414
Cr9   Cr    Cr6+3 0.615930 0.324050 0.248450 1.048121
Cr10  Cr    Cr6+3 0.384070 0.324050 0.751550 1.057498
Cr11  Cr    Cr6+3 0.115930 0.824050 0.248450 1.048776
Cr12  Cr    Cr6+3 0.884070 0.824050 0.751550 1.064078
H1    H     H_    0.633612 0.434356 0.544832 0.132755
H2    H     H_    0.314696 0.250505 0.443509 0.119699
H3    H     H_    0.149250 0.994683 0.539011 0.137372
H4    H     H_    0.812322 0.736293 0.440466 0.124135
H5    H     H_    0.689924 0.551217 0.433179 0.137427
H6    H     H_    0.370390 0.425802 0.544780 0.143770
H7    H     H_    0.210402 0.072272 0.421294 0.140293
H8    H     H_    0.873306 0.906837 0.542219 0.144090
H9    H     H_    0.342861 0.063882 0.504398 0.105409
H10   H     H_    0.796754 0.092304 0.466642 0.136766
H11   H     H_    0.820520 0.560771 0.520125 0.105301
H12   H     H_    0.289431 0.605344 0.467434 0.127696
H13   H     H_    0.856191 0.331737 0.467119 0.151306
H14   H     H_    0.180329 0.559014 0.554045 0.115351
H15   H     H_    0.358922 0.817226 0.464766 0.149817
H16   H     H_    0.687022 0.049128 0.557029 0.114552
H17   H     H_    0.623433 0.176290 0.041434 0.088145
H18   H     H_    0.375889 0.165933 0.958608 0.103978
H19   H     H_    0.123433 0.676304 0.041435 0.088241
H20   H     H_    0.875890 0.665919 0.958608 0.104401
H21   H     H_    0.449135 0.984746 0.044685 0.139900
H22   H     H_    0.556392 0.989289 0.956829 0.137139
H23   H     H_    0.949142 0.484739 0.044685 0.139984
H24   H     H_    0.056398 0.489297 0.956829 0.137276
O1    O     O_R   0.783230 0.287800 0.346510 -0.502650
O2    O     O_R   0.216770 0.287800 0.653490 -0.527421
O3    O     O_R   0.283230 0.787800 0.346510 -0.503733
O4    O     O_R   0.716770 0.787800 0.653490 -0.521183
O5    O     O_R   0.554500 0.081650 0.170370 -0.510251
O6    O     O_R   0.445500 0.081650 0.829630 -0.509205
O7    O     O_R   0.054500 0.581650 0.170370 -0.510301
O8    O     O_R   0.945500 0.581650 0.829630 -0.509182
O9    O     O_R   0.545430 0.285140 0.163100 -0.504283
O10   O     O_R   0.454570 0.285140 0.836900 -0.495996
O11   O     O_R   0.045430 0.785140 0.163100 -0.504243
O12   O     O_R   0.954570 0.785140 0.836900 -0.496507
O13   O     O_R   0.677850 0.374730 0.185500 -0.473327
O14   O     O_R   0.322150 0.374730 0.814500 -0.485882
O15   O     O_R   0.177850 0.874730 0.185500 -0.473533
O16   O     O_R   0.822150 0.874730 0.814500 -0.487379
O17   O     O_3   0.664630 0.164620 0.255130 -0.334198
O18   O     O_3   0.335370 0.164620 0.744870 -0.315862
O19   O     O_3   0.164630 0.664620 0.255130 -0.332555
O20   O     O_3   0.835370 0.664620 0.744870 -0.303339
O21   O     O_R   0.760130 0.037060 0.338610 -0.519555
O22   O     O_R   0.239870 0.037060 0.661390 -0.496656
O23   O     O_R   0.260130 0.537060 0.338610 -0.517245
O24   O     O_R   0.739870 0.537060 0.661390 -0.510232
O25   O     O_R   0.666620 0.921370 0.332440 -0.504509
O26   O     O_R   0.333380 0.921370 0.667560 -0.488649
O27   O     O_R   0.166620 0.421370 0.332440 -0.505097
O28   O     O_R   0.833380 0.421370 0.667560 -0.499604
O29   O     O_R   0.557170 0.082420 0.312350 -0.471938
O30   O     O_R   0.442830 0.082420 0.687650 -0.496312
O31   O     O_R   0.057170 0.582420 0.312350 -0.472146
O32   O     O_R   0.942830 0.582420 0.687650 -0.485447
O33   O     O_R   0.548310 0.285980 0.316250 -0.503606
O34   O     O_R   0.451690 0.285980 0.683750 -0.494504
O35   O     O_R   0.048310 0.785980 0.316250 -0.501977
O36   O     O_R   0.951690 0.785980 0.683750 -0.494741
O37   O     O_R   0.680520 0.375500 0.327470 -0.492161
O38   O     O_R   0.319480 0.375500 0.672530 -0.494714
O39   O     O_R   0.180520 0.875500 0.327470 -0.491692
O40   O     O_R   0.819480 0.875500 0.672530 -0.491233
O41   O     O_R   0.780350 0.286970 0.193350 -0.486929
O42   O     O_R   0.219650 0.286970 0.806650 -0.506353
O43   O     O_R   0.280350 0.786970 0.193350 -0.486981
O44   O     O_R   0.719650 0.786970 0.806650 -0.506093
O45   O     O_R   0.757460 0.036290 0.196640 -0.486760
O46   O     O_R   0.242540 0.036290 0.803360 -0.470384
O47   O     O_R   0.257460 0.536290 0.196640 -0.486438
O48   O     O_R   0.742540 0.536290 0.803360 -0.478663
O49   O     O_R   0.663740 0.920540 0.179290 -0.487170
O50   O     O_R   0.336260 0.920540 0.820710 -0.486968
O51   O     O_R   0.163740 0.420540 0.179290 -0.486989
O52   O     O_R   0.836260 0.420540 0.820710 -0.494040
H25   H     H_    0.665758 0.207756 0.486558 0.091941
H26   H     H_    0.206186 0.203720 0.528520 0.129504
H27   H     H_    0.163803 0.747703 0.496493 0.093762
H28   H     H_    0.704304 0.697024 0.527224 0.134872
C97   C     C_1   0.810735 0.200168 0.590119 0.198085
N1    N     N_1   0.840448 0.131287 0.628477 -0.272456
C98   C     C_1   0.107491 0.377576 0.453294 0.226381
N2    N     N_1   0.049146 0.364013 0.435658 -0.283595
C99   C     C_1   0.304178 0.718109 0.591501 0.220007
N3    N     N_1   0.326537 0.644053 0.630945 -0.273089
C100  C     C_1   0.608791 0.878708 0.453765 0.225708
N4    N     N_1   0.550015 0.869508 0.437039 -0.285553
C101  C     C_1   0.558481 0.382492 0.951902 0.229597
N5    N     N_1   0.583205 0.469690 0.932008 -0.272128
C102  C     C_1   0.434273 0.377113 0.047409 0.230369
N6    N     N_1   0.406871 0.461985 0.067028 -0.271653
C103  C     C_1   0.058473 0.882501 0.951905 0.230182
N7    N     N_1   0.083195 0.969703 0.932013 -0.271220
C104  C     C_1   0.934266 0.877105 0.047410 0.230345
N8    N     N_1   0.906862 0.961974 0.067029 -0.271634

loop_
_geom_bond_atom_site_label_1
_geom_bond_atom_site_label_2
_ccdc_geom_bond_type
C58   C62   S    
C79   O7    A    
C104  N8    T    
Cr2   O22   S    
Cr11  O19   S    
C67   C83   S    
Cr10  O18   S    
C83   O43   A    
C17   C29   S    
C103  N7    T    
C14   C18   S    
C19   C23   S    
C35   C36   S    
C8    C96   S    
Cr1   O1    S    
C44   C80   S    
C19   C31   S    
Cr6   O26   S    
C20   H10   S    
C48   O32   A    
C68   C84   S    
C38   C49   S    
Cr11  O39   S    
C10   C22   S    
C15   C19   S    
C33   C101  S    
C96   H4    S    
Cr2   O18   S    
C5    C9    S    
Cr9   O37   S    
Cr7   O51   S    
C33   C42   S    
C72   O40   A    
C7    H27   S    
C16   C20   S    
C77   O5    A    
C38   C42   S    
C78   O10   A    
C15   C95   S    
Cr2   O42   S    
C41   C77   S    
C11   C71   S    
C72   O4    A    
C43   C79   S    
C40   H20   S    
Cr4   O48   S    
C78   O6    A    
C24   H16   S    
C28   C100  S    
C7    C27   S    
C75   O51   A    
Cr6   O6    S    
Cr5   O17   S    
C49   C50   S    
C45   O29   A    
C7    C11   S    
C9    C13   S    
C50   H22   S    
C59   C67   T    
Cr12  O20   S    
C55   C74   S    
C11   C15   S    
C34   C102  S    
C58   C66   T    
C79   O11   A    
C20   C24   S    
C6    C94   S    
C55   C63   T    
Cr4   O44   S    
C69   O1    A    
C56   C64   T    
C22   H14   S    
C27   C99   S    
C36   C104  S    
Cr1   O21   S    
Cr2   O46   S    
C75   O47   A    
C73   O49   A    
C4    C29   S    
Cr7   O19   S    
C46   C85   S    
C47   O31   A    
C44   C52   S    
C39   C52   S    
C12   C72   S    
Cr5   O25   S    
C102  N6    T    
C2    O22   A    
C18   C22   S    
C87   C92   T    
C3    O27   A    
Cr10  O38   S    
C97   N1    T    
C34   C41   S    
C53   C61   T    
Cr8   O28   S    
C16   H8    S    
C41   C49   S    
C38   H18   S    
Cr10  O10   S    
C52   H24   S    
C37   H17   S    
Cr9   O17   S    
C84   O16   A    
C25   C29   S    
Cr11  O35   S    
C16   C96   S    
C39   H19   S    
C27   C31   S    
C98   N2    T    
Cr6   O50   S    
C21   H13   S    
C12   C16   S    
C36   C40   S    
Cr1   O41   S    
C21   C25   S    
C10   C14   S    
C91   C92   S    
C29   C93   S    
C35   C103  S    
C23   H15   S    
C100  N4    T    
C54   C62   T    
C80   O12   A    
Cr11  O15   S    
C80   O8    A    
Cr3   O19   S    
C94   H2    S    
C1    C32   S    
C8    H28   S    
C51   C52   S    
Cr3   O23   S    
C2    C31   S    
C81   O41   A    
C3    C30   S    
C35   C39   S    
Cr5   O29   S    
Cr3   O47   S    
Cr7   O7    S    
C66   C82   S    
C47   O35   A    
Cr1   O45   S    
C74   O46   A    
C88   C91   T    
C28   C32   S    
C8    C12   S    
Cr9   O13   S    
C3    O23   A    
C33   C34   S    
Cr12  O36   S    
C48   C87   S    
Cr3   O3    S    
Cr4   O20   S    
C69   O37   A    
C1    O21   A    
C35   C44   S    
C19   H9    S    
C42   C50   S    
C83   O15   A    
C10   C70   S    
Cr8   O52   S    
Cr6   O18   S    
C42   C78   S    
C23   C27   S    
Cr12  O40   S    
C46   O30   A    
C18   C30   S    
C8    C28   S    
C15   H7    S    
C59   C63   S    
C25   C97   S    
C53   C76   S    
Cr4   O24   S    
C82   O14   A    
Cr11  O11   S    
C9    C21   S    
C18   H12   S    
Cr12  O12   S    
Cr5   O49   S    
Cr6   O30   S    
C33   C37   S    
C20   C32   S    
C6    H26   S    
Cr5   O5    S    
C56   C73   S    
C46   O34   A    
C4    O24   A    
C34   C38   S    
Cr10  O34   S    
Cr7   O31   S    
Cr8   O20   S    
C24   C28   S    
C57   C65   T    
C76   O48   A    
C86   C89   T    
C4    O28   A    
Cr2   O2    S    
C5    C25   S    
C5    C93   S    
C85   C90   T    
C57   C61   S    
C74   O50   A    
C26   C98   S    
C40   C51   S    
C7    C95   S    
C12   C24   S    
C81   O13   A    
Cr10  O14   S    
C13   C17   S    
C5    H25   S    
C60   C64   S    
C47   C88   S    
C9    C69   S    
C1    O25   A    
C45   C86   S    
C70   O38   A    
C82   O42   A    
C73   O45   A    
C32   C96   S    
C14   H6    S    
C71   O3    A    
C37   C50   S    
Cr7   O27   S    
Cr8   O32   S    
C6    C26   S    
C49   H21   S    
C43   C51   S    
C31   C95   S    
C11   C23   S    
Cr9   O33   S    
C71   O39   A    
C37   C41   S    
C101  N5    T    
Cr9   O9    S    
C17   C21   S    
C6    C10   S    
C17   H11   S    
C54   C75   S    
Cr8   O8    S    
C40   C44   S    
Cr3   O43   S    
C2    O26   A    
C60   C68   T    
C77   O9    A    
C30   C94   S    
C99   N3    T    
C22   C26   S    
C39   C43   S    
C13   C93   S    
C70   O2    A    
Cr1   O17   S    
C65   C81   S    
C36   C43   S    
C95   H3    S    
C89   C90   S    
C84   O44   A    
C76   O52   A    
C45   O33   A    
C48   O36   A    
C14   C94   S    
C13   H5    S    
Cr4   O4    S    
C93   H1    S    
Cr12  O16   S    
C26   C30   S    
C51   H23   S    
