data_mof_unit_28391.cif
_audit_creation_date              2012-10-26T19:15:05-0400
_audit_creation_method            fapswitch 2.2
_symmetry_space_group_name_H-M    P1
_symmetry_Int_Tables_number       1
_space_group_crystal_system       triclinic
_cell_length_a                    10.875786
_cell_length_b                    10.767901
_cell_length_c                    9.549498
_cell_angle_alpha                 89.777275
_cell_angle_beta                  89.266161
_cell_angle_gamma                 91.958593
_cell_volume                      1117.58037156

loop_
_atom_site_label
_atom_site_type_symbol
_atom_type_description
_atom_site_fract_x
_atom_site_fract_y
_atom_site_fract_z
_atom_type_partial_charge
C1    C     C_R   0.493804 0.262855 0.500171 0.560975
C2    C     C_R   0.610949 0.944743 0.487985 -0.036912
C3    C     C_3   0.721523 0.950691 0.581948 0.152010
C4    C     C_R   0.262610 0.504591 0.500148 0.611229
C5    C     C_3   0.711047 0.090450 0.586116 -0.180476
C6    C     C_R   0.571784 0.583883 0.071636 0.162212
C7    C     C_R   0.434107 0.412730 0.076394 0.023643
C8    C     C_R   0.434609 0.411094 0.926392 0.378210
C9    C     C_R   0.574671 0.581690 0.924711 0.060618
C10   C     C_3   0.575393 0.719767 0.914816 -0.235762
C11   C     C_3   0.568092 0.722924 0.073854 0.148192
C12   C     C_R   0.935240 0.509526 0.620519 -0.125982
C13   C     C_R   0.504623 0.737885 0.499872 0.565184
C14   C     C_R   0.737746 0.495868 0.498628 0.536639
C15   C     C_R   0.061601 0.514961 0.622035 -0.027089
C16   C     C_R   0.130203 0.519790 0.497927 0.016845
C17   C     C_R   0.067832 0.537590 0.369883 0.251029
C18   C     C_R   0.938526 0.520809 0.366611 0.265408
C19   C     C_R   0.871881 0.502965 0.494557 -0.037061
C20   C     C_3   0.169762 0.681563 0.232874 -0.077097
C21   C     C_3   0.845917 0.793122 0.514802 -0.091942
C22   C     C_3   0.383514 0.204475 0.893364 -0.082706
C23   C     C_3   0.926666 0.425181 0.745215 -0.188371
C24   C     C_3   0.455736 0.894586 0.126464 -0.127000
C25   C     C_3   0.882996 0.607598 0.156077 -0.080859
C26   C     C_3   0.066401 0.430332 0.746071 0.296564
C27   C     C_R   0.605355 0.072768 0.490793 -0.038368
C28   C     C_R   0.493681 0.130189 0.498503 -0.062310
C29   C     C_R   0.383776 0.059085 0.494033 -0.129146
C30   C     C_R   0.387676 0.929460 0.496039 0.332081
C31   C     C_R   0.501823 0.871748 0.499141 -0.008221
Cu1   Cu    Cu3+1 0.499990 0.499980 0.640670 1.017069
Cu2   Cu    Cu3+1 0.500010 0.500020 0.359330 1.024137
F1    F     F_    0.115328 0.316967 0.712521 -0.595907
F2    F     F_    0.280716 0.860809 0.500811 -0.661219
H1    H     H_    0.683307 0.125628 0.690858 0.090001
H2    H     H_    0.295910 0.103567 0.494511 0.174927
H3    H     H_    0.706985 0.906220 0.686706 0.091844
H4    H     H_    0.246278 0.705169 0.304583 0.227087
H5    H     H_    0.092977 0.745279 0.252600 0.091516
H6    H     H_    0.203847 0.699036 0.124382 0.165051
H7    H     H_    0.773179 0.745268 0.452499 0.114750
H8    H     H_    0.845959 0.757069 0.624197 0.116104
H9    H     H_    0.936310 0.773224 0.466503 0.147339
H10   H     H_    0.345994 0.141052 0.811933 0.177600
H11   H     H_    0.335806 0.179209 0.993482 0.098563
H12   H     H_    0.788976 0.143531 0.534965 0.185466
H13   H     H_    0.483945 0.188123 0.900129 0.075536
H14   H     H_    0.366135 0.925102 0.168343 0.149562
H15   H     H_    0.468550 0.935214 0.019817 0.094647
H16   H     H_    0.528747 0.931481 0.196984 0.128834
H17   H     H_    0.968016 0.614498 0.091259 0.155300
H18   H     H_    0.808536 0.598829 0.079260 0.103850
H19   H     H_    0.868929 0.693870 0.217268 0.082686
H20   H     H_    0.377092 0.346438 0.135267 0.129814
H21   H     H_    0.664326 0.758406 0.872496 0.061547
H22   H     H_    0.492149 0.754978 0.863750 0.184131
H23   H     H_    0.650134 0.766016 0.125861 0.087863
H24   H     H_    0.884981 0.471148 0.837530 0.099899
H25   H     H_    0.885775 0.331905 0.720175 0.172720
H26   H     H_    0.106973 0.475461 0.840089 0.146857
N1    N     N_R   0.500790 0.500930 0.147930 -0.238078
N2    N     N_R   0.500790 0.500890 0.852020 -0.225774
O1    O     O_R   0.500000 0.319640 0.618810 -0.465489
O2    O     O_3   0.831426 0.921808 0.511042 -0.537430
O3    O     O_3   0.359541 0.327802 0.853989 -0.484930
O4    O     O_3   0.453059 0.763564 0.122551 -0.543566
O5    O     O_3   0.880033 0.499364 0.240007 -0.515153
O6    O     O_R   0.500010 0.319680 0.381230 -0.517219
O7    O     O_R   0.319650 0.499970 0.618810 -0.439215
O8    O     O_R   0.319660 0.500010 0.381230 -0.471905
O9    O     O_R   0.499990 0.680320 0.618770 -0.524439
O10   O     O_R   0.500000 0.680360 0.381190 -0.465436
O11   O     O_R   0.680340 0.499990 0.618770 -0.526872
O12   O     O_R   0.680350 0.500030 0.381190 -0.463950
O13   O     O_3   0.131983 0.554871 0.244853 -0.549658

loop_
_geom_bond_atom_site_label_1
_geom_bond_atom_site_label_2
_ccdc_geom_bond_type
C22   H13   S    
C8    O3    S    
C7    H20   S    
C6    C9    A    
C4    O7    A    
C20   H6    S    
C7    C8    A    
Cu1   O9    S    
C23   H24   S    
C5    H12   S    
C12   C23   S    
C30   F2    S    
C14   O11   A    
C28   C29   A    
C26   H26   S    
C25   H18   S    
Cu1   O11   S    
C30   C31   A    
C20   H5    S    
C18   O5    S    
C15   C16   A    
C5    H1    S    
C20   O13   S    
C18   C19   A    
C23   C26   S    
C22   O3    S    
C24   O4    S    
C21   H8    S    
Cu2   O12   S    
C3    H3    S    
C11   O4    S    
Cu2   N1    S    
C1    C28   S    
C2    C27   A    
C11   H23   S    
C10   H21   S    
C9    C10   S    
Cu2   O6    S    
C24   H16   S    
C5    C27   S    
C3    O2    S    
C25   O5    S    
C26   F1    S    
C24   H15   S    
C23   H25   S    
C10   H22   S    
C25   H19   S    
Cu1   O1    S    
C6    C11   S    
C20   H4    S    
C16   C17   A    
C15   C26   S    
Cu1   O7    S    
C1    O6    A    
C2    C31   A    
C4    C16   S    
C7    N1    A    
C29   C30   A    
C17   O13   S    
C21   H9    S    
C12   C15   A    
C17   C18   A    
Cu2   O10   S    
C22   H11   S    
C13   O10   A    
C1    O1    A    
C24   H14   S    
C21   O2    S    
C9    N2    A    
C14   C19   S    
C13   C31   S    
Cu1   N2    S    
C3    C5    S    
C13   O9    A    
C14   O12   A    
C6    N1    A    
C2    C3    S    
C25   H17   S    
Cu1   Cu2   S    
C12   C19   A    
C10   C11   S    
Cu2   O8    S    
C8    N2    A    
C21   H7    S    
C22   H10   S    
C29   H2    S    
C27   C28   A    
C4    O8    A    
