data_mof_unit_30072.cif
_audit_creation_date              2012-12-11T17:05:26-0500
_audit_creation_method            fapswitch 2.2
_symmetry_space_group_name_H-M    P1
_symmetry_Int_Tables_number       1
_space_group_crystal_system       triclinic
_cell_length_a                    7.006976
_cell_length_b                    14.49481
_cell_length_c                    16.167886
_cell_angle_alpha                 89.976553
_cell_angle_beta                  89.672067
_cell_angle_gamma                 89.750213
_cell_volume                      1642.04525633

loop_
_atom_site_label
_atom_site_type_symbol
_atom_type_description
_atom_site_fract_x
_atom_site_fract_y
_atom_site_fract_z
_atom_type_partial_charge
O1    O     O_R   0.494380 0.415640 0.412830 -0.524264
O2    O     O_R   0.823960 0.405540 0.586560 -0.546994
O3    O     O_R   0.994270 0.584360 0.587170 -0.508365
C1    C     C_R   0.655154 0.383495 0.615052 0.714310
O4    O     O_R   0.824090 0.404620 0.413450 -0.528029
O5    O     O_R   0.994400 0.583430 0.412820 -0.520082
C2    C     C_R   0.655695 0.383701 0.383914 0.714454
O6    O     O_R   0.494250 0.416570 0.587180 -0.550856
O7    O     O_3   0.660800 0.558670 0.500000 -0.333306
V1    V     V_3+5 0.935650 0.489120 0.500000 1.618374
O8    O     O_R   0.324110 0.594460 0.413440 -0.527519
C3    C     C_R   0.153424 0.620661 0.388162 0.789859
O9    O     O_R   0.323980 0.595380 0.586550 -0.544213
C4    C     C_R   0.153952 0.618940 0.613884 0.795828
V2    V     V_3+5 0.435660 0.510880 0.500000 1.600579
O10   O     O_3   0.160640 0.441330 0.500000 -0.373105
C5    C     C_3   0.948001 0.675800 0.733853 0.412816
H1    H     H_    0.824542 0.696950 0.695541 0.131164
C6    C     C_3   0.950527 0.732208 0.815299 -0.183991
H2    H     H_    0.975460 0.682457 0.866773 0.234504
H3    H     H_    0.989848 0.898671 0.727063 0.230501
C7    C     C_3   0.155337 0.793581 0.654541 -0.157640
C8    C     C_3   0.302965 0.670474 0.747513 -0.350855
C9    C     C_3   0.139791 0.688926 0.684432 -0.184724
H4    H     H_    0.445604 0.673291 0.717089 0.138081
H5    H     H_    0.288866 0.599656 0.773427 0.229729
C10   C     C_3   0.117332 0.803513 0.815045 -0.183428
C11   C     C_3   0.123892 0.857944 0.732175 -0.449188
C12   C     C_3   0.295818 0.742293 0.818442 0.455748
H6    H     H_    0.411916 0.789500 0.810218 0.145787
H7    H     H_    0.234335 0.912391 0.736252 0.234403
C13   C     C_R   0.254045 0.741356 0.184013 -0.041216
C14   C     C_R   0.116262 0.811204 0.179350 -0.182782
C15   C     C_R   0.981150 0.816978 0.243694 0.632096
C16   C     C_R   0.987483 0.757635 0.313529 -0.197620
C17   C     C_R   0.136933 0.689887 0.319803 -0.219937
C18   C     C_R   0.266439 0.684714 0.253737 0.048636
C19   C     C_3   0.478160 0.692725 0.256539 -0.410845
C20   C     C_3   0.466083 0.749496 0.177969 0.505840
H8    H     H_    0.553417 0.625436 0.250232 0.167236
H9    H     H_    0.519979 0.734449 0.310504 0.221091
C21   C     C_R   0.492650 0.251753 0.688630 0.029818
C22   C     C_R   0.647011 0.312404 0.681083 -0.100326
C23   C     C_R   0.798500 0.300977 0.737179 -0.118391
H10   H     H_    0.920996 0.345850 0.733722 0.146752
C24   C     C_R   0.787175 0.236076 0.802066 -0.073161
H11   H     H_    0.901886 0.232500 0.846404 0.148447
C25   C     C_R   0.623914 0.180738 0.812897 -0.170294
C26   C     C_R   0.481641 0.187463 0.752703 0.115685
C27   C     C_3   0.272490 0.202330 0.762870 0.478157
C28   C     C_3   0.284260 0.272153 0.692864 -0.446408
H12   H     H_    0.232885 0.232121 0.823936 0.050913
H13   H     H_    0.255026 0.344158 0.713101 0.135008
H14   H     H_    0.208655 0.250321 0.635910 0.219041
C29   C     C_R   0.515498 0.323850 0.249823 0.027550
C30   C     C_R   0.648276 0.316733 0.314169 -0.030009
C31   C     C_R   0.779267 0.243403 0.309835 -0.131535
H15   H     H_    0.884154 0.236313 0.358489 0.185716
C32   C     C_R   0.768917 0.174625 0.247626 -0.049032
C33   C     C_R   0.626654 0.180315 0.184311 -0.097829
C34   C     C_R   0.505897 0.257734 0.186861 -0.097420
C35   C     C_3   0.292864 0.262552 0.184119 -0.380531
C36   C     C_3   0.302656 0.335445 0.252596 0.454221
H16   H     H_    0.228616 0.197742 0.206709 0.206961
O11   O     O_R   0.771490 0.080820 0.910070 -0.533726
O12   O     O_R   0.441590 0.092730 0.083780 -0.545377
O13   O     O_R   0.271350 0.913900 0.084390 -0.528180
C37   C     C_R   0.610581 0.111968 0.114983 0.753252
O14   O     O_R   0.441780 0.091820 0.910670 -0.545045
O15   O     O_R   0.271540 0.912980 0.910040 -0.553099
C38   C     C_R   0.610868 0.114037 0.882352 0.717250
O16   O     O_R   0.771300 0.081740 0.084420 -0.506064
O17   O     O_3   0.604960 0.938700 0.997240 -0.376341
V3    V     V_3+5 0.330090 0.008230 0.997220 1.593500
O18   O     O_R   0.941820 0.901930 0.910640 -0.533537
C39   C     C_R   0.111042 0.874370 0.886327 0.754249
O19   O     O_R   0.941630 0.902840 0.083750 -0.486005
C40   C     C_R   0.110569 0.878726 0.110396 0.804394
V4    V     V_3+5 0.830090 0.986410 0.997190 1.680642
O20   O     O_3   0.105080 0.055990 0.997200 -0.362686
C41   C     C_2   0.349129 0.811054 0.612929 0.802078
O21   O     O_2   0.384460 0.776617 0.545409 -0.551959
O22   O     O_R   0.485128 0.867909 0.649697 -0.637776
H17   H     H_    0.602549 0.876733 0.613860 0.325294
F1    F     F_    0.848357 0.885134 0.240570 -0.600237
C42   C     C_2   0.843004 0.775669 0.379478 0.877641
O23   O     O_2   0.765689 0.712511 0.416051 -0.528018
O24   O     O_R   0.781420 0.865970 0.394742 -0.589289
H18   H     H_    0.670282 0.868912 0.435134 0.322492
C43   C     C_2   0.553912 0.701685 0.104345 0.789168
O25   O     O_2   0.724750 0.709914 0.090726 -0.534111
O26   O     O_R   0.442880 0.645098 0.053959 -0.615106
H19   H     H_    0.520977 0.613201 0.009322 0.368211
F2    F     F_    0.526564 0.839411 0.187811 -0.621452
F3    F     F_    0.921154 0.583338 0.753116 -0.692167
F4    F     F_    0.170680 0.124383 0.741354 -0.659296
C44   C     C_2   0.895236 0.093670 0.259346 0.879328
O27   O     O_2   0.897478 0.054915 0.326559 -0.497530
O28   O     O_R   0.023208 0.066326 0.197689 -0.645191
H20   H     H_    0.119255 0.019488 0.218570 0.291737
C45   C     C_2   0.215484 0.292631 0.100811 0.832196
O29   O     O_2   0.068464 0.257764 0.075847 -0.518322
O30   O     O_R   0.306765 0.358462 0.051226 -0.627260
H21   H     H_    0.428721 0.383263 0.075776 0.290876
F5    F     F_    0.226243 0.304354 0.326674 -0.681341
C46   C     C_2   0.230781 0.430321 0.230317 0.731099
O31   O     O_2   0.341826 0.490102 0.207786 -0.587918
O32   O     O_R   0.035024 0.448749 0.234218 -0.641791
H22   H     H_    0.002663 0.514353 0.217436 0.302104
C47   C     C_2   0.763383 0.774555 0.834169 0.724927
O33   O     O_2   0.705810 0.839187 0.792452 -0.569351
O34   O     O_R   0.674303 0.749895 0.908399 -0.618844
H23   H     H_    0.574024 0.795597 0.926899 0.336744
C48   C     C_2   0.007151 0.823074 0.591449 0.730152
O35   O     O_2   0.888459 0.769404 0.565225 -0.560163
O36   O     O_R   0.006512 0.915038 0.564876 -0.623838
H24   H     H_    0.893494 0.931049 0.529016 0.329842
F6    F     F_    0.308721 0.697909 0.894172 -0.671563

loop_
_geom_bond_atom_site_label_1
_geom_bond_atom_site_label_2
_ccdc_geom_bond_type
O12   C37   A    
C29   C30   A    
C45   O29   D    
O11   V4    S    
C10   C12   S    
O17   V3    S    
C16   C17   A    
C1    O6    A    
C48   O35   D    
C31   H15   S    
O19   C40   A    
O36   H24   S    
C12   H6    S    
C8    C12   S    
C17   C18   A    
C18   C19   S    
O16   V4    S    
O5    C3    A    
C19   C20   S    
C16   C42   S    
C42   O24   S    
C14   C40   S    
C13   C20   S    
C46   O31   D    
V2    O10   S    
O12   V3    S    
O32   H22   S    
C15   C16   A    
C8    H5    S    
C4    C9    S    
O14   C38   A    
C47   O33   D    
C35   H16   S    
C44   O28   S    
O8    V2    S    
O28   H20   S    
C29   C36   S    
O15   V3    S    
C27   H12   S    
C8    C9    S    
O1    V2    S    
C3    C17   S    
C6    C10   S    
O7    V1    S    
C20   C43   S    
C21   C28   S    
C35   C45   S    
C32   C33   A    
C45   O30   S    
V3    O20   S    
O9    C4    A    
O13   C40   A    
C2    C30   S    
O34   H23   S    
C41   O22   S    
C23   C24   A    
C44   O27   D    
O19   V4    S    
C24   C25   A    
C5    C9    S    
C7    C41   S    
C19   H9    S    
O4    C2    A    
C42   O23   D    
C27   C28   S    
O11   C38   A    
C41   O21   D    
C33   C34   A    
C28   H13   S    
C15   F1    S    
O2    C1    A    
O18   C39   A    
C20   F2    S    
C35   C36   S    
C43   O26   S    
O22   H17   S    
C37   O16   A    
C5    H1    S    
O17   V4    S    
O14   V3    S    
O13   V3    S    
C13   C18   A    
C36   C46   S    
O3    C4    A    
C5    F3    S    
C25   C26   A    
H3    C11   S    
O6    V2    S    
O9    V2    S    
C22   C23   A    
O15   C39   A    
C32   C44   S    
C7    C9    S    
C36   F5    S    
C21   C22   A    
C25   C38   S    
C10   C39   S    
O2    V1    S    
C10   C11   S    
C23   H10   S    
C6    C47   S    
C30   C31   A    
C24   H11   S    
O1    C2    A    
C11   H7    S    
O5    V1    S    
C48   O36   S    
O8    C3    A    
C1    C22   S    
C12   F6    S    
C28   H14   S    
C13   C14   A    
C6    H2    S    
O7    V2    S    
O4    V1    S    
O3    V1    S    
V1    O10   S    
C19   H8    S    
C27   F4    S    
C43   O25   D    
C46   O32   S    
C29   C34   A    
O26   H19   S    
C5    C6    S    
C14   C15   A    
C8    H4    S    
C34   C35   S    
C47   O34   S    
C31   C32   A    
C21   C26   A    
V4    O20   S    
C7    C48   S    
O24   H18   S    
C33   C37   S    
C26   C27   S    
O30   H21   S    
C7    C11   S    
O18   V4    S    
