data_mof_unit_66947.cif
_audit_creation_date              2013-03-05T15:57:30-0500
_audit_creation_method            fapswitch 2.2
_symmetry_space_group_name_H-M    P1
_symmetry_Int_Tables_number       1
_space_group_crystal_system       triclinic
_cell_length_a                    17.195065
_cell_length_b                    18.541456
_cell_length_c                    8.424071
_cell_angle_alpha                 90.0
_cell_angle_beta                  101.65434
_cell_angle_gamma                 90.007651
_cell_volume                      2630.405611

loop_
_atom_site_label
_atom_site_type_symbol
_atom_site_description
_atom_site_fract_x
_atom_site_fract_y
_atom_site_fract_z
_atom_type_partial_charge
P1    P     P_3+3 0.834140 0.419320 0.003900 0.459068
P2    P     P_3+3 0.834140 0.580680 0.503900 0.460126
P3    P     P_3+3 0.334140 0.919320 0.003900 0.458268
P4    P     P_3+3 0.334140 0.080680 0.503900 0.458425
O1    O     O_2   0.841960 0.394640 0.833410 -0.362291
O2    O     O_2   0.841960 0.605360 0.333410 -0.372978
O3    O     O_2   0.341960 0.894640 0.833410 -0.368740
O4    O     O_2   0.341960 0.105360 0.333410 -0.367092
O5    O     O_3   0.907950 0.463080 0.102990 -0.404841
O6    O     O_3   0.907950 0.536920 0.602990 -0.400422
O7    O     O_3   0.407950 0.963080 0.102990 -0.402678
O8    O     O_3   0.407950 0.036920 0.602990 -0.403171
O9    O     O_3   0.972780 0.329600 0.629720 -0.362564
O10   O     O_3   0.972780 0.670400 0.129720 -0.361274
O11   O     O_3   0.472780 0.829600 0.629720 -0.357402
O12   O     O_3   0.472780 0.170400 0.129720 -0.361944
O13   O     O_2   0.833906 0.282161 0.679916 -0.379981
O14   O     O_2   0.834136 0.717995 0.180999 -0.384146
O15   O     O_2   0.336575 0.779258 0.687085 -0.382334
O16   O     O_2   0.334077 0.217951 0.179841 -0.379175
O17   O     O_3   0.748347 0.471927 0.957186 -0.570916
O18   O     O_3   0.749296 0.526930 0.462864 -0.570462
O19   O     O_3   0.249282 0.973036 0.961504 -0.568809
O20   O     O_3   0.249100 0.027142 0.461567 -0.568388
O21   O     O_3   0.930144 0.180778 0.649043 -0.531679
O22   O     O_3   0.930072 0.819205 0.148213 -0.531434
O23   O     O_3   0.434848 0.680575 0.645543 -0.534680
O24   O     O_3   0.430530 0.319392 0.150048 -0.531235
C1    C     C_3   0.963885 0.063261 0.567025 -0.993937
C2    C     C_3   0.963233 0.936601 0.064518 -0.993372
C3    C     C_3   0.452776 0.564644 0.533693 -0.994654
C4    C     C_3   0.463437 0.437421 0.068895 -0.993310
H1    H     H_    0.471136 0.545657 0.660723 0.267179
H2    H     H_    0.491897 0.448240 0.197246 0.257883
H3    H     H_    0.990484 0.052394 0.696166 0.259531
H4    H     H_    0.989682 0.947898 0.193529 0.259722
H5    H     H_    0.902460 0.041445 0.539739 0.263570
H6    H     H_    0.901702 0.958143 0.036779 0.263245
H7    H     H_    0.388898 0.551773 0.490428 0.264376
H8    H     H_    0.401744 0.458700 0.045694 0.264111
P5    P     P_3+3 0.165830 0.418670 0.685610 0.449854
P6    P     P_3+3 0.165830 0.581330 0.185610 0.448016
P7    P     P_3+3 0.665830 0.918670 0.685610 0.455062
P8    P     P_3+3 0.665830 0.081330 0.185610 0.448816
P9    P     P_3+3 0.101951 0.265213 0.112324 0.435741
P10   P     P_3+3 0.102053 0.734729 0.612550 0.435408
P11   P     P_3+3 0.601438 0.764683 0.110187 0.443264
P12   P     P_3+3 0.601943 0.234774 0.612154 0.436479
O25   O     O_2   0.157990 0.394030 0.856030 -0.369880
O26   O     O_2   0.157990 0.605970 0.356030 -0.369807
O27   O     O_2   0.657990 0.894030 0.856030 -0.366929
O28   O     O_2   0.657990 0.105970 0.356030 -0.369238
O29   O     O_3   0.027110 0.329490 0.059550 -0.388465
O30   O     O_3   0.027110 0.670510 0.559550 -0.387885
O31   O     O_3   0.527110 0.829490 0.059550 -0.388749
O32   O     O_3   0.527110 0.170510 0.559550 -0.387826
O33   O     O_2   0.159307 0.272898 0.994202 -0.389406
O34   O     O_2   0.159333 0.727109 0.494263 -0.390937
O35   O     O_2   0.656697 0.770840 0.987218 -0.374798
O36   O     O_2   0.659181 0.227146 0.493777 -0.389043
O37   O     O_3   0.248557 0.475595 0.722428 -0.579698
O38   O     O_3   0.248353 0.524210 0.222531 -0.583428
O39   O     O_3   0.748514 0.975613 0.722205 -0.583142
O40   O     O_3   0.748471 0.024358 0.222616 -0.580340
O41   O     O_3   0.057898 0.180958 0.068137 -0.541400
O42   O     O_3   0.058056 0.819002 0.568440 -0.541254
O43   O     O_3   0.556071 0.680797 0.068948 -0.546932
O44   O     O_3   0.557865 0.319005 0.568131 -0.541537
C5    C     C_3   0.977774 0.186116 0.080631 0.491410
C6    C     C_3   0.977831 0.813762 0.580131 0.492096
C7    C     C_3   0.475838 0.687522 0.078453 0.495795
C8    C     C_3   0.477862 0.313974 0.581619 0.489319
H9    H     H_    0.942840 0.212890 0.971016 0.160384
H10   H     H_    0.943159 0.786890 0.470359 0.160966
H11   H     H_    0.442416 0.715552 0.969069 0.161970
H12   H     H_    0.442526 0.287640 0.471824 0.160388
H13   H     H_    0.969870 0.216224 0.190254 0.014486
H14   H     H_    0.969715 0.783709 0.689705 0.013602
H15   H     H_    0.468503 0.717378 0.188773 0.018691
H16   H     H_    0.470076 0.283519 0.690862 0.015342
C9    C     C_3   0.945651 0.110965 0.091827 -1.077726
C10   C     C_3   0.945537 0.888881 0.590656 -1.078005
C11   C     C_3   0.441488 0.612897 0.084960 -1.070886
C12   C     C_3   0.446261 0.389187 0.594625 -1.078405
H17   H     H_    0.377675 0.616020 0.091054 0.246993
H18   H     H_    0.382408 0.387431 0.600909 0.250801
H19   H     H_    0.881718 0.112980 0.097308 0.248570
H20   H     H_    0.881482 0.886796 0.595178 0.247819
H21   H     H_    0.953744 0.080503 0.983699 0.281165
H22   H     H_    0.954025 0.919329 0.482750 0.280911
H23   H     H_    0.448763 0.583057 0.975326 0.280625
H24   H     H_    0.454201 0.419810 0.486756 0.283668
C13   C     C_3   0.228204 0.457141 0.278581 0.369081
C14   C     C_3   0.229102 0.542596 0.780058 0.373463
C15   C     C_3   0.728410 0.957060 0.277688 0.370334
C16   C     C_3   0.728638 0.042700 0.778648 0.368064
H25   H     H_    0.228864 0.461525 0.409613 0.112629
H26   H     H_    0.233921 0.538664 0.912581 0.109617
H27   H     H_    0.729699 0.960855 0.409077 0.109505
H28   H     H_    0.730293 0.038471 0.910104 0.110458
H29   H     H_    0.169699 0.436957 0.212933 0.130986
H30   H     H_    0.169051 0.561788 0.721196 0.127034
H31   H     H_    0.669690 0.937125 0.212676 0.129859
H32   H     H_    0.669779 0.062726 0.714589 0.129796
C17   C     C_3   0.290461 0.402931 0.252356 -0.903855
C18   C     C_3   0.288643 0.597619 0.744458 -0.901867
C19   C     C_3   0.790270 0.902983 0.248950 -0.905056
C20   C     C_3   0.790331 0.097002 0.750067 -0.900353
H33   H     H_    0.350035 0.427526 0.285313 0.273149
H34   H     H_    0.348640 0.573545 0.767175 0.273603
H35   H     H_    0.849959 0.927426 0.281801 0.273553
H36   H     H_    0.850032 0.072572 0.781696 0.272579
H37   H     H_    0.288914 0.354185 0.327402 0.230506
H38   H     H_    0.289380 0.646090 0.821593 0.231053
H39   H     H_    0.788722 0.853693 0.322522 0.231212
H40   H     H_    0.789045 0.145935 0.824755 0.230342
H41   H     H_    0.279976 0.387228 0.122990 0.272570
H42   H     H_    0.273240 0.613773 0.615536 0.273147
H43   H     H_    0.779363 0.888193 0.118964 0.271018
H44   H     H_    0.779019 0.112353 0.620460 0.272716
Ba1   Ba    Ba6+2 0.000000 0.447380 0.844850 1.529946
Ba2   Ba    Ba6+2 1.000000 0.552620 0.344850 1.529164
Ba3   Ba    Ba6+2 0.500000 0.947380 0.844850 1.534884
Ba4   Ba    Ba6+2 0.500000 0.052620 0.344850 1.531043
C21   C     C_3   0.764896 0.545741 0.956651 0.360600
C22   C     C_3   0.767789 0.454481 0.443612 0.359531
C23   C     C_3   0.267840 0.045485 0.942364 0.361272
C24   C     C_3   0.267452 0.954616 0.442741 0.360436
H45   H     H_    0.759092 0.563607 0.829238 0.071154
H46   H     H_    0.765607 0.443799 0.313316 0.069126
H47   H     H_    0.265310 0.056206 0.811985 0.074840
H48   H     H_    0.264220 0.943674 0.312226 0.075594
H49   H     H_    0.824200 0.561886 0.025720 0.148291
H50   H     H_    0.826027 0.437031 0.515729 0.147264
H51   H     H_    0.326249 0.062853 0.013883 0.144459
H52   H     H_    0.326102 0.937292 0.513206 0.142862
C25   C     C_3   0.702863 0.583260 0.031320 -0.871297
C26   C     C_3   0.704409 0.410729 0.499879 -0.863308
C27   C     C_3   0.204790 0.089339 0.999530 -0.862862
C28   C     C_3   0.204831 0.910888 0.501786 -0.864857
H53   H     H_    0.642511 0.565957 0.970533 0.260432
H54   H     H_    0.645164 0.428654 0.434099 0.251509
H55   H     H_    0.145392 0.071627 0.934179 0.252746
H56   H     H_    0.145219 0.928169 0.436769 0.253522
H57   H     H_    0.709208 0.642325 0.021374 0.263236
H58   H     H_    0.713405 0.352714 0.479033 0.258190
H59   H     H_    0.213888 0.147338 0.978807 0.257624
H60   H     H_    0.214145 0.852802 0.482323 0.256766
H61   H     H_    0.709840 0.567180 0.159722 0.271944
H62   H     H_    0.706970 0.420855 0.630339 0.273058
H63   H     H_    0.207637 0.079145 0.130041 0.271971
H64   H     H_    0.208017 0.921659 0.632182 0.272179
O45   O     O_3   0.092100 0.536880 0.086720 -0.397834
O46   O     O_3   0.092100 0.463120 0.586720 -0.397733
O47   O     O_3   0.592100 0.036880 0.086720 -0.399312
O48   O     O_3   0.592100 0.963120 0.586720 -0.399871
P13   P     P_3+3 0.895835 0.734045 0.076417 0.434634
P14   P     P_3+3 0.895996 0.265838 0.576373 0.435484
P15   P     P_3+3 0.396261 0.234419 0.076570 0.436032
P16   P     P_3+3 0.396868 0.765277 0.577955 0.435759
C29   C     C_3   0.962096 0.143664 0.530805 0.637528
C30   C     C_3   0.961875 0.856093 0.029498 0.638488
C31   C     C_3   0.466025 0.645617 0.523382 0.656550
C32   C     C_3   0.461994 0.357038 0.031818 0.637578
H65   H     H_    0.924958 0.149000 0.407953 0.009069
H66   H     H_    0.924800 0.850290 0.906680 0.008014
H67   H     H_    0.435332 0.660398 0.400042 -0.001819
H68   H     H_    0.424612 0.351782 0.909196 0.009289
H69   H     H_    0.487899 0.535960 0.456386 0.232222
H70   H     H_    0.497217 0.466107 0.988695 0.236163
H71   H     H_    0.999531 0.035268 0.489529 0.237527
H72   H     H_    0.998789 0.964520 0.986748 0.237152
H73   H     H_    0.474344 0.583903 0.192772 0.276633
H74   H     H_    0.480337 0.416114 0.704488 0.268855
H75   H     H_    0.979134 0.083604 0.201675 0.274267
H76   H     H_    0.978643 0.916307 0.700790 0.274624
C33   C     C_R   0.141433 0.674485 0.921317 -0.518219
C34   C     C_R   0.141245 0.325495 0.421013 -0.519899
C35   C     C_R   0.641222 0.174469 0.920858 -0.518686
C36   C     C_R   0.641201 0.825453 0.419658 -0.538442
C37   C     C_R   0.859813 0.324631 0.265444 -0.505170
C38   C     C_R   0.859114 0.674957 0.765869 -0.506876
C39   C     C_R   0.358903 0.825307 0.267458 -0.510995
C40   C     C_R   0.359984 0.175493 0.765638 -0.504440
C41   C     C_R   0.789762 0.214307 0.299407 -0.208573
C42   C     C_R   0.788974 0.785224 0.799575 -0.204394
C43   C     C_R   0.289846 0.714301 0.300482 -0.202113
C44   C     C_R   0.289895 0.285814 0.799548 -0.209746
C45   C     C_R   0.844734 0.267858 0.362319 0.175960
C46   C     C_R   0.844000 0.731717 0.862647 0.174088
C47   C     C_R   0.343915 0.768432 0.364436 0.176597
C48   C     C_R   0.344991 0.232362 0.862439 0.175439
C49   C     C_R   0.817026 0.332616 0.107223 0.279187
C50   C     C_R   0.816656 0.667152 0.607375 0.290089
C51   C     C_R   0.316685 0.832947 0.108528 0.278783
C52   C     C_R   0.317056 0.167366 0.607536 0.279024
C53   C     C_R   0.758808 0.278821 0.042222 -0.079985
C54   C     C_R   0.758415 0.720938 0.541982 -0.089218
C55   C     C_R   0.258709 0.778998 0.043287 -0.079151
C56   C     C_R   0.258827 0.221154 0.542499 -0.080597
C57   C     C_R   0.245579 0.718339 0.140895 -0.068033
C58   C     C_R   0.245622 0.281777 0.640136 -0.065056
C59   C     C_R   0.745574 0.218240 0.139939 -0.065853
C60   C     C_R   0.744779 0.781295 0.639961 -0.064165
C61   C     C_R   0.185715 0.665771 0.077902 0.265614
C62   C     C_R   0.185552 0.334205 0.577596 0.266059
C63   C     C_R   0.685545 0.165771 0.077442 0.265524
C64   C     C_R   0.684920 0.833843 0.577228 0.294616
C65   C     C_R   0.156754 0.730805 0.823408 0.234221
C66   C     C_R   0.156559 0.269141 0.323120 0.234702
C67   C     C_R   0.656556 0.230807 0.822920 0.233528
C68   C     C_R   0.656545 0.769013 0.321499 0.224547
C69   C     C_R   0.212363 0.784036 0.885427 -0.159799
C70   C     C_R   0.212231 0.215950 0.384980 -0.159630
C71   C     C_R   0.712231 0.283996 0.884726 -0.159980
C72   C     C_R   0.712034 0.715776 0.384175 -0.158238
H77   H     H_    0.283225 0.669424 0.377416 0.176218
H78   H     H_    0.282280 0.330053 0.877522 0.178296
H79   H     H_    0.782199 0.170065 0.377377 0.178401
H80   H     H_    0.781500 0.829484 0.877504 0.175713
H81   H     H_    0.718047 0.329069 0.808240 0.188320
H82   H     H_    0.717866 0.670589 0.308294 0.187545
H83   H     H_    0.218254 0.829058 0.808827 0.186711
H84   H     H_    0.218037 0.170864 0.308508 0.187410
H85   H     H_    0.096033 0.635520 0.872436 0.170359
H86   H     H_    0.095974 0.364554 0.372030 0.170360
H87   H     H_    0.595927 0.135414 0.871922 0.170362
H88   H     H_    0.596155 0.864672 0.370486 0.172242
H89   H     H_    0.902795 0.365171 0.317313 0.170543
H90   H     H_    0.902001 0.634374 0.817887 0.172420
H91   H     H_    0.401772 0.865928 0.319343 0.170715
H92   H     H_    0.403011 0.134994 0.817466 0.170481
N1    N     N_2   0.041549 0.168754 0.528627 -0.125562
H93   H     H_    0.042888 0.211065 0.450598 0.117185
C73   C     C_3   0.094052 0.178350 0.683995 -0.685932
H94   H     H_    0.099814 0.236483 0.713070 0.272885
H95   H     H_    0.152610 0.154680 0.679988 0.207445
H96   H     H_    0.070840 0.151646 0.781870 0.270810
N2    N     N_2   0.041458 0.831214 0.027862 -0.125122
H97   H     H_    0.042923 0.788442 0.951047 0.117559
C74   C     C_3   0.094149 0.822631 0.183437 -0.686600
H98   H     H_    0.100891 0.764617 0.213502 0.272469
H99   H     H_    0.070507 0.849233 0.280938 0.270124
H100  H     H_    0.152363 0.847028 0.179004 0.207790
N3    N     N_2   0.549574 0.662743 0.539709 -0.118023
H101  H     H_    0.558329 0.716412 0.518096 0.155992
C75   C     C_3   0.601318 0.636910 0.685229 -0.793233
H102  H     H_    0.660448 0.661943 0.699842 0.233200
H103  H     H_    0.609059 0.577615 0.678174 0.245517
H104  H     H_    0.576626 0.651302 0.792504 0.302126
N4    N     N_2   0.541534 0.332445 0.028642 -0.125680
H105  H     H_    0.543089 0.290690 0.949257 0.116961
C76   C     C_3   0.594180 0.322105 0.183574 -0.687564
H106  H     H_    0.599736 0.263826 0.211417 0.272522
H107  H     H_    0.571173 0.348405 0.282180 0.271378
H108  H     H_    0.652813 0.345711 0.179756 0.207656

loop_
_geom_bond_atom_site_label_1
_geom_bond_atom_site_label_2
_geom_bond_distance
_ccdc_geom_bond_type
C67   C71   1.399483 A    
N3    C75   1.443351 S    
P1    O17   1.745968 S    
O10   Ba2   2.816028 S    
C35   C67   1.388962 A    
C6    H14   1.110862 S    
O27   Ba3   2.874872 S    
C5    H13   1.110693 S    
C20   H44   1.106861 S    
P3    O19   1.743121 S    
N2    H97   1.027085 S    
O26   Ba2   2.874620 S    
P5    O37   1.747870 S    
P4    O4    1.538902 D    
O6    Ba1   2.847899 S    
C54   C72   1.408579 A    
C28   H60   1.105945 S    
C7    H15   1.110584 S    
C2    H72   1.110291 S    
P7    O39   1.747471 S    
Ba3   Ba4   4.642071 S    
Ba3   O47   2.847624 S    
C26   H62   1.107004 S    
P9    O33   1.542588 D    
O11   Ba3   2.815931 S    
C18   H38   1.107587 S    
C29   H65   1.105284 S    
P1    O1    1.538912 D    
O15   P16   1.540224 D    
O32   Ba4   2.815236 S    
C25   H57   1.105403 S    
C23   H51   1.109431 S    
P10   O42   1.743169 S    
P3    O3    1.538912 D    
C14   C18   1.517462 S    
C24   H52   1.109419 S    
C43   H77   1.074767 S    
C76   H106  1.105780 S    
P4    O20   1.743478 S    
C49   C53   1.440526 A    
O18   C22   1.397444 S    
C1    H5    1.110769 S    
C14   H26   1.105042 S    
C15   H27   1.104810 S    
P5    Ba1   3.429207 S    
O1    Ba1   2.871213 S    
O41   C5    1.406052 S    
P4    Ba4   3.426930 S    
O22   P13   1.749715 S    
P4    C52   1.880315 S    
C74   H98   1.105802 S    
C33   C65   1.388484 A    
P5    C62   1.876288 S    
C36   C68   1.391648 A    
P13   C46   1.841402 S    
C17   H33   1.104261 S    
O23   C31   1.410525 S    
C30   H66   1.105423 S    
C37   C45   1.388077 A    
C38   H90   1.082429 S    
C15   C19   1.516470 S    
O20   C24   1.397638 S    
C60   C64   1.438227 A    
O21   C29   1.410218 S    
C15   H31   1.110190 S    
O16   P15   1.539195 D    
C6    H10   1.111755 S    
C39   C51   1.395322 A    
C73   H94   1.105350 S    
C40   C48   1.388622 A    
C21   H49   1.108249 S    
C5    H9    1.111728 S    
C38   C50   1.393833 A    
P4    O8    1.593160 S    
C37   C49   1.394123 A    
N1    H93   1.026727 S    
C28   H64   1.106880 S    
C51   C55   1.440422 A    
C53   C71   1.407705 A    
C8    H12   1.111730 S    
P6    O38   1.747574 S    
C16   C20   1.516559 S    
C9    H21   1.104221 S    
P8    O28   1.538225 D    
C33   H85   1.082090 S    
C75   H103  1.110509 S    
O30   Ba2   2.815236 S    
P9    O29   1.744522 S    
N3    H101  1.028148 S    
P10   O34   1.542582 D    
O12   P15   1.761557 S    
C73   H95   1.105192 S    
C17   H41   1.107032 S    
P2    O2    1.538902 D    
C27   H55   1.107616 S    
C12   H74   1.109039 S    
C24   H48   1.108326 S    
C19   H43   1.107449 S    
C34   C66   1.388878 A    
P3    Ba3   3.426814 S    
C26   H58   1.105829 S    
P12   O36   1.542618 D    
C7    C11   1.509725 S    
Ba3   O48   2.951747 S    
P2    Ba2   3.426930 S    
C4    C32   1.521957 S    
C3    C31   1.523617 S    
C7    H11   1.111575 S    
C2    H6    1.110753 S    
Ba1   O46   2.951747 S    
O10   P13   1.762136 S    
C9    H75   1.109047 S    
P10   C65   1.835805 S    
C68   C72   1.400081 A    
N4    H105  1.026908 S    
C32   N4    1.447138 S    
P1    O5    1.592987 S    
C40   H92   1.082366 S    
N2    C74   1.443648 S    
C26   H54   1.107851 S    
P14   C45   1.840587 S    
C37   H89   1.082381 S    
C52   C56   1.440805 A    
C76   H107  1.103225 S    
O37   C14   1.398797 S    
O4    Ba4   2.871460 S    
C3    H69   1.109372 S    
C21   C25   1.512819 S    
O23   P16   1.751326 S    
C66   C70   1.399755 A    
C59   C63   1.438483 A    
O39   C16   1.398551 S    
C36   H88   1.082081 S    
O24   P15   1.750724 S    
P3    C51   1.881065 S    
C20   H36   1.104362 S    
C74   H99   1.103685 S    
C4    H2    1.111310 S    
C42   C46   1.399613 A    
C31   H67   1.100775 S    
C36   C64   1.395732 A    
P2    O18   1.742688 S    
C1    C29   1.520754 S    
O9    Ba1   2.815931 S    
C19   H35   1.104774 S    
C39   H91   1.082299 S    
C56   C70   1.408014 A    
C33   C61   1.392874 A    
P12   C67   1.834686 S    
C32   H68   1.105192 S    
O44   C8    1.406129 S    
O25   Ba1   2.874872 S    
P10   O30   1.744969 S    
O38   C13   1.398346 S    
C3    H1    1.110084 S    
O5    Ba2   2.847653 S    
C42   C60   1.406386 A    
P11   O43   1.743148 S    
P6    Ba2   3.429089 S    
C9    H19   1.110211 S    
C1    H71   1.110428 S    
C12   H24   1.103119 S    
O13   P14   1.539025 D    
N1    C73   1.443022 S    
C19   H39   1.107570 S    
Ba1   Ba2   4.642071 S    
C8    C12   1.508748 S    
C70   H84   1.072295 S    
P6    O26   1.538225 D    
C5    C9    1.508780 S    
C27   H59   1.105615 S    
C56   C58   1.437739 A    
C25   H61   1.104936 S    
N4    C76   1.443044 S    
C10   H76   1.109041 S    
Ba2   O46   2.847871 S    
Ba4   O48   2.847871 S    
C54   C60   1.437665 A    
Ba2   O45   2.951789 S    
C69   H83   1.072331 S    
Ba4   O47   2.951789 S    
C2    C30   1.520869 S    
P7    Ba3   3.429207 S    
C13   H29   1.110429 S    
P7    O48   1.598162 S    
P8    O40   1.747503 S    
O31   Ba3   2.815333 S    
C13   H25   1.104577 S    
O9    P14   1.761460 S    
C4    H8    1.111543 S    
P6    C61   1.875286 S    
O24   C32   1.410488 S    
P11   O31   1.743412 S    
P5    O46   1.598162 S    
C18   H34   1.104788 S    
C75   H104  1.105968 S    
C17   H37   1.106368 S    
P12   O32   1.743880 S    
C16   H32   1.110322 S    
C25   H53   1.107844 S    
C22   C26   1.509624 S    
C57   C61   1.438839 A    
C41   H79   1.075040 S    
P1    Ba1   3.426814 S    
C11   H17   1.110304 S    
P7    C64   1.880515 S    
C55   C69   1.408590 A    
P8    O47   1.597987 S    
C43   C47   1.399771 A    
P15   C48   1.841209 S    
C28   H56   1.107526 S    
O40   C15   1.398503 S    
O3    Ba3   2.871213 S    
P12   O44   1.742944 S    
C39   C47   1.389562 A    
C76   H108  1.105471 S    
C75   H102  1.101659 S    
C41   C45   1.399141 A    
C44   H78   1.075264 S    
C35   C63   1.393088 A    
P5    O25   1.538214 D    
C11   H23   1.105180 S    
C44   C48   1.399262 A    
C1    H3    1.110091 S    
O19   C23   1.397487 S    
O2    Ba2   2.871460 S    
P9    C66   1.834843 S    
C10   H22   1.104495 S    
C31   N3    1.450413 S    
C2    H4    1.110014 S    
P16   C47   1.845574 S    
C74   H100  1.105891 S    
C41   C59   1.405317 A    
C23   H47   1.108338 S    
C11   H73   1.107171 S    
O12   Ba4   2.816028 S    
Ba1   O45   2.847624 S    
O11   P16   1.756710 S    
C13   C17   1.516878 S    
O14   P13   1.538771 D    
C40   C52   1.394348 A    
P9    O41   1.743164 S    
C30   N2    1.446853 S    
O28   Ba4   2.874620 S    
C20   H40   1.106858 S    
C43   C57   1.406736 A    
C50   C54   1.441633 A    
O8    Ba3   2.847899 S    
C42   H80   1.074730 S    
P7    O27   1.538214 D    
C3    H7    1.111052 S    
C10   H20   1.110422 S    
C16   H28   1.104782 S    
C27   H63   1.106861 S    
C73   H96   1.103259 S    
O22   C30   1.409889 S    
C53   C59   1.437610 A    
O43   C7    1.403544 S    
P8    C63   1.876479 S    
C35   H87   1.082143 S    
P6    O45   1.597987 S    
C6    C10   1.508730 S    
C65   C69   1.399753 A    
C34   H86   1.082172 S    
C72   H82   1.070777 S    
P3    O7    1.592987 S    
P11   O35   1.544875 D    
C21   H45   1.108368 S    
C4    H70   1.111398 S    
C29   N1    1.446783 S    
O42   C6    1.406048 S    
C22   H50   1.109441 S    
C8    H16   1.110602 S    
C58   C62   1.438683 A    
C34   C62   1.392980 A    
P8    Ba4   3.429089 S    
O21   P14   1.749833 S    
C55   C57   1.437700 A    
C22   H46   1.108503 S    
P1    C49   1.879360 S    
C12   H18   1.110321 S    
C44   C58   1.405516 A    
O29   Ba1   2.815333 S    
C38   C46   1.387614 A    
O7    Ba4   2.847653 S    
P2    C50   1.877986 S    
P11   C68   1.841631 S    
O17   C21   1.398051 S    
C23   C27   1.509851 S    
C18   H42   1.105969 S    
C71   H81   1.072185 S    
C14   H30   1.109939 S    
C24   C28   1.510080 S    
P2    O6    1.593160 S    
