data_mof_unit_17551.cif
_audit_creation_date              2012-12-10T20:39:53-0500
_audit_creation_method            fapswitch 2.2
_symmetry_space_group_name_H-M    P1
_symmetry_Int_Tables_number       1
_space_group_crystal_system       triclinic
_cell_length_a                    23.453747
_cell_length_b                    10.675975
_cell_length_c                    9.838821
_cell_angle_alpha                 90.123292
_cell_angle_beta                  89.578386
_cell_angle_gamma                 90.049771
_cell_volume                      2463.48499799

loop_
_atom_site_label
_atom_site_type_symbol
_atom_type_description
_atom_site_fract_x
_atom_site_fract_y
_atom_site_fract_z
_atom_type_partial_charge
C1    C     C_R   0.498260 0.259877 0.499968 0.887675
C2    C     C_R   0.971214 0.272506 0.487529 -0.152927
C3    C     C_R   0.030423 0.273977 0.484550 -0.146018
C4    C     C_R   0.060223 0.386735 0.502976 -0.010240
C5    C     C_R   0.030263 0.499448 0.526625 -0.026626
C6    C     C_R   0.060027 0.613757 0.545581 -0.058432
C7    C     C_R   0.028520 0.725365 0.570318 -0.020208
C8    C     C_R   0.969074 0.721480 0.573777 -0.192740
C9    C     C_R   0.119546 0.389567 0.497610 0.518379
C10   C     C_R   0.120059 0.610667 0.538071 0.509927
C11   C     C_R   0.238626 0.497616 0.629956 -0.106046
C12   C     C_R   0.389274 0.500036 0.500582 0.881531
C13   C     C_R   0.297684 0.497844 0.627284 -0.206222
C14   C     C_R   0.327055 0.500198 0.502553 -0.053950
C15   C     C_R   0.296560 0.503004 0.380351 -0.248669
C16   C     C_R   0.237189 0.503025 0.382831 0.049552
C17   C     C_R   0.208374 0.500065 0.508405 0.279117
C18   C     C_R   0.759311 0.457221 0.626484 -0.101529
C19   C     C_R   0.700475 0.459178 0.618712 -0.221115
C20   C     C_R   0.673395 0.500229 0.500008 -0.105797
C21   C     C_R   0.706642 0.539664 0.386854 -0.077939
C22   C     C_R   0.766390 0.536245 0.395260 -0.005959
C23   C     C_R   0.498217 0.740142 0.500139 0.887436
C24   C     C_R   0.792154 0.495745 0.515864 0.263449
C25   C     C_R   0.488715 0.064270 0.623512 0.127992
C26   C     C_R   0.489094 0.128564 0.500590 -0.103158
C27   C     C_R   0.478512 0.064412 0.378843 -0.212812
C28   C     C_R   0.478388 0.934943 0.379012 -0.212581
C29   C     C_R   0.488939 0.871445 0.500931 -0.103110
C30   C     C_R   0.488555 0.936485 0.623748 0.145453
C31   C     C_3   0.528641 0.929823 0.741001 -0.488071
C32   C     C_3   0.528975 0.071759 0.740389 -0.468380
C33   C     C_R   0.480385 0.398220 0.071419 0.215832
C34   C     C_R   0.610825 0.501117 0.499440 0.880949
C35   C     C_R   0.523987 0.595542 0.071812 -0.110185
C36   C     C_R   0.524288 0.595188 0.927715 -0.123047
C37   C     C_R   0.480339 0.398323 0.928661 0.210376
C38   C     C_3   0.421610 0.345300 0.923614 -0.500759
C39   C     C_3   0.421608 0.345143 0.077902 -0.503149
C40   C     C_R   0.880247 0.605313 0.551751 0.527079
C41   C     C_R   0.881243 0.385003 0.507976 0.513988
C42   C     C_R   0.940773 0.383762 0.509162 -0.014546
C43   C     C_R   0.970283 0.497395 0.530030 -0.017563
C44   C     C_R   0.939786 0.608917 0.552802 -0.026633
H1    H     H_    0.949433 0.184205 0.471730 0.195352
H2    H     H_    0.676090 0.427925 0.706244 0.174404
H3    H     H_    0.474501 0.113041 0.282940 0.164817
H4    H     H_    0.474189 0.885737 0.283176 0.170012
H5    H     H_    0.507915 0.889942 0.833209 0.200879
H6    H     H_    0.570527 0.887841 0.713151 0.209452
H7    H     H_    0.508740 0.113365 0.832443 0.200587
H8    H     H_    0.571010 0.112545 0.711624 0.210906
H9    H     H_    0.542277 0.673882 0.126045 0.159143
H10   H     H_    0.052731 0.186640 0.466596 0.201242
H11   H     H_    0.543289 0.672593 0.873145 0.150291
H12   H     H_    0.390305 0.411735 0.879965 0.215148
H13   H     H_    0.420915 0.249733 0.878660 0.202819
H14   H     H_    0.390231 0.411344 0.123210 0.217110
H15   H     H_    0.420883 0.249401 0.121870 0.197846
H16   H     H_    0.945619 0.807548 0.591829 0.193736
H17   H     H_    0.216158 0.495632 0.726504 0.150303
H18   H     H_    0.320194 0.496320 0.722852 0.158080
H19   H     H_    0.318772 0.505638 0.283439 0.156054
H20   H     H_    0.779618 0.425992 0.718926 0.153144
N1    N     N_R   0.852630 0.494973 0.527239 -0.357389
N2    N     N_R   0.147720 0.500183 0.514089 -0.358860
N3    N     N_R   0.499610 0.499140 0.142800 -0.110344
N4    N     N_R   0.499610 0.499180 0.857150 -0.108982
O1    O     O_R   0.500010 0.316790 0.614690 -0.618286
O2    O     O_2   0.852044 0.277959 0.485830 -0.544456
O3    O     O_2   0.149149 0.282860 0.475981 -0.540415
O4    O     O_2   0.151010 0.716188 0.553704 -0.537799
O5    O     O_R   0.500000 0.316760 0.385350 -0.621153
O6    O     O_R   0.416160 0.499980 0.614700 -0.623158
O7    O     O_R   0.416150 0.499940 0.385360 -0.623791
O8    O     O_R   0.500000 0.683240 0.614650 -0.620846
O9    O     O_R   0.499990 0.683210 0.385310 -0.629424
O10   O     O_R   0.583850 0.500060 0.614640 -0.618264
O11   O     O_R   0.583840 0.500020 0.385300 -0.604099
O12   O     O_2   0.849989 0.711109 0.573367 -0.543173
Zn1   Zn    Zn3+2 0.500000 0.500020 0.653130 0.951545
Zn2   Zn    Zn3+2 0.500000 0.499980 0.346870 0.958846
C45   C     C_1   0.680604 0.587289 0.264170 0.220498
N5    N     N_1   0.660190 0.625492 0.165905 -0.206456
C46   C     C_1   0.801796 0.574100 0.281128 0.203083
N6    N     N_1   0.830121 0.604282 0.190105 -0.171728
C47   C     C_1   0.054853 0.846177 0.592290 0.284957
N7    N     N_1   0.075686 0.943126 0.609966 -0.151811
C48   C     C_1   0.206317 0.506930 0.256620 0.192717
N8    N     N_1   0.181514 0.510045 0.155441 -0.182857

loop_
_geom_bond_atom_site_label_1
_geom_bond_atom_site_label_2
_ccdc_geom_bond_type
C47   N7    T    
C12   O6    A    
C35   H9    S    
C41   C42   A    
C19   C20   A    
C23   O8    A    
C19   H2    S    
C7    C8    A    
C46   N6    T    
C5    C6    A    
C17   N2    S    
C29   C30   A    
C18   C24   A    
N4    Zn1   S    
C23   C29   S    
C28   C29   A    
C30   C31   S    
C3    H10   S    
C15   C16   A    
C37   N4    A    
C18   C19   A    
C22   C46   S    
C9    N2    A    
C32   H8    S    
C7    C47   S    
C13   H18   S    
C31   C32   S    
C16   C17   A    
C40   O12   S    
C20   C34   S    
C25   C32   S    
C5    C43   A    
C16   C48   S    
C21   C22   A    
C31   H5    S    
C10   N2    A    
C2    H1    S    
C9    O3    S    
C41   N1    A    
C25   C26   A    
C39   H14   S    
C1    O1    A    
C35   C36   A    
C43   C44   A    
C32   H7    S    
C37   C38   S    
C34   O11   A    
C38   H13   S    
C45   N5    T    
C35   N3    A    
C39   H15   S    
C26   C27   A    
C33   C39   S    
C23   O9    A    
C24   N1    S    
C12   C14   S    
C40   N1    A    
C1    C26   S    
C22   C24   A    
C42   C43   A    
C31   H6    S    
C3    C4    A    
O5    Zn2   S    
C27   C28   A    
C33   N3    A    
C27   H3    S    
C25   C30   A    
C28   H4    S    
C8    C44   A    
C4    C5    A    
C11   H17   S    
C11   C17   A    
O8    Zn1   S    
C6    C10   A    
O11   Zn2   S    
C36   N4    A    
O7    Zn2   S    
C6    C7    A    
C1    O5    A    
C2    C3    A    
C48   N8    T    
C36   H11   S    
C34   O10   A    
C11   C13   A    
O10   Zn1   S    
C18   H20   S    
C38   C39   S    
O9    Zn2   S    
C2    C42   A    
C33   C37   A    
O1    Zn1   S    
C40   C44   A    
C38   H12   S    
C20   C21   A    
N3    Zn2   S    
C12   O7    A    
C21   C45   S    
C15   H19   S    
C14   C15   A    
O6    Zn1   S    
C4    C9    A    
C13   C14   A    
C8    H16   S    
C41   O2    S    
C10   O4    S    
