data_mof_unit_11039.cif
_audit_creation_date              2012-12-10T20:27:51-0500
_audit_creation_method            fapswitch 2.2
_symmetry_space_group_name_H-M    P1
_symmetry_Int_Tables_number       1
_space_group_crystal_system       triclinic
_cell_length_a                    12.802144
_cell_length_b                    10.763475
_cell_length_c                    9.914244
_cell_angle_alpha                 91.197714
_cell_angle_beta                  96.928098
_cell_angle_gamma                 91.166499
_cell_volume                      1355.50703639

loop_
_atom_site_label
_atom_site_type_symbol
_atom_type_description
_atom_site_fract_x
_atom_site_fract_y
_atom_site_fract_z
_atom_type_partial_charge
C1    C     C_R   0.501008 0.260230 0.498731 0.960615
C2    C     C_R   0.031113 0.569711 0.550889 0.010416
C3    C     C_R   0.970871 0.540177 0.425015 0.079389
C4    C     C_R   0.862858 0.530598 0.421762 -0.213842
C5    C     C_R   0.881145 0.524451 0.668995 -0.007487
C6    C     C_R   0.985571 0.564590 0.671659 -0.160741
C7    C     C_R   0.496327 0.066480 0.617934 -0.071780
C8    C     C_R   0.496827 0.127873 0.495524 -0.165984
C9    C     C_R   0.489683 0.058889 0.371767 0.509462
C10   C     C_R   0.481622 0.930622 0.374544 -0.329309
C11   C     C_R   0.493157 0.870631 0.499226 -0.157923
C12   C     C_R   0.298843 0.510608 0.472769 0.925956
C13   C     C_R   0.499020 0.939743 0.619495 -0.114397
C14   C     C_3   0.573088 0.941258 0.749877 0.378602
C15   C     C_3   0.566245 0.082970 0.750467 0.290523
C16   C     C_R   0.454868 0.403037 0.062873 0.182957
C17   C     C_R   0.557093 0.585768 0.083313 -0.235129
C18   C     C_R   0.562014 0.582773 0.938705 0.571582
C19   C     C_R   0.450485 0.406397 0.920476 -0.039690
C20   C     C_3   0.336002 0.366794 0.903205 -0.196587
C21   C     C_3   0.344093 0.356770 0.058452 0.240077
C22   C     C_R   0.499126 0.739406 0.500677 0.893958
C23   C     C_R   0.702816 0.501585 0.526961 0.860569
C24   C     C_R   0.816858 0.518235 0.542152 -0.151576
C25   C     C_R   0.188141 0.537990 0.450613 -0.154154
C26   C     C_R   0.021450 0.518850 0.307770 -0.019822
C27   C     C_R   0.130415 0.512709 0.323720 -0.353720
C28   C     C_R   0.138602 0.589814 0.555207 0.415540
H1    H     H_    0.814433 0.527755 0.324868 0.210018
H2    H     H_    0.522617 0.122364 0.831535 0.029829
H3    H     H_    0.598838 0.657065 0.148170 0.150871
H4    H     H_    0.297308 0.423934 0.111890 0.110990
H5    H     H_    0.034110 0.577596 0.768619 0.195816
H6    H     H_    0.169400 0.483098 0.238157 0.169772
H7    H     H_    0.473658 0.878949 0.278718 0.196138
H8    H     H_    0.534652 0.900452 0.833961 0.085280
N1    N     N_R   0.499290 0.499140 0.142710 -0.140144
N2    N     N_R   0.499290 0.499180 0.857070 -0.125868
O1    O     O_R   0.500010 0.316790 0.614690 -0.598331
O2    O     O_R   0.500000 0.316760 0.385350 -0.562129
O3    O     O_R   0.346360 0.499990 0.595720 -0.560974
O4    O     O_R   0.346350 0.499960 0.366370 -0.642895
O5    O     O_R   0.500000 0.683240 0.614650 -0.560057
O6    O     O_R   0.499990 0.683210 0.385310 -0.645876
O7    O     O_R   0.653650 0.500040 0.633630 -0.612824
O8    O     O_R   0.653640 0.500010 0.404280 -0.625976
Zn1   Zn    Zn3+2 0.500010 0.500020 0.653130 1.048784
Zn2   Zn    Zn3+2 0.499990 0.499980 0.346870 0.977557
O9    O     O_3   0.677351 0.896163 0.749291 -0.570853
C29   C     C_3   0.720846 0.903869 0.624983 -0.154806
H9    H     H_    0.807616 0.913008 0.648364 0.163675
H10   H     H_    0.694840 0.984939 0.563379 0.174229
H11   H     H_    0.704090 0.816306 0.564702 0.132143
O10   O     O_3   0.661945 0.145592 0.734448 -0.594481
C30   C     C_3   0.715145 0.177948 0.863546 -0.197414
H12   H     H_    0.721035 0.097551 0.932796 0.148834
H13   H     H_    0.675940 0.256703 0.909773 0.146603
H14   H     H_    0.796521 0.208248 0.851030 0.230659
O11   O     O_3   0.624581 0.665497 0.876107 -0.568160
C31   C     C_3   0.718418 0.700347 0.959974 -0.330404
H15   H     H_    0.778147 0.730397 0.894479 0.223624
H16   H     H_    0.753209 0.622067 0.020631 0.146423
H17   H     H_    0.704271 0.780552 0.027234 0.164868
C32   C     C_2   0.260582 0.467370 0.857920 0.497450
H18   H     H_    0.189965 0.444474 0.789512 0.121698
O12   O     O_2   0.274392 0.573120 0.905077 -0.569203
C33   C     C_2   0.317276 0.245686 0.822411 0.397913
H19   H     H_    0.347666 0.159630 0.864544 0.110151
O13   O     O_2   0.270055 0.243015 0.707703 -0.599839
O14   O     O_3   0.340117 0.233577 0.103722 -0.556230
C34   C     C_3   0.238203 0.205184 0.135878 -0.252548
H20   H     H_    0.176807 0.224393 0.049836 0.146515
H21   H     H_    0.222743 0.257363 0.229134 0.172113
H22   H     H_    0.233156 0.104607 0.157102 0.199103
C35   C     C_2   0.848836 0.474316 0.795930 0.351930
H23   H     H_    0.770707 0.483593 0.824205 0.139663
O15   O     O_2   0.911662 0.416279 0.871033 -0.593979
C36   C     C_2   0.966615 0.488428 0.170844 0.378776
H24   H     H_    0.000138 0.522784 0.083039 0.114466
O16   O     O_2   0.889139 0.419284 0.154138 -0.568970
O17   O     O_3   0.195009 0.651638 0.664794 -0.589852
C37   C     C_3   0.218639 0.773337 0.626045 -0.209135
H25   H     H_    0.268301 0.773159 0.541339 0.130059
H26   H     H_    0.264109 0.823008 0.714025 0.202213
H27   H     H_    0.145463 0.825699 0.597487 0.144888
O18   O     O_3   0.490621 0.115429 0.248192 -0.531867
C38   C     C_3   0.591897 0.106128 0.207010 -0.260773
H28   H     H_    0.594204 0.160477 0.113609 0.178441
H29   H     H_    0.609508 0.008175 0.181818 0.128373
H30   H     H_    0.653703 0.146144 0.285504 0.156220

loop_
_geom_bond_atom_site_label_1
_geom_bond_atom_site_label_2
_ccdc_geom_bond_type
C30   H12   S    
C20   C32   S    
C16   C21   S    
C23   O7    A    
C1    C8    S    
C20   C33   S    
C19   C20   S    
C38   H28   S    
O17   C37   S    
C7    C8    A    
C25   C28   A    
C26   C27   A    
C26   C36   S    
C31   H17   S    
C14   H8    S    
C5    C6    A    
C4    C24   A    
C36   O16   D    
C14   O9    S    
C31   H16   S    
C12   O4    A    
C1    O2    A    
C22   O6    A    
C8    C9    A    
C29   H10   S    
C23   C24   S    
O14   C34   S    
C9    C10   A    
C4    H1    S    
C16   N1    A    
C7    C15   S    
O11   C31   S    
C23   O8    A    
C13   C14   S    
C2    C6    A    
C29   H9    S    
O7    Zn1   S    
C27   H6    S    
C21   H4    S    
O8    Zn2   S    
C29   H11   S    
C33   H19   S    
C15   O10   S    
C34   H21   S    
C36   H24   S    
C17   N1    A    
C31   H15   S    
C33   O13   D    
C32   O12   D    
C5    C35   S    
C35   H23   S    
C12   O3    A    
C19   N2    A    
C9    O18   S    
C22   O5    A    
C17   C18   A    
O3    Zn1   S    
O4    Zn2   S    
N1    Zn2   S    
C35   O15   D    
N2    Zn1   S    
C10   H7    S    
O9    C29   S    
C37   H26   S    
C30   H13   S    
C17   H3    S    
C30   H14   S    
C3    C4    A    
C15   H2    S    
O1    Zn1   S    
O2    Zn2   S    
O10   C30   S    
C28   O17   S    
O18   C38   S    
C3    C26   A    
C34   H22   S    
C25   C27   A    
C37   H27   S    
C12   C25   S    
C11   C22   S    
C6    H5    S    
C21   O14   S    
C32   H18   S    
C38   H29   S    
C2    C3    A    
C18   N2    A    
C34   H20   S    
C11   C13   A    
C5    C24   A    
C16   C19   A    
C10   C11   A    
C1    O1    A    
C18   O11   S    
C7    C13   A    
C20   C21   S    
C37   H25   S    
C38   H30   S    
C14   C15   S    
C2    C28   A    
O5    Zn1   S    
O6    Zn2   S    
