data_mof_unit_23377.cif
_audit_creation_date              2012-12-10T17:18:57-0500
_audit_creation_method            fapswitch 2.2
_symmetry_space_group_name_H-M    P1
_symmetry_Int_Tables_number       1
_space_group_crystal_system       triclinic
_cell_length_a                    10.234593
_cell_length_b                    10.735786
_cell_length_c                    13.594005
_cell_angle_alpha                 92.20018
_cell_angle_beta                  100.288848
_cell_angle_gamma                 95.86311
_cell_volume                      1459.50440838

loop_
_atom_site_label
_atom_site_type_symbol
_atom_type_description
_atom_site_fract_x
_atom_site_fract_y
_atom_site_fract_z
_atom_type_partial_charge
C1    C     C_R   0.051124 0.732231 0.488820 0.817052
C2    C     C_R   0.945568 0.266802 0.503750 0.792834
C3    C     C_R   0.486340 0.647054 0.110026 -0.232740
C4    C     C_R   0.573903 0.532644 0.871131 -0.207457
C5    C     C_R   0.354152 0.669579 0.079389 -0.247566
C6    C     C_R   0.705059 0.507708 0.901386 -0.233733
C7    C     C_2   0.074618 0.863042 0.467312 0.333168
C8    C     C_2   0.908915 0.131837 0.494630 0.346404
C9    C     C_2   0.968440 0.927940 0.450468 -0.264963
C10   C     C_2   0.986059 0.062468 0.450524 -0.220910
C11   C     C_2   0.430433 0.513278 0.506471 0.058274
C12   C     C_2   0.569116 0.493079 0.487900 0.079251
C13   C     C_R   0.094496 0.515786 0.685863 0.866854
C14   C     C_R   0.906817 0.488903 0.314044 0.847048
C15   C     C_R   0.151672 0.544691 0.791578 -0.065929
C16   C     C_R   0.860590 0.496652 0.206657 -0.055144
C17   C     C_R   0.151246 0.645958 0.953564 -0.208393
C18   C     C_R   0.885652 0.469463 0.033997 -0.208337
C19   C     C_R   0.084193 0.605205 0.857212 -0.226133
C20   C     C_R   0.936390 0.463187 0.135670 -0.211991
C21   C     C_R   0.284837 0.525320 0.822759 -0.252072
C22   C     C_R   0.737518 0.541516 0.175772 -0.262974
C23   C     C_R   0.356872 0.575103 0.914871 0.094970
C24   C     C_R   0.685592 0.550806 0.074663 0.094509
C25   C     C_R   0.287171 0.630733 0.983016 0.179793
C26   C     C_R   0.759658 0.510418 0.002934 0.158722
C27   C     C_R   0.495249 0.565235 0.942025 0.051560
C28   C     C_R   0.556801 0.588866 0.043413 0.071265
H1    H     H_    0.303216 0.714255 0.132193 0.139555
H2    H     H_    0.761601 0.480647 0.845305 0.166280
H3    H     H_    0.679857 0.563204 0.231862 0.156481
H4    H     H_    0.331472 0.470093 0.773783 0.162489
H5    H     H_    0.032713 0.429495 0.158412 0.140982
H6    H     H_    0.981105 0.622309 0.833874 0.155283
H7    H     H_    0.097571 0.690579 0.004482 0.145787
H8    H     H_    0.942973 0.438778 0.979684 0.150767
H9    H     H_    0.532259 0.679483 0.185595 0.144618
H10   H     H_    0.536850 0.528029 0.791425 0.186115
H11   H     H_    0.073311 0.104992 0.424010 0.188162
H12   H     H_    0.867412 0.882805 0.446389 0.188707
H13   H     H_    0.578490 0.429808 0.426014 0.141853
H14   H     H_    0.419586 0.591494 0.556227 0.142009
N1    N     N_2   0.322180 0.446120 0.460900 0.068666
N2    N     N_2   0.677820 0.553880 0.539100 0.063790
O1    O     O_R   0.935190 0.693030 0.507870 -0.661244
O2    O     O_R   0.064810 0.306970 0.492130 -0.616969
O3    O     O_R   0.142080 0.658430 0.482770 -0.600384
O4    O     O_R   0.857920 0.341570 0.517230 -0.577224
O5    O     O_R   0.969700 0.527180 0.651960 -0.608092
O6    O     O_R   0.030300 0.472820 0.348040 -0.642797
O7    O     O_R   0.176600 0.492580 0.626860 -0.607906
O8    O     O_R   0.823400 0.507420 0.373140 -0.629618
Zn1   Zn    Zn3+2 0.861850 0.523100 0.516760 0.960443
Zn2   Zn    Zn3+2 0.138150 0.476900 0.483240 0.963748
O9    O     O_3   0.794570 0.077629 0.524730 -0.595261
C29   C     C_3   0.813881 0.087513 0.630170 -0.316853
H15   H     H_    0.821302 0.186784 0.659058 0.177336
H16   H     H_    0.903650 0.043198 0.664465 0.149343
H17   H     H_    0.725986 0.036485 0.653937 0.193331
O10   O     O_3   0.203937 0.920669 0.475496 -0.580900
C30   C     C_3   0.243433 0.906243 0.381870 -0.285557
H18   H     H_    0.176224 0.949169 0.322072 0.141435
H19   H     H_    0.247730 0.805827 0.360625 0.157569
H20   H     H_    0.345384 0.955535 0.387386 0.210355
O11   O     O_3   0.660625 0.612081 0.625002 -0.580019
C31   C     C_3   0.744072 0.725799 0.640244 -0.131035
H21   H     H_    0.735699 0.779145 0.571199 0.167266
H22   H     H_    0.848714 0.710331 0.669643 0.185242
H23   H     H_    0.711401 0.784771 0.698105 0.130537
O12   O     O_3   0.343816 0.342103 0.409860 -0.546696
C32   C     C_3   0.250074 0.326717 0.320249 -0.129954
H24   H     H_    0.242467 0.416287 0.282027 0.134817
H25   H     H_    0.151732 0.284945 0.333302 0.176983
H26   H     H_    0.284333 0.259734 0.268773 0.127198

loop_
_geom_bond_atom_site_label_1
_geom_bond_atom_site_label_2
_ccdc_geom_bond_type
C5    C25   A    
C32   H26   S    
C31   H22   S    
C11   C12   S    
C14   O8    A    
C11   N1    D    
C12   H13   S    
C23   C27   A    
C4    H10   S    
C30   H20   S    
C9    C10   S    
N1    Zn2   S    
C5    H1    S    
C30   H18   S    
C18   C26   A    
C29   H17   S    
C16   C20   A    
O7    Zn2   S    
C17   C25   A    
O2    Zn2   S    
O9    C29   S    
C21   C23   A    
C31   H21   S    
C6    C26   A    
O1    Zn1   S    
C32   H24   S    
C12   N2    D    
C14   O6    A    
C23   C25   A    
C2    O2    A    
C15   C19   A    
C10   H11   S    
C1    O1    A    
N2    O11   S    
O6    Zn2   S    
C29   H15   S    
O3    Zn2   S    
O5    Zn1   S    
C20   H5    S    
C8    O9    S    
C4    C6    A    
C3    C28   A    
C17   C19   A    
C24   C26   A    
N1    O12   S    
C18   C20   A    
C13   C15   S    
C13   O5    A    
O4    Zn1   S    
C21   H4    S    
C14   C16   S    
C31   H23   S    
C22   H3    S    
C7    C9    D    
C7    O10   S    
C15   C21   A    
O12   C32   S    
O8    Zn1   S    
C3    H9    S    
C11   H14   S    
C8    C10   D    
O11   C31   S    
C22   C24   A    
C32   H25   S    
C27   C28   A    
C30   H19   S    
C1    O3    A    
C1    C7    S    
C16   C22   A    
C4    C27   A    
C17   H7    S    
C2    O4    A    
C13   O7    A    
C18   H8    S    
N2    Zn1   S    
C6    H2    S    
C9    H12   S    
C2    C8    S    
C24   C28   A    
C29   H16   S    
O10   C30   S    
C3    C5    A    
C19   H6    S    
