data_mof_unit_31287.cif
_audit_creation_date              2012-10-26T20:22:08-0400
_audit_creation_method            fapswitch 2.2
_symmetry_space_group_name_H-M    P1
_symmetry_Int_Tables_number       1
_space_group_crystal_system       triclinic
_cell_length_a                    10.801931
_cell_length_b                    9.532489
_cell_length_c                    10.628685
_cell_angle_alpha                 89.700407
_cell_angle_beta                  90.213719
_cell_angle_gamma                 89.962479
_cell_volume                      1094.4053075

loop_
_atom_site_label
_atom_site_type_symbol
_atom_type_description
_atom_site_fract_x
_atom_site_fract_y
_atom_site_fract_z
_atom_type_partial_charge
C1    C     C_R   0.871654 0.499505 0.501010 0.033328
C2    C     C_3   0.398658 0.433159 0.042024 -0.124990
C3    C     C_3   0.397895 0.565420 0.957129 -0.121216
C4    C     C_3   0.602105 0.434580 0.042871 -0.121216
C5    C     C_3   0.500058 0.498783 0.877673 0.047542
C6    C     C_3   0.499941 0.501217 0.122326 0.047542
C7    C     C_R   0.423821 0.074879 0.420929 0.025236
C8    C     C_R   0.576179 0.925121 0.579071 0.025237
C9    C     C_R   0.576166 0.073856 0.579079 0.023528
C10   C     C_R   0.423834 0.926143 0.420921 0.023527
C11   C     C_R   0.064513 0.408270 0.419128 0.164731
C12   C     C_R   0.128346 0.500495 0.498989 0.033328
C13   C     C_R   0.935487 0.591730 0.580872 0.164731
C14   C     C_R   0.934275 0.410652 0.417636 0.169605
C15   C     C_R   0.065725 0.589348 0.582364 0.169605
C16   C     C_R   0.262344 0.500047 0.499426 0.636463
C17   C     C_R   0.737656 0.499953 0.500574 0.636463
C18   C     C_R   0.499914 0.500401 0.259211 0.559988
C19   C     C_R   0.500086 0.499599 0.740789 0.559988
C20   C     C_3   0.499177 0.633607 0.039712 -0.117274
C21   C     C_3   0.500823 0.366393 0.960288 -0.117274
C22   C     C_3   0.601342 0.566841 0.957975 -0.124990
Cu1   Cu    Cu3+1 0.500000 0.640660 0.500000 0.998700
Cu2   Cu    Cu3+1 0.500000 0.359340 0.500000 0.998700
H1    H     H_    0.362755 0.131241 0.357536 0.139980
H2    H     H_    0.315788 0.378630 0.079685 0.138731
H3    H     H_    0.082849 0.231925 0.330210 0.333109
H4    H     H_    0.917151 0.768075 0.669791 0.333109
H5    H     H_    0.915355 0.319461 0.255264 0.328796
H6    H     H_    0.084645 0.680537 0.744736 0.328796
H7    H     H_    0.637245 0.868759 0.642464 0.139980
H8    H     H_    0.637207 0.129412 0.642481 0.112339
H9    H     H_    0.362793 0.870588 0.357519 0.112339
H10   H     H_    0.314380 0.618761 0.918801 0.138036
H11   H     H_    0.685620 0.381238 0.081199 0.138037
H12   H     H_    0.498468 0.743086 0.074844 0.124597
H13   H     H_    0.501532 0.256914 0.925156 0.124597
H14   H     H_    0.684211 0.621370 0.920315 0.138731
N1    N     N_R   0.500000 0.852070 0.500000 -0.229154
N2    N     N_R   0.500000 0.147930 0.500000 -0.229154
O1    O     O_R   0.319640 0.618740 0.499990 -0.471229
O2    O     O_3   0.868302 0.681545 0.656204 -0.718756
O3    O     O_3   0.865758 0.333482 0.332345 -0.699156
O4    O     O_3   0.134242 0.666518 0.667655 -0.699157
O5    O     O_R   0.680360 0.381260 0.500010 -0.471229
O6    O     O_R   0.680360 0.618740 0.500010 -0.473657
O7    O     O_R   0.319640 0.381260 0.499990 -0.473657
O8    O     O_R   0.499970 0.618770 0.316850 -0.525377
O9    O     O_R   0.500030 0.381230 0.683150 -0.525377
O10   O     O_R   0.500030 0.618770 0.683150 -0.493900
O11   O     O_R   0.499970 0.381230 0.316850 -0.493900
O12   O     O_3   0.131698 0.318455 0.343796 -0.718756

loop_
_geom_bond_atom_site_label_1
_geom_bond_atom_site_label_2
_ccdc_geom_bond_type
C15   O4    S    
C7    C10   A    
C11   C12   A    
Cu1   O1    S    
Cu1   O8    S    
C8    N1    A    
C4    C22   S    
C19   O9    A    
C1    C17   S    
C7    H1    S    
C12   C15   A    
C7    N2    A    
C2    C21   S    
C2    C3    S    
C8    C9    A    
C4    H11   S    
C5    C21   S    
C3    C20   S    
C2    H2    S    
Cu1   O6    S    
H5    O3    S    
C17   O6    A    
C4    C21   S    
Cu2   O7    S    
C19   O10   A    
H6    O4    S    
C2    C6    S    
C6    C20   S    
Cu2   O11   S    
Cu1   N1    S    
Cu2   O5    S    
C16   O7    A    
H4    O2    S    
C13   O2    S    
Cu2   N2    S    
C20   C22   S    
C18   O11   A    
C10   H9    S    
C13   C15   A    
C6    C18   S    
C11   C14   A    
C9    H8    S    
C1    C13   A    
C11   O12   S    
Cu1   Cu2   S    
C20   H12   S    
C21   H13   S    
H3    O12   S    
C4    C6    S    
Cu2   O9    S    
C5    C19   S    
C10   N1    A    
Cu1   O10   S    
C1    C14   A    
C3    H10   S    
C8    H7    S    
C16   O1    A    
C9    N2    A    
C5    C22   S    
C12   C16   S    
C17   O5    A    
C14   O3    S    
C3    C5    S    
C22   H14   S    
C18   O8    A    
