data_mof_unit_37366.cif
_audit_creation_date              2012-10-26T19:10:51-0400
_audit_creation_method            fapswitch 2.2
_symmetry_space_group_name_H-M    P1
_symmetry_Int_Tables_number       1
_space_group_crystal_system       triclinic
_cell_length_a                    10.754863
_cell_length_b                    9.405413
_cell_length_c                    23.55488
_cell_angle_alpha                 90.474274
_cell_angle_beta                  89.690839
_cell_angle_gamma                 90.10584
_cell_volume                      2382.54845675

loop_
_atom_site_label
_atom_site_type_symbol
_atom_type_description
_atom_site_fract_x
_atom_site_fract_y
_atom_site_fract_z
_atom_type_partial_charge
C1    C     C_R   0.259869 0.499676 0.500876 0.540816
C2    C     C_R   0.594586 0.576589 0.119096 0.416124
C3    C     C_R   0.513562 0.387330 0.233822 0.195330
C4    C     C_R   0.499849 0.499427 0.390683 0.608273
C5    C     C_R   0.515586 0.376717 0.293351 0.096626
C6    C     C_R   0.498751 0.500879 0.327572 0.024274
C7    C     C_R   0.480950 0.632279 0.300505 -0.152774
C8    C     C_R   0.478943 0.641315 0.241608 -0.091751
C9    C     C_R   0.494703 0.519481 0.208242 0.254438
C10   C     C_R   0.413282 0.597546 0.760586 -0.025198
C11   C     C_R   0.409563 0.593072 0.701113 -0.039958
C12   C     C_R   0.280170 0.431081 0.970847 0.093612
C13   C     C_R   0.493733 0.502965 0.671305 0.006314
C14   C     C_R   0.577181 0.416993 0.701752 0.060786
C15   C     C_R   0.577180 0.421710 0.761115 -0.051447
C16   C     C_R   0.740034 0.499998 0.500011 0.645585
C17   C     C_R   0.495944 0.512072 0.790534 0.179584
C18   C     C_3   0.072142 0.587820 0.551617 -0.210560
C19   C     C_3   0.072009 0.344485 0.505806 -0.238425
C20   C     C_3   0.928892 0.601562 0.548360 -0.032610
C21   C     C_3   0.929087 0.344939 0.510297 -0.015628
C22   C     C_3   0.075756 0.564426 0.444715 -0.279413
C23   C     C_R   0.280840 0.436054 0.030181 -0.119780
C24   C     C_3   0.122331 0.498870 0.500805 -0.003932
C25   C     C_3   0.878470 0.500104 0.500025 0.086296
C26   C     C_3   0.930856 0.552983 0.440211 -0.023598
C27   C     C_3   0.609835 0.083136 0.470712 -0.106504
C28   C     C_3   0.609852 0.915778 0.470705 -0.097567
C29   C     C_3   0.503166 0.084841 0.559739 -0.100340
C30   C     C_3   0.502697 0.917315 0.559737 -0.105737
C31   C     C_3   0.387843 0.082878 0.473448 -0.106252
C32   C     C_3   0.388170 0.915477 0.473129 -0.106441
C33   C     C_R   0.497674 0.500659 0.608894 0.561674
C34   C     C_R   0.385575 0.483634 0.059783 0.015788
C35   C     C_R   0.597660 0.566091 0.879512 0.423610
C36   C     C_R   0.391864 0.469705 0.879984 0.422139
C37   C     C_R   0.386807 0.474924 0.939785 0.065179
C38   C     C_R   0.492572 0.525356 0.969477 -0.083756
C39   C     C_R   0.599662 0.571263 0.939384 0.064623
C40   C     C_2   0.313576 0.677893 0.671346 0.205986
C41   C     C_2   0.881257 0.699886 0.424353 0.247840
C42   C     C_2   0.897807 0.446722 0.392978 0.256117
C43   C     C_R   0.491468 0.529126 0.029539 -0.043588
C44   C     C_R   0.596559 0.577390 0.059484 0.013647
C45   C     C_R   0.701736 0.623159 0.029517 -0.119280
C46   C     C_R   0.704547 0.620767 0.970134 0.092942
C47   C     C_R   0.387501 0.485178 0.119342 0.425271
Cu1   Cu    Cu3+1 0.499860 0.642410 0.500030 0.897730
Cu2   Cu    Cu3+1 0.499860 0.357590 0.500030 0.921883
H1    H     H_    0.640863 0.355247 0.784466 0.144114
H2    H     H_    0.697129 0.120831 0.490850 0.129252
H3    H     H_    0.696990 0.879322 0.491022 0.115315
H4    H     H_    0.198510 0.401382 0.052949 0.164001
H5    H     H_    0.611977 0.121532 0.426383 0.126173
H6    H     H_    0.611919 0.875220 0.426238 0.164599
H7    H     H_    0.587563 0.123817 0.582150 0.149399
H8    H     H_    0.586384 0.878655 0.582458 0.120915
H9    H     H_    0.302690 0.119702 0.496038 0.114476
H10   H     H_    0.302600 0.878323 0.495149 0.116182
H11   H     H_    0.380846 0.122310 0.429287 0.108780
H12   H     H_    0.113901 0.696218 0.551786 0.106775
H13   H     H_    0.382572 0.875226 0.428678 0.115277
H14   H     H_    0.421482 0.123983 0.584445 0.130615
H15   H     H_    0.420372 0.879418 0.584089 0.132931
H16   H     H_    0.783245 0.660617 0.052033 0.164062
H17   H     H_    0.467809 0.729281 0.324887 0.135519
H18   H     H_    0.464587 0.743382 0.221755 0.137301
H19   H     H_    0.350225 0.665772 0.784255 0.189318
H20   H     H_    0.151217 0.278365 0.956713 0.238762
H21   H     H_    0.096018 0.446566 0.955351 0.228364
H22   H     H_    0.294964 0.660614 0.626698 0.113092
H23   H     H_    0.100465 0.281748 0.467588 0.097360
H24   H     H_    0.649417 0.222690 0.685566 0.224567
H25   H     H_    0.753855 0.357180 0.684627 0.255587
H26   H     H_    0.778654 0.603035 0.603214 0.251653
H27   H     H_    0.913548 0.639651 0.634181 0.241866
H28   H     H_    0.895028 0.175087 0.562630 0.200504
H29   H     H_    0.942353 0.320163 0.597954 0.269443
H30   H     H_    0.906891 0.792596 0.449356 0.051597
H31   H     H_    0.969320 0.385054 0.371440 0.096747
H32   H     H_    0.889402 0.605536 0.955383 0.228693
H33   H     H_    0.832650 0.773068 0.954249 0.238119
H34   H     H_    0.100183 0.535959 0.591886 0.142317
H35   H     H_    0.462558 0.189640 0.208583 0.254833
H36   H     H_    0.617967 0.219746 0.208165 0.260230
H37   H     H_    0.459507 0.209924 0.341301 0.230179
H38   H     H_    0.616547 0.243924 0.342162 0.281757
H39   H     H_    0.113896 0.290828 0.543052 0.130587
H40   H     H_    0.906824 0.713655 0.537841 0.098028
H41   H     H_    0.893443 0.273185 0.476198 0.131847
H42   H     H_    0.107095 0.677408 0.443387 0.112827
H43   H     H_    0.123757 0.512408 0.408083 0.102842
N1    N     N_R   0.495436 0.515529 0.851538 -0.421913
N2    N     N_3   0.531535 0.263945 0.198580 -0.578737
N3    N     N_3   0.536866 0.239327 0.317129 -0.645159
N4    N     N_R   0.491519 0.529555 0.147578 -0.377392
N5    N     N_3   0.500250 0.143650 0.501250 -0.236589
N6    N     N_3   0.500250 0.856350 0.501250 -0.238308
N7    N     N_3   0.170141 0.381506 0.942812 -0.535263
N8    N     N_3   0.664200 0.327248 0.672355 -0.597981
N9    N     N_3   0.872095 0.572847 0.603977 -0.615864
N10   N     N_3   0.885829 0.285740 0.564589 -0.584181
N11   N     N_3   0.815179 0.668015 0.941740 -0.536136
O1    O     O_R   0.317570 0.620260 0.500030 -0.527889
O2    O     O_2   0.294878 0.418099 0.850079 -0.432750
O3    O     O_2   0.286749 0.441614 0.148905 -0.489150
O4    O     O_2   0.695300 0.620440 0.148396 -0.476026
O5    O     O_2   0.252495 0.767786 0.696669 -0.508212
O6    O     O_2   0.814777 0.717652 0.383093 -0.461487
O7    O     O_2   0.789787 0.426007 0.379517 -0.491459
O8    O     O_R   0.317570 0.379740 0.500030 -0.523605
O9    O     O_R   0.499840 0.620290 0.417900 -0.494970
O10   O     O_R   0.499840 0.379710 0.417900 -0.508181
O11   O     O_R   0.682190 0.620260 0.500010 -0.518191
O12   O     O_R   0.682190 0.379740 0.500010 -0.465445
O13   O     O_R   0.499920 0.620230 0.582140 -0.538456
O14   O     O_R   0.499920 0.379770 0.582140 -0.474805
O15   O     O_2   0.696200 0.612180 0.849093 -0.436602

loop_
_geom_bond_atom_site_label_1
_geom_bond_atom_site_label_2
_ccdc_geom_bond_type
H24   N8    S    
Cu2   O10   S    
C29   H14   S    
C42   H31   S    
C40   H22   S    
C30   H15   S    
H29   N10   S    
C28   H3    S    
H28   N10   S    
C27   H5    S    
C7    C8    A    
C45   C46   A    
C44   C45   A    
C33   O14   A    
C12   C23   A    
C29   C30   S    
C18   C24   S    
C31   H9    S    
C36   C37   A    
C19   C21   S    
C38   C39   A    
C20   C25   S    
C10   C17   A    
Cu1   O1    S    
C30   H8    S    
C2    O4    S    
C16   C25   S    
C15   H1    S    
C12   C37   A    
C12   N7    S    
C36   N1    A    
Cu2   O14   S    
C2    C44   A    
C8    C9    A    
H38   N3    S    
H33   N11   S    
Cu1   O13   S    
C47   O3    S    
C4    O9    A    
C41   O6    D    
C13   C14   A    
C19   H23   S    
C5    N3    S    
C28   H6    S    
C27   H2    S    
C23   H4    S    
C21   H41   S    
C35   N1    A    
C4    O10   A    
C4    C6    S    
C19   H39   S    
H37   N3    S    
C47   N4    A    
H25   N8    S    
C20   N9    S    
C25   C26   S    
C31   H11   S    
C35   C39   A    
C43   C44   A    
C13   C33   S    
C37   C38   A    
C3    C9    A    
H36   N2    S    
C31   C32   S    
C1    O1    A    
C22   H42   S    
C23   C34   A    
C18   H34   S    
H35   N2    S    
C9    N4    S    
C29   N5    S    
C1    C24   S    
C39   C46   A    
C21   N10   S    
H20   N7    S    
Cu1   Cu2   S    
Cu1   O9    S    
C45   H16   S    
C22   C24   S    
C17   N1    S    
C16   O12   A    
H21   N7    S    
C26   C42   S    
Cu1   O11   S    
H32   N11   S    
C28   N6    S    
H27   N9    S    
C15   C17   A    
C21   C25   S    
C27   N5    S    
C33   O13   A    
Cu2   O12   S    
C36   O2    S    
C46   N11   S    
C34   C43   A    
C3    C5    A    
C16   O11   A    
C41   H30   S    
C18   H12   S    
C14   N8    S    
C6    C7    A    
C29   H7    S    
C10   H19   S    
Cu1   N6    S    
C20   H40   S    
C30   N6    S    
Cu2   O8    S    
C2    N4    A    
C19   C24   S    
C42   O7    D    
C32   H13   S    
C38   C43   A    
C1    O8    A    
C7    H17   S    
C11   C13   A    
C5    C6    A    
C32   N6    S    
C3    N2    S    
C18   C20   S    
C31   N5    S    
C11   C40   S    
C10   C11   A    
Cu2   N5    S    
C40   O5    D    
C8    H18   S    
C22   C26   S    
C27   C28   S    
H26   N9    S    
C22   H43   S    
C14   C15   A    
C35   O15   S    
C34   C47   A    
C32   H10   S    
C26   C41   S    
