data_mof_unit_20854.cif
_audit_creation_date              2013-03-05T16:07:50-0500
_audit_creation_method            fapswitch 2.2
_symmetry_space_group_name_H-M    P1
_symmetry_Int_Tables_number       1
_space_group_crystal_system       triclinic
_cell_length_a                    8.205272
_cell_length_b                    15.066239
_cell_length_c                    19.058409
_cell_angle_alpha                 102.351133
_cell_angle_beta                  91.730528
_cell_angle_gamma                 99.146065
_cell_volume                      2267.21862495

loop_
_atom_site_label
_atom_site_type_symbol
_atom_site_description
_atom_site_fract_x
_atom_site_fract_y
_atom_site_fract_z
_atom_type_partial_charge
P1    P     P_3+3 0.039440 0.410950 0.333260 0.507821
O1    O     O_2   0.871970 0.437290 0.322980 -0.333986
O2    O     O_3   0.121420 0.444460 0.412460 -0.425791
O3    O     O_3   0.661430 0.607560 0.372520 -0.407872
O4    O     O_2   0.779562 0.544870 0.250550 -0.327925
O5    O     O_3   0.004137 0.290500 0.308390 -0.517073
O6    O     O_3   0.728478 0.715319 0.276081 -0.438024
H1    H     H_    0.703913 0.783634 0.380164 0.099772
C1    C     C_3   0.685149 0.871625 0.306370 -0.892479
H2    H     H_    0.820400 0.896518 0.308546 0.265507
H3    H     H_    0.630225 0.868172 0.251743 0.306511
P2    P     P_3+3 0.676740 0.714970 0.563520 0.540030
P3    P     P_3+3 0.127690 0.774789 0.415440 0.510616
O7    O     O_2   0.852280 0.726960 0.542370 -0.303377
O8    O     O_3   0.083990 0.657360 0.410240 -0.349095
O9    O     O_2   0.009938 0.819461 0.468454 -0.317812
O10   O     O_3   0.721947 0.756232 0.655541 -0.577841
O11   O     O_3   0.058806 0.794588 0.333333 -0.521026
C2    C     C_3   0.182351 0.786071 0.284303 0.133064
H4    H     H_    0.199659 0.712877 0.267984 0.114319
H5    H     H_    0.300865 0.830550 0.307495 0.046222
C3    C     C_3   0.127723 0.819306 0.218531 -0.032656
H6    H     H_    0.016011 0.772176 0.190186 0.205266
H7    H     H_    0.094781 0.889098 0.236593 0.128497
C4    C     C_3   0.083799 0.757081 0.691996 0.230062
H8    H     H_    0.985465 0.718692 0.651630 0.190964
C5    C     C_3   0.013090 0.774350 0.766830 -0.808833
H9    H     H_    0.920017 0.819885 0.766837 0.235856
H10   H     H_    0.949672 0.708573 0.777786 0.200503
Ba1   Ba    Ba6+2 0.853510 0.540900 0.466480 1.649122
C6    C     C_3   0.946756 0.252063 0.364907 0.438198
H11   H     H_    0.826352 0.272476 0.378114 0.086266
H12   H     H_    0.036519 0.274179 0.412612 0.093659
C7    C     C_3   0.924496 0.147569 0.339632 -0.946018
H13   H     H_    0.834123 0.124000 0.292127 0.301432
H14   H     H_    0.878322 0.113053 0.382580 0.197147
H15   H     H_    0.044851 0.126671 0.324540 0.256579
C8    C     C_3   0.584748 0.735663 0.692961 0.334905
H16   H     H_    0.471707 0.713566 0.657174 0.150093
C9    C     C_3   0.563183 0.821464 0.748864 -0.936398
H17   H     H_    0.666995 0.843025 0.790650 0.288018
H18   H     H_    0.447658 0.807855 0.775722 0.249653
H19   H     H_    0.554374 0.879205 0.721983 0.244620
P4    P     P_3+3 0.150270 0.589130 0.666750 0.481583
O12   O     O_2   0.317740 0.562750 0.677070 -0.364173
O13   O     O_3   0.068290 0.555610 0.587550 -0.363039
O14   O     O_3   0.528280 0.392520 0.627490 -0.265197
O15   O     O_3   0.214783 0.708431 0.690237 -0.628803
P5    P     P_3+3 0.071336 0.223615 0.580796 0.534222
O16   O     O_3   0.609300 0.386850 0.459730 -0.391434
O17   O     O_3   0.105720 0.342720 0.589770 -0.406345
O18   O     O_2   0.219309 0.184715 0.545143 -0.299841
O19   O     O_3   0.081415 0.201230 0.667109 -0.472627
Ba2   Ba    Ba6+2 0.336320 0.459170 0.533530 1.631113
P6    P     P_3+3 0.648211 0.602504 0.281884 0.528469
C10   C     C_3   0.651420 0.777043 0.324554 0.546377
H20   H     H_    0.515438 0.754042 0.321644 -0.056833
H21   H     H_    0.629219 0.921802 0.345442 0.192113
O20   O     O_3   0.580410 0.613230 0.540280 -0.369569
C11   C     C_3   0.437036 0.310358 0.309678 0.396714
H22   H     H_    0.340519 0.340101 0.341820 0.083339
H23   H     H_    0.543870 0.365864 0.309951 0.130913
C12   C     C_3   0.364138 0.270843 0.232729 -0.780510
H24   H     H_    0.243839 0.225328 0.232972 0.276744
H25   H     H_    0.345402 0.327099 0.205803 0.192500
H26   H     H_    0.447970 0.229126 0.201191 0.297809
P7    P     P_3+3 0.516234 0.271419 0.430448 0.439862
O21   O     O_2   0.337420 0.273080 0.457680 -0.376940
O22   O     O_3   0.489742 0.239264 0.336503 -0.569998
C13   C     C_3   0.010621 0.267719 0.714011 0.384401
H27   H     H_    0.092402 0.336045 0.723326 0.133275
H28   H     H_    0.886260 0.272845 0.692079 0.044490
C14   C     C_3   0.991992 0.240478 0.786091 -0.869225
H29   H     H_    0.115312 0.240947 0.811600 0.286595
H30   H     H_    0.930187 0.290345 0.822763 0.226435
H31   H     H_    0.916576 0.170616 0.778411 0.268237
P8    P     P_3+3 0.546967 0.399487 0.721008 0.541132
C15   C     C_3   0.519776 0.228416 0.739002 0.622537
H32   H     H_    0.651395 0.253631 0.758191 -0.067594
O23   O     O_2   0.446165 0.474600 0.753285 -0.388493
O24   O     O_3   0.430156 0.301916 0.744216 -0.552226
H33   H     H_    0.498797 0.098324 0.773916 0.114395
C16   C     C_3   0.445713 0.163020 0.786254 -0.120561
H34   H     H_    0.309843 0.143784 0.773772 0.170082
C17   C     C_R   0.993087 0.461543 0.045628 0.035544
C18   C     C_R   0.890306 0.415735 0.089484 0.017642
C19   C     C_R   0.723539 0.381480 0.064927 -0.056685
C20   C     C_R   0.661660 0.390983 0.998447 -0.119563
C21   C     C_R   0.766489 0.428406 0.951778 0.134261
C22   C     C_R   0.932441 0.464906 0.975305 0.043875
C23   C     C_R   0.708249 0.427046 0.881417 -0.216386
C24   C     C_R   0.815020 0.458820 0.832069 -0.058133
C25   C     C_R   0.978842 0.502713 0.856751 0.039747
C26   C     C_R   0.036679 0.504979 0.928674 0.024329
C27   C     C_R   0.764431 0.445949 0.758451 0.155896
C28   C     C_R   0.876965 0.477864 0.711183 -0.368922
C29   C     C_R   0.030437 0.533591 0.735586 0.191046
C30   C     C_R   0.084119 0.544727 0.810109 -0.049893
C31   C     C_R   0.157201 0.500748 0.070619 0.021373
C32   C     C_R   0.216339 0.501148 0.142440 -0.003670
C33   C     C_R   0.110702 0.455474 0.188014 -0.145181
C34   C     C_R   0.955322 0.403674 0.156118 0.325663
H35   H     H_    0.637135 0.349487 0.097398 0.171820
H36   H     H_    0.531799 0.366448 0.982728 0.176353
H37   H     H_    0.838359 0.465612 0.654661 0.192639
H38   H     H_    0.580502 0.397541 0.864985 0.174943
C35   C     C_R   0.239702 0.594828 0.839744 -0.131507
C36   C     C_R   0.300028 0.593854 0.909936 -0.038646
C37   C     C_R   0.199414 0.545900 0.953789 0.028783
C38   C     C_R   0.260147 0.542041 0.023984 0.020067
C39   C     C_R   0.461859 0.636901 0.936984 0.327676
C40   C     C_R   0.524898 0.623073 0.001305 -0.157067
C41   C     C_R   0.424161 0.580817 0.047363 -0.050386
C42   C     C_R   0.381497 0.545978 0.167459 -0.164070
C43   C     C_R   0.484473 0.584825 0.118127 0.338931
C44   C     C_R   0.434551 0.550882 0.240580 0.164534
C45   C     C_R   0.324194 0.513118 0.286349 -0.495649
C46   C     C_R   0.164971 0.463656 0.262880 0.263482
H39   H     H_    0.317498 0.631705 0.807292 0.147926
H40   H     H_    0.652661 0.653165 0.017111 0.226940
H41   H     H_    0.366190 0.519049 0.341760 0.160594
C47   C     C_R   0.342950 0.821177 0.451859 0.185907
H42   H     H_    0.380495 0.689679 0.470159 0.172127
H43   H     H_    0.206024 0.950060 0.402415 0.161687
C48   C     C_R   0.580578 0.796092 0.520288 0.225965
C49   C     C_R   0.778731 0.228870 0.505044 -0.408036
C50   C     C_R   0.873580 0.171945 0.530147 0.237824
C51   C     C_R   0.812066 0.078545 0.521698 -0.338834
C52   C     C_R   0.646162 0.042043 0.495673 0.097106
C53   C     C_R   0.555150 0.099393 0.465106 0.079565
C54   C     C_R   0.570012 0.949652 0.496513 -0.019982
C55   C     C_R   0.412849 0.914324 0.458839 0.033908
C56   C     C_R   0.328041 0.972729 0.428986 -0.183641
C57   C     C_R   0.397849 0.062784 0.431635 -0.104347
C58   C     C_R   0.640381 0.892348 0.535700 -0.175121
C59   C     C_R   0.432709 0.761971 0.477973 -0.443082
C60   C     C_R   0.623106 0.192869 0.469784 0.255308
H44   H     H_    0.826999 0.301616 0.512228 0.143877
H45   H     H_    0.896716 0.036242 0.535487 0.186203
H46   H     H_    0.325592 0.102788 0.406463 0.157190
C61   C     C_2   0.140959 0.818861 0.827035 0.733157
H47   H     H_    0.222401 0.778209 0.845919 0.066303
O25   O     O_2   0.150895 0.900126 0.856301 -0.512695
C62   C     C_2   0.616549 0.659080 0.725815 0.612931
H48   H     H_    0.587269 0.656223 0.779449 0.042350
O26   O     O_2   0.668203 0.594706 0.688724 -0.580827
N1    N     N_R   0.259674 0.823499 0.169332 0.252808
O27   O     O_R   0.295699 0.747922 0.130768 -0.372881
O28   O     O_R   0.333253 0.902657 0.159695 -0.318688
N2    N     N_R   0.510326 0.177935 0.664188 0.221869
O29   O     O_R   0.584892 0.218151 0.617855 -0.438159
O30   O     O_R   0.422241 0.096056 0.642053 -0.406710
N3    N     N_R   0.481669 0.204595 0.862486 0.247255
O31   O     O_R   0.360947 0.219414 0.903752 -0.375231
O32   O     O_R   0.629450 0.209783 0.891440 -0.382021
N4    N     N_R   0.884618 0.323326 0.180286 0.250046
O33   O     O_R   0.948557 0.248786 0.161330 -0.346280
O34   O     O_R   0.738824 0.317289 0.205334 -0.415814
N5    N     N_R   0.559450 0.703298 0.905146 0.213322
O35   O     O_R   0.501339 0.776965 0.899537 -0.400504
O36   O     O_R   0.718395 0.704820 0.903044 -0.422571
N6    N     N_R   0.644584 0.638931 0.139832 0.243221
O37   O     O_R   0.774182 0.600434 0.125153 -0.419435
O38   O     O_R   0.660256 0.727779 0.146382 -0.345874
C63   C     C_2   0.743867 0.935497 0.602950 0.574405
H49   H     H_    0.707110 0.992888 0.640330 0.032336
O39   O     O_2   0.875476 0.912250 0.614866 -0.549999
C64   C     C_2   0.148308 0.846755 0.671799 0.675935
H50   H     H_    0.142296 0.912338 0.707978 0.044543
O40   O     O_2   0.209551 0.846685 0.614211 -0.563147

loop_
_geom_bond_atom_site_label_1
_geom_bond_atom_site_label_2
_geom_bond_distance
_ccdc_geom_bond_type
P4    O15   1.746515 S    
C28   H37   1.081907 S    
C12   H25   1.108174 S    
C49   C60   1.395857 A    
C25   C26   1.428566 A    
C5    H10   1.107989 S    
C7    H15   1.111026 S    
C14   H29   1.107625 S    
C2    H4    1.112976 S    
O6    P6    1.750391 S    
C19   C20   1.394789 A    
C51   C52   1.416361 A    
H1    C10   1.110166 S    
C42   C43   1.437570 A    
C17   C18   1.410841 A    
C10   H20   1.110503 S    
C52   C54   1.435946 A    
Ba1   Ba2   4.556485 S    
C63   H49   1.085589 S    
H43   C56   1.078024 S    
C11   C12   1.524225 S    
C33   C46   1.455417 A    
C3    H7    1.112814 S    
N4    O33   1.300841 A    
C2    H5    1.109153 S    
C51   H45   1.076614 S    
C7    H13   1.110809 S    
C54   C58   1.429966 A    
C61   O25   1.220729 D    
C57   H46   1.079374 S    
C8    H16   1.096725 S    
O2    Ba2   2.809584 S    
Ba2   O21   2.867989 S    
P6    C44   1.875985 S    
C29   C30   1.440904 A    
C36   C37   1.418599 A    
C11   H23   1.110233 S    
P1    O1    1.508140 D    
C35   H39   1.075539 S    
C45   H41   1.081578 S    
P1    Ba1   3.415249 S    
C39   N5    1.429856 S    
P2    O20   1.572822 S    
C61   H47   1.077546 S    
C15   C16   1.540569 S    
C9    H19   1.110347 S    
C49   H44   1.082307 S    
N1    O27   1.298535 A    
C55   C56   1.402551 A    
P5    O17   1.741779 S    
P2    O10   1.738033 S    
C35   C36   1.416167 A    
C6    H12   1.109980 S    
C13   H27   1.112002 S    
C21   C23   1.404785 A    
C1    H2    1.110058 S    
O10   C8    1.379886 S    
P2    Ba1   3.420296 S    
C48   C58   1.418815 A    
C64   O40   1.220703 D    
O5    C6    1.388542 S    
Ba1   O16   2.792282 S    
C12   H26   1.109170 S    
C63   O39   1.216493 D    
C28   C29   1.403024 A    
C14   H30   1.108157 S    
C23   H38   1.080227 S    
C53   C57   1.396589 A    
O6    C10   1.404523 S    
O7    Ba1   2.868005 S    
O19   C13   1.404704 S    
C47   C55   1.405622 A    
C40   C41   1.405235 A    
C20   H36   1.081625 S    
P4    O13   1.578122 S    
C22   C26   1.413208 A    
N6    O38   1.302603 A    
Ba2   O20   2.791813 S    
C4    C64   1.503696 S    
P5    C50   1.831161 S    
C13   H28   1.111328 S    
P7    O21   1.573154 D    
C33   C34   1.427576 A    
C2    C3    1.526060 S    
C32   C42   1.432564 A    
C62   O26   1.214689 D    
C21   C22   1.406138 A    
C23   C24   1.410766 A    
C40   H40   1.080132 S    
C18   C19   1.411135 A    
O11   C2    1.401616 S    
P2    C48   1.869037 S    
C4    H8    1.095980 S    
C31   C38   1.416111 A    
P8    C27   1.869619 S    
C24   C27   1.414679 A    
C30   C35   1.409322 A    
P1    O5    1.748830 S    
C11   H22   1.108108 S    
P1    O2    1.578112 S    
O2    Ba1   2.918162 S    
C17   C31   1.406103 A    
P4    C29   1.916773 S    
N5    O35   1.298679 A    
C4    O15   1.391248 S    
P8    O24   1.769491 S    
P5    O18   1.544365 D    
Ba1   O20   2.915171 S    
O13   Ba2   2.918992 S    
C13   C14   1.520813 S    
N5    O36   1.302716 A    
C58   C63   1.479406 S    
C6    C7    1.524051 S    
C1    C10   1.522818 S    
O16   Ba2   2.914282 S    
C20   C21   1.398367 A    
C1    H3    1.109396 S    
C38   C41   1.397652 A    
C47   C59   1.400865 A    
O14   Ba2   2.792431 S    
C19   H35   1.078604 S    
P3    O11   1.748411 S    
C48   C59   1.397150 A    
C9    H17   1.107122 S    
P2    O7    1.501075 D    
O12   Ba2   2.866497 S    
P3    O8    1.729077 S    
O3    P6    1.712070 S    
C56   C57   1.376009 A    
C14   H31   1.110760 S    
N2    O30   1.302939 A    
C16   H34   1.111423 S    
N3    O32   1.300765 A    
O14   P8    1.763378 S    
C50   C51   1.390405 A    
C18   C34   1.420918 A    
C34   N4    1.430221 S    
C5    H9    1.104720 S    
P4    O12   1.508523 D    
C15   N2    1.458823 S    
O8    Ba1   2.770573 S    
N6    O37   1.300039 A    
O16   P7    1.748133 S    
P8    O23   1.540679 D    
C64   H50   1.086403 S    
C39   C40   1.385239 A    
N1    O28   1.300794 A    
C15   H32   1.109363 S    
C8    C62   1.478633 S    
O4    P6    1.544903 D    
C6    H11   1.101125 S    
C62   H48   1.065267 S    
C42   C44   1.430420 A    
C17   C22   1.429409 A    
C36   C39   1.411187 A    
C16   N3    1.454719 S    
C4    C5    1.541960 S    
C26   C37   1.402019 A    
N2    O29   1.290287 A    
C31   C32   1.436844 A    
Ba1   O13   2.808999 S    
H42   C59   1.081865 S    
O1    Ba1   2.865851 S    
O17   Ba2   2.771069 S    
C43   N6    1.429697 S    
N4    O34   1.298354 A    
C52   C53   1.427522 A    
C45   C46   1.405293 A    
C8    C9    1.527229 S    
P3    C47   1.848222 S    
C15   O24   1.411771 S    
C11   O22   1.401370 S    
C49   C50   1.391169 A    
P5    O19   1.750576 S    
C9    H18   1.102281 S    
C24   C25   1.418312 A    
C5    C61   1.497170 S    
C44   C45   1.414496 A    
C7    H14   1.105501 S    
P1    C46   1.941588 S    
P7    C60   1.844260 S    
C12   H24   1.109525 S    
P4    Ba2   3.415873 S    
C3    N1    1.456135 S    
C1    H21   1.107574 S    
H33   C16   1.112748 S    
P3    O9    1.543407 D    
C27   C28   1.410587 A    
C3    H6    1.111443 S    
C32   C33   1.445957 A    
P7    O22   1.749173 S    
N3    O31   1.300699 A    
C37   C38   1.429559 A    
C53   C60   1.412771 A    
C25   C30   1.431901 A    
O3    Ba1   2.793112 S    
C54   C55   1.422747 A    
C41   C43   1.408103 A    
