data_mof_unit_20656.cif
_audit_creation_date              2012-12-11T17:07:26-0500
_audit_creation_method            fapswitch 2.2
_symmetry_space_group_name_H-M    P1
_symmetry_Int_Tables_number       1
_space_group_crystal_system       triclinic
_cell_length_a                    6.939111
_cell_length_b                    14.66898
_cell_length_c                    16.064659
_cell_angle_alpha                 90.283242
_cell_angle_beta                  90.907511
_cell_angle_gamma                 89.872271
_cell_volume                      1634.98763108

loop_
_atom_site_label
_atom_site_type_symbol
_atom_type_description
_atom_site_fract_x
_atom_site_fract_y
_atom_site_fract_z
_atom_type_partial_charge
O1    O     O_R   0.505720 0.583900 0.413310 -0.545362
O2    O     O_R   0.175940 0.594920 0.586080 -0.547003
O3    O     O_R   0.005640 0.416100 0.586690 -0.536634
C1    C     C_R   0.345454 0.617435 0.614601 0.693252
O4    O     O_R   0.176000 0.594930 0.413930 -0.541636
O5    O     O_R   0.005700 0.416110 0.413310 -0.530264
C2    C     C_R   0.343906 0.616672 0.384879 0.700867
O6    O     O_R   0.505660 0.583890 0.586690 -0.540926
O7    O     O_3   0.339200 0.441330 0.500000 -0.364176
V1    V     V_3+5 0.064350 0.510880 0.500000 1.409603
O8    O     O_R   0.675980 0.405080 0.413920 -0.540843
C3    C     C_R   0.843844 0.386182 0.382526 0.727788
O9    O     O_R   0.675920 0.405070 0.586070 -0.531354
C4    C     C_R   0.847930 0.383005 0.614974 0.776615
V2    V     V_3+5 0.564340 0.489120 0.500000 1.411701
O10   O     O_3   0.839360 0.558670 0.500000 -0.379295
H1    H     H_    0.767065 0.070686 0.494220 0.128964
C5    C     C_R   0.051790 0.413338 0.772841 -0.171033
C6    C     C_R   0.111002 0.440088 0.852147 -0.169693
C7    C     C_R   0.059044 0.389029 0.920264 -0.141617
C8    C     C_R   0.961091 0.306186 0.909363 0.212868
C9    C     C_R   0.925150 0.271184 0.827103 0.056034
C10   C     C_R   0.947835 0.331733 0.759179 0.011593
C11   C     C_R   0.869824 0.178943 0.811314 -0.178086
C12   C     C_R   0.821423 0.150530 0.727017 -0.006508
C13   C     C_R   0.830943 0.216133 0.660697 0.057556
C14   C     C_R   0.871840 0.309335 0.679251 -0.159253
C15   C     C_R   0.765529 0.058892 0.704286 0.123397
C16   C     C_R   0.753339 0.032092 0.620820 -0.133633
C17   C     C_R   0.778330 0.093651 0.558353 -0.207023
C18   C     C_R   0.812094 0.184795 0.576554 0.194983
H2    H     H_    0.092389 0.457312 0.722663 0.134663
H3    H     H_    0.189885 0.503101 0.861040 0.126887
H4    H     H_    0.093509 0.414772 0.982016 0.112011
H5    H     H_    0.718170 0.962607 0.603072 0.122317
C19   C     C_R   0.727198 0.185010 0.239722 0.107219
C20   C     C_R   0.883459 0.182494 0.185617 -0.118041
C21   C     C_R   0.034429 0.244619 0.201290 -0.189786
H6    H     H_    0.157324 0.245855 0.160947 0.140230
C22   C     C_R   0.021350 0.310532 0.265211 -0.164201
H7    H     H_    0.136111 0.359722 0.272964 0.129766
C23   C     C_R   0.856594 0.316593 0.315223 -0.116955
C24   C     C_R   0.713772 0.250540 0.302477 0.089082
C25   C     C_3   0.503030 0.262649 0.287816 -0.418045
C26   C     C_3   0.517284 0.190804 0.219735 -0.394108
H8    H     H_    0.467910 0.331721 0.263734 0.164801
H9    H     H_    0.417290 0.240184 0.341837 0.177674
H10   H     H_    0.489258 0.217934 0.156168 0.173424
H11   H     H_    0.440359 0.126619 0.234506 0.163143
C27   C     C_R   0.499169 0.679763 0.746049 0.104280
C28   C     C_R   0.353617 0.683654 0.684824 -0.140477
C29   C     C_R   0.204609 0.747692 0.697114 -0.179851
H12   H     H_    0.085707 0.752031 0.652942 0.129049
C30   C     C_R   0.213676 0.810733 0.763740 -0.173202
H13   H     H_    0.102343 0.862200 0.768208 0.124718
C31   C     C_R   0.371534 0.811179 0.820335 -0.104218
C32   C     C_R   0.506700 0.740895 0.812643 0.053303
C33   C     C_3   0.721303 0.743298 0.814294 -0.397785
C34   C     C_3   0.713118 0.680773 0.738478 -0.034314
H14   H     H_    0.781753 0.711475 0.871779 0.176317
H15   H     H_    0.782625 0.810633 0.800497 0.156051
H16   H     H_    0.760226 0.713872 0.680116 0.139716
C35   C     C_R   0.481158 0.674672 0.250316 0.047841
C36   C     C_R   0.350091 0.683299 0.315378 -0.169784
C37   C     C_R   0.218164 0.756330 0.310373 -0.139795
H17   H     H_    0.111006 0.764446 0.358202 0.133900
C38   C     C_R   0.231570 0.823701 0.247781 0.190475
C39   C     C_R   0.375826 0.817134 0.185353 -0.143907
C40   C     C_R   0.493237 0.739284 0.187301 0.014958
C41   C     C_3   0.706931 0.729530 0.181964 -0.375097
C42   C     C_3   0.694263 0.658654 0.250918 0.054125
H18   H     H_    0.783027 0.792343 0.202245 0.160816
H19   H     H_    0.751854 0.701824 0.120692 0.174910
H20   H     H_    0.768313 0.678820 0.310114 0.143377
O11   O     O_R   0.229140 0.916090 0.913340 -0.544725
O12   O     O_R   0.558860 0.905090 0.086080 -0.541370
O13   O     O_R   0.729100 0.083920 0.086690 -0.535963
C43   C     C_R   0.390500 0.884880 0.116531 0.698399
O14   O     O_R   0.558860 0.905090 0.913930 -0.541681
O15   O     O_R   0.729100 0.083920 0.913310 -0.537357
C44   C     C_R   0.388365 0.881770 0.886316 0.700463
O16   O     O_R   0.229140 0.916080 0.086720 -0.543313
O17   O     O_3   0.395570 0.058660 0.000020 -0.367259
V3    V     V_3+5 0.670450 0.989140 0.000000 1.390585
O18   O     O_R   0.058810 0.094980 0.913910 -0.527967
C45   C     C_R   0.888231 0.111929 0.881285 0.793640
O19   O     O_R   0.058810 0.094980 0.086060 -0.537983
C46   C     C_R   0.890868 0.116159 0.115612 0.741525
V4    V     V_3+5 0.170450 0.010950 0.999970 1.409943
O20   O     O_3   0.895460 0.941370 0.999990 -0.378079
C47   C     C_3   0.804958 0.588520 0.754024 -0.729607
H21   H     H_    0.779810 0.544150 0.699062 0.208338
H22   H     H_    0.962124 0.598668 0.763342 0.211038
H23   H     H_    0.744962 0.555147 0.809932 0.213109
N1    N     N_3   0.108358 0.901936 0.254334 -0.687247
H24   H     H_    0.193703 0.960604 0.255298 0.216961
H25   H     H_    0.015661 0.904447 0.202638 0.237550
N2    N     N_3   0.745663 0.566807 0.222703 -0.656172
H26   H     H_    0.663675 0.549051 0.169820 0.232546
H27   H     H_    0.707964 0.521304 0.269490 0.221027
N3    N     N_3   0.885679 0.262022 0.981390 -0.672049
H28   H     H_    0.925162 0.297251 0.035701 0.211478
H29   H     H_    0.735389 0.265964 0.977032 0.217325
C48   C     C_3   0.694725 0.989113 0.763603 -0.735344
H30   H     H_    0.813580 0.965585 0.804970 0.189604
H31   H     H_    0.570279 0.018477 0.796746 0.221261
H32   H     H_    0.636781 0.927673 0.731364 0.178527
N4    N     N_3   0.836813 0.243526 0.507382 -0.666200
H33   H     H_    0.710141 0.239718 0.471512 0.224091
H34   H     H_    0.950676 0.218526 0.471889 0.218531

loop_
_geom_bond_atom_site_label_1
_geom_bond_atom_site_label_2
_ccdc_geom_bond_type
O19   C46   A    
N3    H28   S    
C18   N4    S    
C20   C46   S    
N1    H24   S    
O15   V3    S    
O12   V3    S    
C48   H31   S    
C31   C44   S    
O18   C45   A    
C31   C32   A    
C12   C15   A    
C13   C14   A    
C20   C21   A    
O16   V4    S    
C27   C34   S    
C19   C20   A    
O12   C43   A    
O5    C3    A    
C17   C18   A    
C33   H14   S    
V2    O10   S    
N4    H33   S    
C5    C6    A    
C43   O16   A    
O15   C45   A    
O8    V2    S    
C35   C40   A    
O13   C46   A    
C29   C30   A    
C39   C40   A    
C37   C38   A    
C3    C23   S    
C41   C42   S    
O1    V2    S    
C10   C14   A    
C4    C14   S    
O7    V1    S    
C25   H9    S    
C1    O6    A    
C7    H4    S    
C33   H15   S    
C22   C23   A    
C13   C18   A    
N3    H29   S    
O9    C4    A    
C38   N1    S    
H1    C17   S    
O14   V3    S    
V3    O20   S    
C48   H30   S    
C25   H8    S    
C39   C43   S    
O17   V4    S    
C42   N2    S    
C30   C31   A    
C1    C28   S    
C38   C39   A    
C11   C12   A    
C6    H3    S    
C47   H21   S    
O4    C2    A    
O18   V4    S    
O11   C44   A    
O13   V3    S    
C12   C13   A    
C5    C10   A    
O2    C1    A    
C24   C25   S    
C16   C17   A    
C47   H22   S    
C15   C48   S    
O17   V3    S    
C26   H11   S    
C41   H19   S    
C27   C28   A    
C19   C26   S    
C34   C47   S    
O3    C4    A    
C22   H7    S    
C35   C42   S    
C37   H17   S    
O6    V2    S    
N2    H27   S    
O19   V4    S    
C9    C11   A    
C5    H2    S    
C23   C24   A    
O2    V1    S    
C29   H12   S    
O14   C44   A    
C26   H10   S    
C30   H13   S    
C15   C16   A    
C34   H16   S    
O1    C2    A    
C27   C32   A    
C25   C26   S    
O5    V1    S    
C42   H20   S    
O8    C3    A    
N1    H25   S    
C16   H5    S    
C36   C37   A    
C6    C7    A    
O9    V2    S    
C33   C34   S    
C8    N3    S    
C28   C29   A    
O3    V1    S    
V1    O10   S    
C47   H23   S    
C21   C22   A    
C32   C33   S    
C21   H6    S    
N4    H34   S    
O7    V2    S    
C40   C41   S    
C2    C36   S    
O11   V4    S    
C35   C36   A    
O4    V1    S    
C7    C8    A    
N2    H26   S    
C9    C10   A    
C19   C24   A    
C41   H18   S    
V4    O20   S    
C8    C9    A    
C11   C45   S    
C48   H32   S    
