data_mof_unit_52031.cif
_audit_creation_date              2012-12-11T15:18:35-0500
_audit_creation_method            fapswitch 2.2
_symmetry_space_group_name_H-M    P1
_symmetry_Int_Tables_number       1
_space_group_crystal_system       triclinic
_cell_length_a                    6.930543
_cell_length_b                    19.811498
_cell_length_c                    23.829411
_cell_angle_alpha                 93.309432
_cell_angle_beta                  91.386059
_cell_angle_gamma                 88.487329
_cell_volume                      3264.44696442

loop_
_atom_site_label
_atom_site_type_symbol
_atom_type_description
_atom_site_fract_x
_atom_site_fract_y
_atom_site_fract_z
_atom_type_partial_charge
O1    O     O_R   0.620100 0.812200 0.810870 -0.541837
O2    O     O_R   0.379900 0.187800 0.189130 -0.543731
O3    O     O_R   0.296960 0.671650 0.794750 -0.539006
O4    O     O_R   0.703040 0.328350 0.205250 -0.539628
O5    O     O_R   0.120160 0.687800 0.689130 -0.535706
O6    O     O_R   0.879840 0.312200 0.310870 -0.534992
C1    C     C_R   0.468226 0.646071 0.804315 0.702183
C2    C     C_R   0.531227 0.352683 0.194801 0.702754
O7    O     O_R   0.290810 0.810670 0.817290 -0.537446
O8    O     O_R   0.709190 0.189330 0.182710 -0.537730
O9    O     O_R   0.113980 0.827820 0.711840 -0.530445
O10   O     O_R   0.886020 0.172180 0.288160 -0.534991
C3    C     C_R   0.459496 0.830430 0.835153 0.708532
C4    C     C_R   0.540380 0.170402 0.164468 0.699502
O11   O     O_R   0.626290 0.672180 0.788160 -0.542672
O12   O     O_R   0.373710 0.327820 0.211840 -0.539903
O13   O     O_3   0.451520 0.755460 0.715370 -0.358859
O14   O     O_3   0.548480 0.244540 0.284630 -0.361078
V1    V     V_3+5 0.179200 0.748980 0.756420 1.392550
V2    V     V_3+5 0.820800 0.251020 0.243580 1.399277
O15   O     O_R   0.783880 0.828350 0.705250 -0.539037
O16   O     O_R   0.216120 0.171650 0.294750 -0.535614
C5    C     C_R   0.949875 0.852441 0.693981 0.693588
C6    C     C_R   0.050695 0.147389 0.305896 0.695768
O17   O     O_R   0.790030 0.689320 0.682700 -0.536668
O18   O     O_R   0.209970 0.310680 0.317300 -0.537659
C7    C     C_R   0.959195 0.667354 0.666185 0.686916
C8    C     C_R   0.041525 0.332715 0.333567 0.698647
V3    V     V_3+5 0.678400 0.751010 0.743570 1.398032
V4    V     V_3+5 0.321600 0.248990 0.256430 1.405687
O19   O     O_3   0.955950 0.744540 0.784620 -0.369003
O20   O     O_3   0.044050 0.255460 0.215380 -0.368930
C9    C     C_R   0.077608 0.450275 0.376832 -0.235213
C10   C     C_R   0.947066 0.548345 0.623554 -0.223959
C11   C     C_R   0.034140 0.382201 0.382558 -0.047618
C12   C     C_R   0.970758 0.617667 0.617012 -0.048834
C13   C     C_R   0.986388 0.361168 0.435293 -0.195747
C14   C     C_R   0.015701 0.638990 0.564002 -0.194186
C15   C     C_R   0.981009 0.407382 0.482292 0.070116
C16   C     C_R   0.032378 0.592140 0.517492 0.069733
C17   C     C_R   0.016127 0.476406 0.476338 0.024803
C18   C     C_R   0.002627 0.522780 0.523738 0.023105
C19   C     C_R   0.065013 0.498746 0.423042 0.052406
C20   C     C_R   0.960847 0.499907 0.577424 0.054053
C21   C     C_R   0.941982 0.384773 0.535192 -0.182258
C22   C     C_R   0.080247 0.614173 0.464947 -0.185394
C23   C     C_R   0.935719 0.429422 0.583465 0.128909
C24   C     C_R   0.099922 0.568592 0.417463 0.130786
H1    H     H_    0.956225 0.308359 0.439773 0.096816
H2    H     H_    0.038381 0.692276 0.559101 0.091340
H3    H     H_    0.916977 0.331498 0.538070 0.133245
H4    H     H_    0.103680 0.667544 0.461864 0.135351
C25   C     C_R   0.950510 0.915365 0.663181 -0.058376
C26   C     C_R   0.059509 0.085724 0.338591 -0.060210
C27   C     C_R   0.892955 0.036269 0.663054 -0.150300
C28   C     C_R   0.211461 0.975738 0.348951 -0.152818
C29   C     C_R   0.894616 0.976400 0.690998 -0.163955
C30   C     C_R   0.160989 0.029226 0.315864 -0.159312
C31   C     C_R   0.003545 0.915122 0.606366 -0.211267
C32   C     C_R   0.005587 0.087035 0.395487 -0.209161
C33   C     C_R   0.019704 0.976430 0.578484 0.080647
C34   C     C_R   0.076116 0.036714 0.432063 0.081868
C35   C     C_R   0.953647 0.036702 0.607199 0.103236
C36   C     C_R   0.173243 0.979406 0.406661 0.109348
C37   C     C_R   0.091208 0.979756 0.522538 0.003557
C38   C     C_R   0.052866 0.040123 0.492310 0.003389
C39   C     C_R   0.011976 0.101610 0.525299 0.143005
C40   C     C_R   0.215768 0.928572 0.497095 0.134097
C41   C     C_R   0.955610 0.097816 0.581180 -0.249404
C42   C     C_R   0.244644 0.927776 0.439182 -0.244307
H5    H     H_    0.909342 0.127203 0.409759 0.112597
H6    H     H_    0.017994 0.866780 0.583808 0.097340
H7    H     H_    0.846030 0.082718 0.685517 0.113088
H8    H     H_    0.289665 0.932582 0.329811 0.111870
C43   C     C_R   0.488746 0.581420 0.833480 -0.092582
C44   C     C_R   0.513809 0.413785 0.161897 -0.107926
C45   C     C_R   0.648783 0.471122 0.839120 -0.212973
C46   C     C_R   0.490834 0.536216 0.160148 -0.200482
C47   C     C_R   0.596258 0.526707 0.807996 0.122985
C48   C     C_R   0.511538 0.478220 0.190660 0.116485
C49   C     C_R   0.415530 0.574714 0.888143 0.017699
C50   C     C_R   0.495131 0.408448 0.102056 0.035374
C51   C     C_R   0.502106 0.524963 0.922746 0.047871
C52   C     C_R   0.510591 0.468530 0.071613 0.068151
C53   C     C_R   0.609424 0.470923 0.896217 0.087857
C54   C     C_R   0.488834 0.532003 0.101499 0.082450
C55   C     C_R   0.491228 0.527282 0.982688 0.058769
C56   C     C_R   0.541507 0.468667 0.012532 0.072545
C57   C     C_R   0.647793 0.416390 0.984254 -0.182682
C58   C     C_R   0.461774 0.588820 0.014153 -0.214359
C59   C     C_R   0.682071 0.417697 0.927173 -0.188773
C60   C     C_R   0.466459 0.591316 0.072584 -0.176027
H9    H     H_    0.769598 0.377341 0.907332 0.121231
H10   H     H_    0.450359 0.640054 0.095321 0.119985
C61   C     C_R   0.393341 0.073193 0.112319 -0.267441
C62   C     C_R   0.606466 0.928744 0.886686 -0.267604
C63   C     C_R   0.530946 0.123518 0.113567 -0.102279
C64   C     C_R   0.468710 0.878373 0.885625 -0.105600
C65   C     C_R   0.655603 0.127622 0.067436 0.100835
C66   C     C_R   0.343719 0.874979 0.931751 0.100870
C67   C     C_R   0.646689 0.076772 0.022458 0.047984
C68   C     C_R   0.351853 0.926174 0.976322 0.046628
C69   C     C_R   0.504961 0.026245 0.022031 -0.006237
C70   C     C_R   0.493470 0.976656 0.976637 -0.005888
C71   C     C_R   0.373645 0.025617 0.066685 0.041989
C72   C     C_R   0.625352 0.976895 0.932111 0.042797
C73   C     C_R   0.777252 0.075161 0.977987 -0.183411
C74   C     C_R   0.221140 0.927771 0.020717 -0.184579
C75   C     C_R   0.773150 0.025269 0.933676 0.129734
C76   C     C_R   0.225859 0.977275 0.065173 0.129291
H11   H     H_    0.117064 0.464767 0.335657 0.100265
H12   H     H_    0.920847 0.532837 0.665107 0.094346
C77   C     C_3   0.418680 0.342862 0.073235 -0.357961
C78   C     C_3   0.219122 0.354270 0.046013 -0.725429
H13   H     H_    0.167011 0.305883 0.026119 0.203511
H14   H     H_    0.114756 0.373158 0.078304 0.225762
H15   H     H_    0.223942 0.391064 0.012756 0.232572
H16   H     H_    0.516973 0.319190 0.041832 0.163803
H17   H     H_    0.402185 0.302996 0.103353 0.160172
C79   C     C_3   0.220322 0.607388 0.902724 -0.367771
C80   C     C_3   0.057870 0.574527 0.867089 -0.673513
H18   H     H_    0.080223 0.578375 0.821472 0.224769
H19   H     H_    0.049657 0.520226 0.875890 0.218590
H20   H     H_    0.917935 0.600036 0.877909 0.204598
H21   H     H_    0.180873 0.601319 0.946776 0.188298
H22   H     H_    0.220559 0.662115 0.896676 0.173256
C81   C     C_3   0.520202 0.486999 0.254148 -0.363980
C82   C     C_3   0.728344 0.489643 0.276002 -0.750793
H23   H     H_    0.807262 0.441494 0.264808 0.232363
H24   H     H_    0.803200 0.531939 0.257865 0.219298
H25   H     H_    0.729599 0.498017 0.322472 0.222395
H26   H     H_    0.444929 0.534996 0.267929 0.171201
H27   H     H_    0.444114 0.446024 0.273740 0.172705
C83   C     C_3   0.649004 0.524514 0.746780 -0.375994
C84   C     C_3   0.470986 0.516212 0.708047 -0.739087
H28   H     H_    0.399848 0.467969 0.715253 0.222820
H29   H     H_    0.365571 0.558753 0.715310 0.222437
H30   H     H_    0.514808 0.515392 0.663504 0.217893
H31   H     H_    0.726334 0.570446 0.737353 0.189349
H32   H     H_    0.750893 0.481554 0.737409 0.160882
H33   H     H_    0.728799 0.428807 0.819252 0.118707
H34   H     H_    0.480288 0.585423 0.182480 0.119287
H35   H     H_    0.723591 0.377879 0.006979 0.119916
H36   H     H_    0.449100 0.636333 0.993938 0.120347
H37   H     H_    0.301858 0.071500 0.148298 0.124580
H38   H     H_    0.698829 0.929898 0.850850 0.124419
C85   C     C_3   0.785370 0.188495 0.064435 -0.377306
C86   C     C_3   0.992839 0.173045 0.084171 -0.676057
H39   H     H_    0.996105 0.152575 0.126485 0.234423
H40   H     H_    0.065918 0.135900 0.054794 0.205464
H41   H     H_    0.076275 0.220135 0.086639 0.209853
H42   H     H_    0.783931 0.206742 0.021250 0.155758
H43   H     H_    0.728242 0.232841 0.089886 0.168332
C87   C     C_3   0.218698 0.813364 0.936098 -0.374441
C88   C     C_3   0.009471 0.825959 0.916444 -0.675949
H44   H     H_    0.929897 0.778022 0.916221 0.203242
H45   H     H_    0.934531 0.863917 0.944691 0.204489
H46   H     H_    0.002789 0.844351 0.873389 0.237266
H47   H     H_    0.280783 0.769652 0.911342 0.159398
H48   H     H_    0.222874 0.796006 0.979592 0.157418
H49   H     H_    0.885288 0.112832 0.977724 0.152145
H50   H     H_    0.112900 0.890200 0.020939 0.153535
C89   C     C_3   0.926305 0.022385 0.888241 -0.354119
C90   C     C_3   0.094635 0.070631 0.897421 -0.762149
H51   H     H_    0.043132 0.123963 0.894990 0.217968
H52   H     H_    0.168224 0.063394 0.938634 0.235161
H53   H     H_    0.201728 0.059786 0.863950 0.222572
H54   H     H_    0.991441 0.970532 0.885159 0.188768
H55   H     H_    0.855071 0.032468 0.847179 0.170455
C91   C     C_3   0.073892 0.979480 0.110951 -0.353977
C92   C     C_3   0.905305 0.931340 0.101718 -0.763734
H56   H     H_    0.830595 0.939135 0.060755 0.235311
H57   H     H_    0.956778 0.877939 0.103587 0.218083
H58   H     H_    0.799116 0.941776 0.135495 0.221747
H59   H     H_    0.146215 0.968882 0.151753 0.170736
H60   H     H_    0.008576 0.031220 0.114642 0.188314
C93   C     C_3   0.898056 0.402870 0.640891 -0.351086
C94   C     C_3   0.903825 0.325921 0.644592 -0.792228
H61   H     H_    0.782509 0.302675 0.619771 0.222905
H62   H     H_    0.044062 0.304073 0.629726 0.228764
H63   H     H_    0.888033 0.313523 0.689085 0.219813
H64   H     H_    0.008679 0.422927 0.671557 0.175623
H65   H     H_    0.753231 0.421683 0.653957 0.191056
C95   C     C_3   0.160360 0.592988 0.361121 -0.350542
C96   C     C_3   0.196034 0.668667 0.358838 -0.783350
H66   H     H_    0.062113 0.698697 0.368510 0.226910
H67   H     H_    0.314713 0.684221 0.388591 0.226798
H68   H     H_    0.239642 0.679452 0.315780 0.217090
H69   H     H_    0.296501 0.565683 0.349493 0.179735
H70   H     H_    0.047323 0.579781 0.328830 0.178254
H71   H     H_    0.917501 0.143872 0.605728 0.120026
H72   H     H_    0.332544 0.887524 0.419239 0.117651
H73   H     H_    0.205403 0.027247 0.272478 0.099307
H74   H     H_    0.850583 0.977604 0.734384 0.098421
C97   C     C_3   0.062345 0.172372 0.508679 -0.346008
C98   C     C_3   0.272956 0.176848 0.491716 -0.738140
H75   H     H_    0.370774 0.158792 0.525624 0.227350
H76   H     H_    0.302518 0.146570 0.452211 0.233034
H77   H     H_    0.305703 0.230330 0.484990 0.210722
H78   H     H_    0.961974 0.192786 0.477032 0.151803
H79   H     H_    0.044892 0.209593 0.545053 0.169187
C99   C     C_3   0.354200 0.883169 0.529997 -0.354456
C100  C     C_3   0.481173 0.923762 0.572348 -0.692703
H80   H     H_    0.560922 0.962326 0.550778 0.226209
H81   H     H_    0.394629 0.949280 0.606233 0.232293
H82   H     H_    0.587497 0.889057 0.592135 0.213339
H83   H     H_    0.282473 0.842399 0.550329 0.162568
H84   H     H_    0.455206 0.855019 0.500986 0.169359

loop_
_geom_bond_atom_site_label_1
_geom_bond_atom_site_label_2
_ccdc_geom_bond_type
C67   C73   A    
C84   H30   S    
C51   C55   A    
C55   C56   A    
C88   H45   S    
C10   H12   S    
C17   C18   A    
C89   C90   S    
C61   H37   S    
C86   H41   S    
O4    C2    A    
V1    O19   S    
C82   H23   S    
C41   H71   S    
C70   C72   A    
C94   H61   S    
C25   C31   A    
C42   H72   S    
C84   H28   S    
C15   C17   A    
C26   C32   A    
C16   C22   A    
C92   H57   S    
C49   C79   S    
O9    V1    S    
C90   H52   S    
C43   C47   A    
C90   H51   S    
C11   C13   A    
C71   C76   A    
C86   H40   S    
O5    V1    S    
C77   C78   S    
O3    C1    A    
C46   H34   S    
C83   H32   S    
C9    C11   A    
C46   C48   A    
C96   H67   S    
C91   C92   S    
C21   H3    S    
C6    C26   S    
C93   H64   S    
C22   H4    S    
C2    C44   S    
O13   V3    S    
C95   C96   S    
C32   C34   A    
C3    C64   S    
C33   C35   A    
O7    C3    A    
C81   H26   S    
C80   H20   S    
C34   C36   A    
C61   C71   A    
C85   C86   S    
C63   C65   A    
O5    C7    A    
O7    V1    S    
O6    C8    A    
C35   C41   A    
C8    C11   S    
O8    V2    S    
C62   C64   A    
C28   C36   A    
O3    V1    S    
O14   V4    S    
C36   C42   A    
C28   C30   A    
C57   C59   A    
C19   C24   A    
C17   C19   A    
O14   V2    S    
C20   C23   A    
C31   H6    S    
C15   C21   A    
C46   C54   A    
C16   C18   A    
C38   C39   A    
C85   H43   S    
C45   C53   A    
C2    O12   A    
C99   H84   S    
C88   H46   S    
C73   C75   A    
C18   C20   A    
C98   H77   S    
O2    C4    A    
C100  H81   S    
O1    V3    S    
C49   C51   A    
V2    O20   S    
O11   V3    S    
C91   H59   S    
C21   C23   A    
O17   V3    S    
C78   H15   S    
C13   C15   A    
C92   H58   S    
C22   C24   A    
C31   C33   A    
C28   H8    S    
C99   C100  S    
C34   C38   A    
C40   C99   S    
C9    C19   A    
C44   C48   A    
C100  H82   S    
C10   C20   A    
C86   H39   S    
C98   H76   S    
O8    C4    A    
C44   C50   A    
C83   H31   S    
C24   C95   S    
C25   C29   A    
C79   H21   S    
C43   C49   A    
C96   H68   S    
C1    C43   S    
C1    O11   A    
C32   H5    S    
C57   H35   S    
C74   H50   S    
C97   C98   S    
C27   C35   A    
C78   H14   S    
C39   C41   A    
C52   C56   A    
C68   C70   A    
C87   H48   S    
V4    O20   S    
C59   H9    S    
C13   H1    S    
C58   C60   A    
V3    O19   S    
C37   C40   A    
O10   V2    S    
C60   H10   S    
C97   H79   S    
C87   C88   S    
C45   C47   A    
C69   C71   A    
C77   H17   S    
C68   C74   A    
C92   H56   S    
C80   H18   S    
C79   H22   S    
C9    H11   S    
C76   C91   S    
C40   C42   A    
C51   C53   A    
C66   C68   A    
O18   V4    S    
C50   C52   A    
C99   H83   S    
C27   C29   A    
C75   C89   S    
O16   C6    A    
O1    C3    A    
C81   C82   S    
C53   C59   A    
C82   H25   S    
C73   H49   S    
C69   C70   A    
O6    V2    S    
C79   C80   S    
C4    C63   S    
C97   H78   S    
C26   C30   A    
C66   C87   S    
C84   H29   S    
C47   C83   S    
C65   C85   S    
C95   H70   S    
O16   V4    S    
C65   C67   A    
C90   H53   S    
C81   H27   S    
C50   C77   S    
C52   C54   A    
C98   H75   S    
C82   H24   S    
C94   H62   S    
C61   C63   A    
C78   H13   S    
C83   C84   S    
C14   H2    S    
C48   C81   S    
C7    C12   S    
O17   C7    A    
C62   H38   S    
O10   C6    A    
C30   H73   S    
O18   C8    A    
C29   H74   S    
O2    V4    S    
O15   C5    A    
C85   H42   S    
C87   H47   S    
C23   C93   S    
C54   C60   A    
C12   C14   A    
C14   C16   A    
C96   H66   S    
O15   V3    S    
O4    V2    S    
C5    C25   S    
O9    C5    A    
O13   V1    S    
C74   C76   A    
C89   H54   S    
C10   C12   A    
C37   C38   A    
C89   H55   S    
C64   C66   A    
C45   H33   S    
C80   H19   S    
C94   H63   S    
C77   H16   S    
C27   H7    S    
C33   C37   A    
C91   H60   S    
C56   C57   A    
C67   C69   A    
C93   C94   S    
C55   C58   A    
C62   C72   A    
C88   H44   S    
C95   H69   S    
C93   H65   S    
C39   C97   S    
C100  H80   S    
O12   V4    S    
C58   H36   S    
C72   C75   A    
