data_mof_unit_35722.cif
_audit_creation_date              2012-10-26T19:57:21-0400
_audit_creation_method            fapswitch 2.2
_symmetry_space_group_name_H-M    P1
_symmetry_Int_Tables_number       1
_space_group_crystal_system       triclinic
_cell_length_a                    13.043951
_cell_length_b                    10.915037
_cell_length_c                    9.823691
_cell_angle_alpha                 89.558841
_cell_angle_beta                  95.570356
_cell_angle_gamma                 92.696709
_cell_volume                      1390.49679573

loop_
_atom_site_label
_atom_site_type_symbol
_atom_type_description
_atom_site_fract_x
_atom_site_fract_y
_atom_site_fract_z
_atom_type_partial_charge
C1    C     C_R   0.498350 0.265488 0.498889 0.563835
C2    C     C_2   0.482565 0.132380 0.487944 0.038372
C3    C     C_2   0.443596 0.422788 0.917236 0.123819
C4    C     C_R   0.300419 0.504137 0.474454 0.534319
C5    C     C_2   0.451776 0.419254 0.070747 0.099305
C6    C     C_R   0.506582 0.733992 0.501044 0.539349
C7    C     C_R   0.698743 0.495274 0.525154 0.563159
C8    C     C_R   0.811501 0.492026 0.538147 -0.032557
C9    C     C_R   0.186913 0.517917 0.459510 -0.040133
C10   C     C_R   0.026003 0.553816 0.319242 0.262167
C11   C     C_R   0.128386 0.516180 0.328014 0.256702
C12   C     C_R   0.026614 0.515932 0.563278 -0.052459
C13   C     C_R   0.133699 0.536797 0.577334 -0.056233
C14   C     C_3   0.384130 0.075851 0.540336 -0.313817
C15   C     C_3   0.288299 0.145596 0.491835 -0.402970
C16   C     C_3   0.361423 0.333071 0.851470 -0.262587
C17   C     C_3   0.384154 0.199906 0.888518 -0.447585
C18   C     C_3   0.184076 0.591796 0.711785 -0.235389
C19   C     C_3   0.231920 0.720399 0.690518 -0.384848
C20   C     C_3   0.636514 0.131404 0.348490 -0.248179
C21   C     C_3   0.714166 0.044049 0.300853 -0.407412
C22   C     C_R   0.971616 0.537020 0.435574 -0.031880
C23   C     C_R   0.863938 0.533765 0.427333 -0.124031
C24   C     C_R   0.868189 0.446364 0.656016 0.260840
C25   C     C_R   0.974685 0.467926 0.671740 -0.087758
C26   C     C_2   0.528690 0.935187 0.396986 -0.139453
C27   C     C_2   0.526267 0.865158 0.508132 -0.131570
C28   C     C_2   0.545674 0.068444 0.413369 -0.003238
Cu1   Cu    Cu3+1 0.500020 0.500020 0.638640 1.029767
Cu2   Cu    Cu3+1 0.499980 0.499980 0.361360 1.132753
H1    H     H_    0.819855 0.557246 0.332790 0.235921
H2    H     H_    0.365636 0.980533 0.505679 0.152725
H3    H     H_    0.394592 0.073032 0.652941 0.141974
H4    H     H_    0.460016 0.176966 0.855566 0.182480
H5    H     H_    0.384509 0.181612 0.999603 0.153557
H6    H     H_    0.322362 0.138353 0.837151 0.145427
H7    H     H_    0.285847 0.353392 0.887285 0.139558
H8    H     H_    0.352700 0.338238 0.740241 0.203877
H9    H     H_    0.692882 0.754894 0.200916 0.363851
H10   H     H_    0.868967 0.218946 0.930577 0.382718
H11   H     H_    0.019427 0.694464 0.978505 0.361587
H12   H     H_    0.574604 0.504392 0.880876 0.314030
H13   H     H_    0.106143 0.367283 0.990121 0.353871
H14   H     H_    0.291796 0.720142 0.617943 0.170528
H15   H     H_    0.171191 0.782768 0.650065 0.149131
H16   H     H_    0.268099 0.756957 0.789869 0.173799
H17   H     H_    0.126450 0.603677 0.786075 0.164440
H18   H     H_    0.240455 0.531213 0.764766 0.185719
H19   H     H_    0.743255 0.983935 0.386434 0.186310
H20   H     H_    0.678225 0.987087 0.214315 0.164821
H21   H     H_    0.780653 0.098157 0.264931 0.171824
H22   H     H_    0.606770 0.186146 0.258632 0.171817
H23   H     H_    0.403673 0.351280 0.118071 0.143500
H24   H     H_    0.679773 0.194563 0.424133 0.185667
H25   H     H_    0.018036 0.436931 0.764104 0.169859
H26   H     H_    0.521440 0.895776 0.295145 0.190551
H27   H     H_    0.538071 0.906735 0.609131 0.136975
H28   H     H_    0.294762 0.241325 0.529367 0.156932
H29   H     H_    0.276986 0.145641 0.378412 0.207930
H30   H     H_    0.219409 0.099593 0.531444 0.148369
N1    N     N_2   0.498860 0.498660 0.846770 -0.291702
N2    N     N_2   0.498840 0.498630 0.152900 -0.063968
O1    O     O_R   0.500020 0.321960 0.617050 -0.499553
O2    O     O_2   0.547589 0.693316 0.998337 -0.297739
O3    O     O_3   0.641080 0.698880 0.239426 -0.488901
O4    O     O_2   0.761435 0.418754 0.873497 -0.204327
O5    O     O_2   0.733946 0.259172 0.698430 -0.309479
O6    O     O_3   0.904323 0.263598 0.858996 -0.514140
O7    O     O_2   0.897769 0.528024 0.090491 -0.173636
O8    O     O_2   0.906681 0.727856 0.203656 -0.309128
O9    O     O_3   0.058275 0.674547 0.066970 -0.463620
O10   O     O_2   0.242021 0.538299 0.113651 -0.266324
O11   O     O_2   0.229993 0.335511 0.222898 -0.349137
O12   O     O_R   0.499980 0.321920 0.382890 -0.542614
O13   O     O_3   0.073529 0.403366 0.066467 -0.441481
O14   O     O_R   0.349010 0.500000 0.598060 -0.558824
O15   O     O_R   0.348980 0.499950 0.363910 -0.428531
O16   O     O_R   0.500020 0.678080 0.617110 -0.495187
O17   O     O_R   0.499980 0.678040 0.382950 -0.429928
O18   O     O_R   0.651020 0.500050 0.636090 -0.444355
O19   O     O_R   0.650990 0.500000 0.401940 -0.470732
O20   O     O_2   0.683019 0.546386 0.064708 -0.236970
S1    S     S_3+6 0.592053 0.609395 0.108706 0.117713
S2    S     S_3+6 0.812675 0.345553 0.773429 0.041892
S3    S     S_3+6 0.968276 0.621962 0.167159 0.071037
S4    S     S_3+6 0.172306 0.447737 0.180729 0.037599

loop_
_geom_bond_atom_site_label_1
_geom_bond_atom_site_label_2
_ccdc_geom_bond_type
N2    S1    S    
Cu1   O1    S    
C10   S3    S    
C15   H30   S    
C18   H17   S    
C14   H3    S    
C21   H19   S    
C19   H16   S    
C7    C8    S    
Cu1   O14   S    
C10   C22   A    
C26   C27   D    
C13   C18   S    
C1    O12   A    
C5    H23   S    
C18   C19   S    
Cu2   O12   S    
C6    O16   A    
C11   S4    S    
C12   C22   A    
C8    C23   A    
C1    C2    S    
C9    C13   A    
O9    S3    S    
Cu2   O15   S    
Cu1   O16   S    
C16   C17   S    
C17   H6    S    
C16   H7    S    
H11   O9    S    
O5    S2    D    
H9    O3    S    
C1    O1    A    
C21   H20   S    
C3    N1    D    
H13   O13   S    
Cu1   N1    S    
O6    S2    S    
C24   C25   A    
C20   H24   S    
C27   H27   S    
C20   C28   S    
C26   H26   S    
C23   H1    S    
O2    S1    D    
Cu1   Cu2   S    
O13   S4    S    
C6    C27   S    
C12   C13   A    
C9    C11   A    
H12   N1    S    
Cu2   O17   S    
C7    O19   A    
Cu2   N2    S    
C15   H28   S    
C17   H4    S    
C21   H21   S    
O7    S3    D    
C19   H14   S    
C14   C15   S    
C15   H29   S    
C25   H25   S    
C14   H2    S    
C3    C5    S    
C18   H18   S    
O10   S4    D    
C19   H15   S    
C26   C28   S    
C12   C25   A    
Cu2   O19   S    
C24   S2    S    
C4    O15   A    
C20   H22   S    
C6    O17   A    
Cu1   O18   S    
C8    C24   A    
C5    N2    D    
C2    C14   S    
O11   S4    D    
C4    O14   A    
O3    S1    S    
C10   C11   A    
O4    S2    D    
C20   C21   S    
O20   S1    D    
H10   O6    S    
C22   C23   A    
C2    C28   D    
C17   H5    S    
C4    C9    S    
O8    S3    D    
C3    C16   S    
C16   H8    S    
C7    O18   A    
