data_mof_unit_43894.cif
_audit_creation_date              2012-12-10T19:05:49-0500
_audit_creation_method            fapswitch 2.2
_symmetry_space_group_name_H-M    P1
_symmetry_Int_Tables_number       1
_space_group_crystal_system       triclinic
_cell_length_a                    19.33922
_cell_length_b                    10.862645
_cell_length_c                    9.545023
_cell_angle_alpha                 90.684895
_cell_angle_beta                  89.470973
_cell_angle_gamma                 90.445533
_cell_volume                      2004.88383858

loop_
_atom_site_label
_atom_site_type_symbol
_atom_type_description
_atom_site_fract_x
_atom_site_fract_y
_atom_site_fract_z
_atom_type_partial_charge
C1    C     C_R   0.499522 0.262412 0.498637 0.834925
C2    C     C_R   0.292044 0.500758 0.502087 -0.161544
C3    C     C_R   0.929530 0.502529 0.502654 0.394311
C4    C     C_R   0.069789 0.503395 0.505777 0.434233
C5    C     C_R   0.816270 0.450046 0.611953 -0.233473
C6    C     C_R   0.744212 0.449577 0.612360 -0.210150
C7    C     C_R   0.708265 0.498952 0.499544 -0.086815
C8    C     C_R   0.745178 0.549179 0.387058 -0.278671
C9    C     C_R   0.817508 0.549237 0.384777 0.516532
C10   C     C_R   0.853525 0.501142 0.499530 -0.023559
C11   C     C_R   0.529953 0.064591 0.602767 -0.048603
C12   C     C_R   0.367648 0.499974 0.500629 0.837329
C13   C     C_R   0.501310 0.129113 0.492819 -0.241080
C14   C     C_R   0.477598 0.062783 0.373844 0.433253
C15   C     C_R   0.471201 0.934021 0.380199 -0.132985
C16   C     C_R   0.496613 0.870735 0.497950 -0.180280
C17   C     C_R   0.528572 0.937886 0.605003 0.012018
C18   C     C_3   0.516867 0.935122 0.760456 -0.468076
C19   C     C_3   0.517821 0.075196 0.758262 0.368907
C20   C     C_R   0.533112 0.591588 0.073787 0.271218
C21   C     C_R   0.460095 0.419419 0.074197 -0.091407
C22   C     C_R   0.460481 0.418712 0.925200 -0.048406
C23   C     C_R   0.497610 0.737360 0.500385 0.839573
C24   C     C_R   0.533201 0.591168 0.926624 0.198867
C25   C     C_3   0.607928 0.623764 0.918351 -0.565693
C26   C     C_3   0.607929 0.626295 0.078281 0.264122
C27   C     C_R   0.632455 0.499502 0.499664 0.807967
C28   C     C_R   0.255314 0.439343 0.607175 -0.266013
C29   C     C_R   0.182974 0.440344 0.610139 0.468666
C30   C     C_R   0.146424 0.502812 0.504930 -0.159087
C31   C     C_R   0.184092 0.564308 0.398330 0.463568
C32   C     C_R   0.256394 0.563304 0.398543 -0.267218
Cu1   Cu    Cu3+1 0.500000 0.499980 0.640670 0.953188
Cu2   Cu    Cu3+1 0.500000 0.500020 0.359330 0.979079
H1    H     H_    0.282718 0.389162 0.686617 0.167653
H2    H     H_    0.465596 0.895625 0.789808 0.177768
H3    H     H_    0.561311 0.895472 0.816477 0.205838
H4    H     H_    0.466497 0.115250 0.784537 0.090463
H5    H     H_    0.428385 0.353523 0.129947 0.182528
H6    H     H_    0.429632 0.351216 0.869107 0.132501
H7    H     H_    0.639883 0.547947 0.873964 0.184100
H8    H     H_    0.616753 0.714329 0.868763 0.202804
H9    H     H_    0.640205 0.554227 0.126388 0.092465
H10   H     H_    0.284641 0.612827 0.318100 0.183971
H11   H     H_    0.842931 0.412120 0.700739 0.166796
H12   H     H_    0.716631 0.410070 0.700509 0.146355
H13   H     H_    0.717967 0.590313 0.301804 0.160453
N1    N     N_R   0.033063 0.411795 0.568082 -0.168281
N2    N     N_R   0.964287 0.411543 0.567074 -0.247690
N3    N     N_R   0.966052 0.594551 0.441177 -0.162261
N4    N     N_R   0.034769 0.595045 0.442987 -0.165223
N5    N     N_R   0.500440 0.500930 0.147930 -0.224581
N6    N     N_R   0.500440 0.500890 0.852020 -0.179012
O1    O     O_R   0.500000 0.319640 0.618810 -0.587733
O2    O     O_R   0.500010 0.319680 0.381230 -0.548349
O3    O     O_R   0.400140 0.499970 0.618830 -0.588463
O4    O     O_R   0.400150 0.500010 0.381250 -0.577490
O5    O     O_R   0.499990 0.680320 0.618770 -0.575952
O6    O     O_R   0.500000 0.680360 0.381190 -0.557644
O7    O     O_R   0.599850 0.499990 0.618750 -0.581016
O8    O     O_R   0.599860 0.500030 0.381170 -0.589485
C33   C     C_1   0.432761 0.870853 0.270663 0.349899
N7    N     N_1   0.402087 0.820627 0.183188 -0.290095
O9    O     O_3   0.571095 0.128121 0.842967 -0.583669
C34   C     C_3   0.636360 0.136225 0.775783 -0.267274
H14   H     H_    0.654100 0.044620 0.737469 0.159692
H15   H     H_    0.674666 0.170440 0.853055 0.166710
H16   H     H_    0.635238 0.203533 0.689020 0.167307
O10   O     O_3   0.148283 0.374873 0.712602 -0.543120
C35   C     C_3   0.146974 0.446503 0.836568 -0.303054
H17   H     H_    0.121231 0.536491 0.820093 0.157455
H18   H     H_    0.199968 0.461123 0.878310 0.148655
H19   H     H_    0.116525 0.396180 0.916897 0.193326
O11   O     O_3   0.615804 0.745419 0.137623 -0.556313
C36   C     C_3   0.683693 0.790355 0.114861 -0.292651
H20   H     H_    0.685330 0.846064 0.018101 0.170383
H21   H     H_    0.723557 0.717088 0.106965 0.158236
H22   H     H_    0.697800 0.851833 0.203892 0.191931
O12   O     O_3   0.150639 0.630652 0.296959 -0.539856
C37   C     C_3   0.147932 0.558777 0.173296 -0.288015
H23   H     H_    0.120444 0.469754 0.191064 0.154334
H24   H     H_    0.200624 0.542226 0.129608 0.148198
H25   H     H_    0.118468 0.609933 0.093942 0.195042
O13   O     O_3   0.852804 0.601519 0.273429 -0.565893
C38   C     C_3   0.850814 0.518934 0.158383 -0.322331
H26   H     H_    0.797238 0.506515 0.118838 0.139270
H27   H     H_    0.873403 0.428303 0.185296 0.164015
H28   H     H_    0.882487 0.557972 0.071959 0.202704
O14   O     O_3   0.452337 0.123761 0.258765 -0.589389
C39   C     C_3   0.502418 0.117751 0.150286 -0.221409
H29   H     H_    0.549356 0.172269 0.178081 0.176872
H30   H     H_    0.480055 0.157855 0.054886 0.187540
H31   H     H_    0.517187 0.021577 0.122858 0.176285

loop_
_geom_bond_atom_site_label_1
_geom_bond_atom_site_label_2
_ccdc_geom_bond_type
C23   O5    A    
Cu1   O5    S    
C36   H20   S    
C2    C12   S    
C3    N2    A    
C7    C8    A    
C38   H26   S    
C23   O6    A    
C11   C19   S    
C33   N7    T    
C28   C29   A    
C18   H3    S    
C27   O7    A    
C30   C31   A    
C15   C16   A    
C7    C27   S    
C2    C32   A    
C18   C19   S    
C27   O8    A    
C20   C24   A    
C28   H1    S    
C8    C9    A    
C34   H15   S    
Cu2   O4    S    
C35   H17   S    
C9    C10   A    
Cu1   O3    S    
Cu2   O2    S    
C21   C22   A    
C37   H25   S    
C25   C26   S    
C3    N3    A    
C26   H9    S    
Cu1   Cu2   S    
C22   N6    A    
C29   O10   S    
C38   H27   S    
Cu1   N6    S    
O11   C36   S    
C4    N4    A    
C24   C25   S    
C37   H24   S    
C25   H7    S    
C16   C17   A    
N3    N4    A    
C24   N6    A    
C5    H11   S    
Cu2   O8    S    
C1    O1    A    
C14   O14   S    
C29   C30   A    
C19   H4    S    
C39   H30   S    
C31   C32   A    
C21   H5    S    
C19   O9    S    
C34   H16   S    
C22   H6    S    
C35   H19   S    
C17   C18   S    
C32   H10   S    
O13   C38   S    
C36   H21   S    
C12   O3    A    
C12   O4    A    
N1    N2    A    
C16   C23   S    
Cu2   O6    S    
C1    C13   S    
C39   H31   S    
C4    N1    A    
C38   H28   S    
Cu1   O1    S    
C11   C17   A    
C6    H12   S    
C37   H23   S    
C25   H8    S    
C35   H18   S    
C31   O12   S    
C6    C7    A    
Cu1   O7    S    
Cu2   N5    S    
O9    C34   S    
C1    O2    A    
C8    H13   S    
C5    C10   A    
C20   N5    A    
C3    C10   S    
C11   C13   A    
C39   H29   S    
C5    C6    A    
C20   C26   S    
C26   O11   S    
C15   C33   S    
O10   C35   S    
C36   H22   S    
C9    O13   S    
O12   C37   S    
C34   H14   S    
C14   C15   A    
C2    C28   A    
O14   C39   S    
C13   C14   A    
C18   H2    S    
C21   N5    A    
C4    C30   S    
