data_mof_unit_44173.cif
_audit_creation_date              2012-12-10T20:30:08-0500
_audit_creation_method            fapswitch 2.2
_symmetry_space_group_name_H-M    P1
_symmetry_Int_Tables_number       1
_space_group_crystal_system       triclinic
_cell_length_a                    9.875403
_cell_length_b                    10.673479
_cell_length_c                    13.105216
_cell_angle_alpha                 90.045271
_cell_angle_beta                  69.84664
_cell_angle_gamma                 89.721639
_cell_volume                      1296.7592253

loop_
_atom_site_label
_atom_site_type_symbol
_atom_type_description
_atom_site_fract_x
_atom_site_fract_y
_atom_site_fract_z
_atom_type_partial_charge
C1    C     C_R   0.500029 0.739818 0.499349 0.923376
C2    C     C_R   0.428721 0.477175 0.985463 0.082967
C3    C     C_R   0.455836 0.439487 0.877310 0.070383
C4    C     C_R   0.539000 0.459118 0.029924 0.074227
C5    C     C_R   0.663056 0.386275 0.973606 0.177938
C6    C     C_R   0.676238 0.332850 0.873621 -0.278714
C7    C     C_R   0.573692 0.358944 0.825885 -0.229217
C8    C     C_R   0.530296 0.513717 0.128307 -0.272110
C9    C     C_R   0.752097 0.412318 0.122993 -0.204663
C10   C     C_R   0.366123 0.486333 0.822526 -0.119141
C11   C     C_R   0.372231 0.937207 0.530324 0.029169
C12   C     C_R   0.419675 0.494030 0.704237 0.876044
C13   C     C_R   0.502019 0.871654 0.491281 -0.044129
C14   C     C_R   0.632046 0.934334 0.439661 -0.217632
C15   C     C_R   0.632602 0.063969 0.439121 -0.207603
C16   C     C_R   0.502992 0.128517 0.489743 -0.061400
C17   C     C_R   0.372744 0.065015 0.528361 0.042899
C18   C     C_3   0.257187 0.075579 0.637319 -0.546074
C19   C     C_3   0.257167 0.933138 0.640529 0.381000
C20   C     C_R   0.902829 0.589074 0.556540 0.098274
C21   C     C_R   0.956958 0.419529 0.434170 0.555178
C22   C     C_R   0.102187 0.419357 0.436070 -0.269093
C23   C     C_R   0.500937 0.260257 0.498348 0.870561
C24   C     C_R   0.044987 0.588712 0.556736 0.132802
C25   C     C_3   0.995941 0.610019 0.676328 -0.580870
C26   C     C_3   0.842106 0.611708 0.676029 0.354455
C27   C     C_R   0.580180 0.499714 0.295588 0.855226
C28   C     C_R   0.770687 0.366184 0.019401 -0.218740
C29   C     C_R   0.628521 0.482333 0.178660 -0.055957
C30   C     C_R   0.233418 0.542514 0.881248 -0.182805
C31   C     C_R   0.195055 0.560920 0.992489 -0.171244
C32   C     C_R   0.293004 0.532147 0.044146 -0.207153
H1    H     H_    0.829406 0.387918 0.161528 0.172036
H2    H     H_    0.733595 0.113099 0.403128 0.196869
H3    H     H_    0.295706 0.120996 0.698693 0.210476
H4    H     H_    0.155859 0.115730 0.631837 0.172177
H5    H     H_    0.156582 0.888822 0.637959 0.078188
H6    H     H_    0.182110 0.352977 0.388804 0.170191
H7    H     H_    0.018744 0.528519 0.720774 0.173332
H8    H     H_    0.032256 0.701479 0.697081 0.210195
H9    H     H_    0.774587 0.532574 0.720370 0.109104
H10   H     H_    0.767659 0.273510 0.830977 0.150725
H11   H     H_    0.865575 0.310431 0.977280 0.136637
H12   H     H_    0.443396 0.576913 0.170572 0.148455
H13   H     H_    0.161742 0.576285 0.840657 0.152233
H14   H     H_    0.258451 0.551112 0.130219 0.130850
H15   H     H_    0.091960 0.603239 0.037915 0.143408
H16   H     H_    0.587970 0.316029 0.747993 0.172714
H17   H     H_    0.732723 0.883690 0.403736 0.162762
N1    N     N_R   0.856940 0.500860 0.500710 -0.180426
N2    N     N_R   0.142580 0.500820 0.500710 -0.115742
O1    O     O_R   0.385310 0.683210 0.499990 -0.622139
O2    O     O_R   0.614650 0.683240 0.500000 -0.594677
O3    O     O_R   0.328390 0.499940 0.653610 -0.606065
O4    O     O_R   0.557730 0.499980 0.653620 -0.618265
O5    O     O_R   0.385350 0.316760 0.500000 -0.617355
O6    O     O_R   0.614690 0.316790 0.500010 -0.580394
O7    O     O_R   0.442270 0.500020 0.346380 -0.617184
O8    O     O_R   0.671610 0.500060 0.346390 -0.587418
Zn1   Zn    Zn3+2 0.346870 0.499980 0.499990 0.945597
Zn2   Zn    Zn3+2 0.653130 0.500020 0.500010 0.999607
O9    O     O_3   0.311934 0.884389 0.718954 -0.574220
C33   C     C_3   0.200228 0.879342 0.820754 -0.315521
H18   H     H_    0.114169 0.813646 0.819070 0.143478
H19   H     H_    0.153684 0.973848 0.847886 0.160554
H20   H     H_    0.245699 0.843813 0.881754 0.196559
O10   O     O_3   0.907967 0.335104 0.373630 -0.574781
C34   C     C_3   0.018716 0.286236 0.282426 -0.403744
H21   H     H_    0.968482 0.239295 0.228957 0.189451
H22   H     H_    0.081437 0.213310 0.307546 0.173161
H23   H     H_    0.089790 0.361361 0.233829 0.168623
O11   O     O_3   0.777740 0.731762 0.698119 -0.564776
C35   C     C_3   0.699333 0.742224 0.810238 -0.262846
H24   H     H_    0.767913 0.720920 0.860070 0.141211
H25   H     H_    0.603447 0.680224 0.833732 0.175827
H26   H     H_    0.659981 0.840089 0.828223 0.193178

loop_
_geom_bond_atom_site_label_1
_geom_bond_atom_site_label_2
_ccdc_geom_bond_type
C33   H19   S    
C27   C29   S    
C26   O11   S    
C35   H24   S    
C30   H13   S    
C4    C8    A    
C23   O5    A    
O3    Zn1   S    
C11   C19   S    
C8    C29   A    
C3    C7    A    
C25   H8    S    
C5    C6    A    
C14   H17   S    
C16   C17   A    
C19   O9    S    
O7    Zn1   S    
C15   C16   A    
C22   H6    S    
C2    C32   A    
C18   C19   S    
C1    O2    A    
C20   N1    A    
O1    Zn1   S    
O2    Zn2   S    
C20   C24   A    
C34   H21   S    
C19   H5    S    
C18   H3    S    
C15   H2    S    
C9    C29   A    
C24   N2    A    
C33   H20   S    
C31   H15   S    
C13   C14   A    
C21   O10   S    
C9    H1    S    
C35   H25   S    
C21   N1    A    
O8    Zn2   S    
O10   C34   S    
C24   C25   S    
O11   C35   S    
C25   C26   S    
O5    Zn1   S    
C2    C4    A    
O9    C33   S    
C5    C28   A    
C10   C30   A    
C31   C32   A    
C17   C18   S    
C10   C12   S    
C16   C23   S    
C35   H26   S    
C1    C13   S    
C23   O6    A    
C11   C17   A    
C32   H14   S    
C8    H12   S    
C4    C5    A    
C27   O7    A    
O6    Zn2   S    
C6    C7    A    
C28   H11   S    
C7    H16   S    
C2    C3    A    
C3    C10   A    
C27   O8    A    
C25   H7    S    
C11   C13   A    
C30   C31   A    
C20   C26   S    
C34   H23   S    
O4    Zn2   S    
C1    O1    A    
C12   O4    A    
C33   H18   S    
C26   H9    S    
C34   H22   S    
C6    H10   S    
N1    Zn2   S    
C14   C15   A    
N2    Zn1   S    
C21   C22   A    
C18   H4    S    
C12   O3    A    
C9    C28   A    
C22   N2    A    
