data_mof_unit_61210.cif
_audit_creation_date              2012-12-11T14:30:13-0500
_audit_creation_method            fapswitch 2.2
_symmetry_space_group_name_H-M    P1
_symmetry_Int_Tables_number       1
_space_group_crystal_system       triclinic
_cell_length_a                    13.180812
_cell_length_b                    13.209661
_cell_length_c                    26.694763
_cell_angle_alpha                 90.516387
_cell_angle_beta                  90.423463
_cell_angle_gamma                 120.609944
_cell_volume                      3999.71099855

loop_
_atom_site_label
_atom_site_type_symbol
_atom_type_description
_atom_site_fract_x
_atom_site_fract_y
_atom_site_fract_z
_atom_type_partial_charge
C1    C     C_R   0.559291 0.456466 0.822062 0.554158
C2    C     C_R   0.453092 0.555578 0.178235 0.554929
C3    C     C_R   0.178066 0.473858 0.493849 0.303019
C4    C     C_R   0.460278 0.155358 0.044425 0.271823
C5    C     C_R   0.587822 0.725566 0.494292 0.252067
C6    C     C_R   0.300919 0.828329 0.543777 0.268636
C7    C     C_R   0.881342 0.312270 0.973488 0.326419
C8    C     C_R   0.575982 0.709603 0.545951 0.293347
C9    C     C_R   0.440840 0.151318 0.992553 0.256039
C10   C     C_R   0.165286 0.478403 0.545523 0.267355
C11   C     C_R   0.693875 0.542072 0.988696 0.307464
C12   C     C_R   0.437060 0.892668 0.323330 0.558754
C13   C     C_R   0.100878 0.544329 0.178276 0.548138
C14   C     C_R   0.995476 0.524515 0.973673 -0.020431
C15   C     C_R   0.508081 0.969874 0.533649 -0.006092
C16   C     C_R   0.483579 0.460147 0.976604 -0.019844
C17   C     C_R   0.006638 0.516060 0.529410 -0.001468
C18   C     C_R   0.535790 0.037764 0.979864 -0.026108
C19   C     C_R   0.487745 0.499049 0.532352 -0.027504
C20   C     C_R   0.492595 0.961940 0.480783 -0.017779
C21   C     C_R   0.895164 0.440285 0.678848 0.578611
C22   C     C_R   0.996141 0.526914 0.026567 -0.024131
C23   C     C_R   0.496771 0.514680 0.479505 -0.017209
C24   C     C_R   0.538210 0.025559 0.032624 -0.031777
C25   C     C_R   0.026023 0.521400 0.477607 -0.018193
C26   C     C_R   0.471697 0.455586 0.029583 -0.015491
C27   C     C_R   0.070762 0.733956 0.971592 0.116520
C28   C     C_R   0.720151 0.093670 0.523747 0.099325
C29   C     C_R   0.270931 0.341376 0.966282 0.146115
C30   C     C_R   0.872141 0.586427 0.517653 0.099799
C31   C     C_R   0.651311 0.944425 0.969530 0.185273
C32   C     C_R   0.544372 0.106152 0.822844 0.554222
C33   C     C_R   0.389984 0.287279 0.519152 0.109126
C34   C     C_R   0.705894 0.081467 0.471030 0.146088
C35   C     C_R   0.093070 0.739147 0.023803 0.094661
C36   C     C_R   0.388666 0.301344 0.467094 0.116364
C37   C     C_R   0.635839 0.913699 0.020081 0.133205
C38   C     C_R   0.898756 0.603332 0.466231 0.121042
C39   C     C_R   0.259427 0.348191 0.019173 0.081522
C40   C     C_R   0.005193 0.608337 0.890593 0.135402
C41   C     C_R   0.628824 0.046326 0.608438 0.121134
C42   C     C_R   0.405880 0.410086 0.889658 0.110501
C43   C     C_R   0.553642 0.455668 0.680223 0.568488
C44   C     C_R   0.869730 0.484175 0.593193 0.083597
C45   C     C_R   0.581868 0.003560 0.894387 0.063988
C46   C     C_R   0.423948 0.372546 0.604775 0.118735
C47   C     C_R   0.571124 0.012041 0.395697 0.092190
C48   C     C_R   0.054063 0.634295 0.105383 0.111634
C49   C     C_R   0.450559 0.433704 0.393476 0.096405
C50   C     C_R   0.577046 0.941027 0.105149 0.084643
C51   C     C_R   0.982316 0.554400 0.391814 0.102406
C52   C     C_R   0.356533 0.415523 0.104650 0.088160
C53   C     C_R   0.035217 0.531283 0.129969 -0.005733
C54   C     C_R   0.898613 0.443664 0.821901 0.544847
C55   C     C_R   0.457705 0.935654 0.376369 -0.006142
C56   C     C_R   0.460759 0.498017 0.131148 0.003942
C57   C     C_R   0.063860 0.523826 0.374567 0.005028
C58   C     C_R   0.502038 0.966812 0.133459 -0.016245
C59   C     C_R   0.485457 0.545942 0.375567 0.007390
C60   C     C_R   0.527621 0.025473 0.635203 0.014064
C61   C     C_R   0.966636 0.493519 0.869955 0.009635
C62   C     C_R   0.497442 0.470613 0.635106 0.005944
C63   C     C_R   0.525130 0.060804 0.875102 -0.010769
C64   C     C_R   0.942280 0.475560 0.629262 0.042413
C65   C     C_R   0.543524 0.098772 0.679874 0.569649
C66   C     C_R   0.523514 0.475996 0.872515 -0.011450
C67   C     C_R   0.028175 0.626359 0.944451 0.043339
C68   C     C_R   0.621230 0.037632 0.555431 0.027492
C69   C     C_R   0.383827 0.406044 0.943258 0.056323
C70   C     C_R   0.914290 0.527896 0.546536 0.032911
C71   C     C_R   0.588693 0.992828 0.947341 0.036305
C72   C     C_R   0.432617 0.384619 0.552175 0.016159
C73   C     C_R   0.591331 0.021868 0.448694 0.053322
C74   C     C_R   0.049386 0.635306 0.052283 0.017684
C75   C     C_R   0.448234 0.415254 0.446116 0.027204
C76   C     C_R   0.456975 0.564322 0.323310 0.562303
C77   C     C_R   0.583466 0.958106 0.052852 0.029023
C78   C     C_R   0.963809 0.555572 0.444290 0.039224
C79   C     C_R   0.360114 0.407185 0.051280 -0.010511
C80   C     C_R   0.988999 0.421370 0.899245 0.065033
C81   C     C_R   0.416624 0.943787 0.616104 0.097487
C82   C     C_R   0.614275 0.544473 0.906729 0.115795
C83   C     C_R   0.051844 0.491723 0.616120 0.089270
C84   C     C_R   0.457717 0.087627 0.907809 0.115621
C85   C     C_R   0.529508 0.581308 0.618128 0.155743
C86   C     C_R   0.359377 0.897709 0.408401 0.112144
C87   C     C_R   0.444432 0.898523 0.179090 0.553627
C88   C     C_R   0.961083 0.422334 0.106105 0.084998
C89   C     C_R   0.553022 0.645509 0.407859 0.118060
C90   C     C_R   0.484507 0.056333 0.117128 0.127047
C91   C     C_R   0.111140 0.475356 0.408150 0.108822
C92   C     C_R   0.567300 0.517467 0.112795 0.111614
C93   C     C_R   0.957134 0.417227 0.948993 -0.027369
C94   C     C_R   0.408950 0.909287 0.565279 0.008058
C95   C     C_R   0.598022 0.518328 0.957408 0.023638
C96   C     C_R   0.076433 0.495779 0.564228 0.036159
C97   C     C_R   0.477205 0.092193 0.959905 0.023537
C98   C     C_R   0.106462 0.544164 0.322506 0.558599
C99   C     C_R   0.527884 0.597451 0.565746 0.067006
C100  C     C_R   0.376621 0.898399 0.460512 0.018305
C101  C     C_R   0.938693 0.419841 0.053447 -0.002291
C102  C     C_R   0.548032 0.629633 0.460312 0.043742
C103  C     C_R   0.498553 0.083734 0.065366 0.016913
C104  C     C_R   0.106508 0.491151 0.459674 0.038906
C105  C     C_R   0.572465 0.492992 0.061408 0.029098
C106  C     C_R   0.866544 0.314815 0.025355 0.333360
C107  C     C_R   0.281168 0.833432 0.493013 0.313664
C108  C     C_R   0.677475 0.515256 0.039459 0.272882
Cr1   Cr    Cr6+3 0.487630 0.241180 0.750000 1.145617
Cr2   Cr    Cr6+3 0.753550 0.512370 0.750000 1.143942
Cr3   Cr    Cr6+3 0.758820 0.246450 0.750000 1.130836
Cr4   Cr    Cr6+3 0.241180 0.487630 0.250000 1.140870
Cr5   Cr    Cr6+3 0.512370 0.753550 0.250000 1.138626
Cr6   Cr    Cr6+3 0.246450 0.758820 0.250000 1.137595
H1    H     H_    0.740047 0.236915 0.070513 0.320836
H2    H     H_    0.307293 0.166507 0.986199 0.346429
H3    H     H_    0.176029 0.379583 0.593320 0.361698
H4    H     H_    0.859008 0.633240 0.995131 0.369947
H5    H     H_    0.114712 0.768524 0.501066 0.379800
H6    H     H_    0.725024 0.440831 0.087818 0.344030
H7    H     H_    0.253932 0.385530 0.495551 0.360519
H8    H     H_    0.352014 0.204067 0.064404 0.355307
H9    H     H_    0.716338 0.878266 0.484892 0.349481
H10   H     H_    0.250731 0.715689 0.595937 0.355526
H11   H     H_    0.824266 0.219461 0.911442 0.335882
H12   H     H_    0.690928 0.869991 0.564306 0.356287
I1    I     I_    0.026005 0.755259 0.149772 -0.073854
I2    I     I_    0.606747 0.896115 0.840949 -0.173443
I3    I     I_    0.685109 0.368446 0.595618 -0.329095
I4    I     I_    0.279325 0.345140 0.827505 -0.109752
I5    I     I_    0.208846 0.907635 0.055095 -0.294018
I6    I     I_    0.859541 0.117320 0.429936 -0.154948
I7    I     I_    0.086152 0.270025 0.048181 -0.182013
I8    I     I_    0.885977 0.740574 0.431617 -0.161426
I9    I     I_    0.666408 0.775988 0.038480 -0.273060
I10   I     I_    0.253344 0.150960 0.427675 -0.117886
I11   I     I_    0.893196 0.210204 0.552423 -0.312939
I12   I     I_    0.681817 0.143517 0.343027 -0.165068
I13   I     I_    0.047014 0.872885 0.946771 -0.115459
I14   I     I_    0.347013 0.119039 0.544862 -0.256044
I15   I     I_    0.811023 0.971786 0.938902 -0.054078
I16   I     I_    0.822805 0.692735 0.559527 -0.257435
I17   I     I_    0.118519 0.203769 0.928147 -0.104809
I18   I     I_    0.884333 0.271422 0.153280 -0.152266
I19   I     I_    0.190362 0.867718 0.379775 -0.081893
I20   I     I_    0.709997 0.578834 0.165743 -0.132450
I21   I     I_    0.147474 0.340076 0.383937 -0.122825
I22   I     I_    0.454716 0.151695 0.175293 -0.119580
I23   I     I_    0.240537 0.264881 0.149183 -0.098045
I24   I     I_    0.683155 0.816623 0.377449 -0.117667
I25   I     I_    0.263762 0.886952 0.663229 -0.121718
I26   I     I_    0.175322 0.500078 0.896156 -0.285801
I27   I     I_    0.554237 0.705240 0.676598 -0.108243
I28   I     I_    0.300055 0.080596 0.880213 -0.123118
I29   I     I_    0.172028 0.514245 0.676081 -0.186984
I30   I     I_    0.764654 0.705045 0.883957 -0.097075
I31   I     I_    0.861667 0.548728 0.335887 -0.155700
I32   I     I_    0.722486 0.944668 0.144836 -0.068398
I33   I     I_    0.456601 0.317788 0.338232 -0.152515
I34   I     I_    0.761210 0.031238 0.651226 -0.107029
I35   I     I_    0.069983 0.744303 0.836209 -0.121482
I36   I     I_    0.266838 0.239913 0.640684 -0.129030
O1    O     O_R   0.460870 0.120930 0.805240 -0.466902
O2    O     O_R   0.120930 0.460870 0.194760 -0.458221
O3    O     O_R   0.539130 0.660060 0.305240 -0.471723
O4    O     O_R   0.339940 0.879070 0.194760 -0.456712
O5    O     O_R   0.498910 0.350470 0.801870 -0.479787
O6    O     O_R   0.851560 0.501090 0.698130 -0.472951
O7    O     O_R   0.649530 0.148440 0.801870 -0.486001
O8    O     O_R   0.498910 0.350470 0.698130 -0.472285
O9    O     O_R   0.851560 0.501090 0.801870 -0.480228
O10   O     O_R   0.649530 0.148440 0.698130 -0.477638
O11   O     O_R   0.350470 0.498910 0.301870 -0.467880
O12   O     O_R   0.660060 0.539130 0.694760 -0.458946
O13   O     O_R   0.501090 0.851560 0.198130 -0.486871
O14   O     O_R   0.148440 0.649530 0.301870 -0.474772
O15   O     O_R   0.350470 0.498910 0.198130 -0.484514
O16   O     O_R   0.501090 0.851560 0.301870 -0.472412
O17   O     O_R   0.148440 0.649530 0.198130 -0.483914
O18   O     O_3   0.666667 0.333333 0.750000 -0.313983
O19   O     O_3   0.333333 0.666667 0.250000 -0.326599
O20   O     O_3   0.782589 0.213351 0.047092 -0.628905
O21   O     O_3   0.168160 0.768417 0.475122 -0.672222
O22   O     O_3   0.764742 0.509781 0.065598 -0.694825
O23   O     O_R   0.879070 0.339940 0.805240 -0.479137
O24   O     O_3   0.263120 0.453801 0.476686 -0.685935
O25   O     O_3   0.431066 0.220518 0.074849 -0.666622
O26   O     O_3   0.630253 0.836807 0.477841 -0.697899
O27   O     O_3   0.212366 0.741328 0.571086 -0.686902
O28   O     O_3   0.815610 0.207189 0.948046 -0.647080
O29   O     O_3   0.616207 0.805364 0.577490 -0.653921
O30   O     O_3   0.389338 0.209703 0.973882 -0.698818
O31   O     O_3   0.232808 0.452617 0.576068 -0.686986
O32   O     O_3   0.802456 0.582984 0.968703 -0.676975
O33   O     O_R   0.460870 0.120930 0.694760 -0.453000
O34   O     O_R   0.660060 0.539130 0.805240 -0.467846
O35   O     O_R   0.879070 0.339940 0.694760 -0.460671
O36   O     O_R   0.120930 0.460870 0.305240 -0.467580
O37   O     O_R   0.539130 0.660060 0.194760 -0.458054
O38   O     O_R   0.339940 0.879070 0.305240 -0.468458

loop_
_geom_bond_atom_site_label_1
_geom_bond_atom_site_label_2
_ccdc_geom_bond_type
C3    C104  A    
C12   O16   A    
C32   O7    A    
C32   O1    A    
C35   C74   A    
C89   C102  A    
C45   C71   A    
C11   O32   S    
C91   C104  A    
C58   C87   S    
C15   C94   A    
C91   I21   S    
C88   C101  A    
C64   C83   A    
C44   C64   A    
C22   C101  A    
C46   C62   A    
C18   C24   A    
C84   C97   A    
C4    O25   S    
C76   O11   A    
C28   C68   A    
C8    C99   A    
Cr5   O3    S    
C43   O12   A    
C87   O4    A    
C83   I29   S    
C1    O5    A    
C33   I14   S    
C29   I17   S    
C4    C103  A    
C101  C106  A    
C33   C36   A    
C30   C38   A    
Cr3   O10   S    
C59   C89   A    
H9    O26   S    
C106  O20   S    
C21   C64   S    
C90   I22   S    
Cr1   O5    S    
C33   C72   A    
H7    O24   S    
C84   I28   S    
Cr5   O19   S    
C52   I23   S    
C6    C94   A    
C40   C67   A    
C9    C97   A    
C6    C107  A    
C37   I9    S    
C7    O28   S    
C44   C70   A    
H11   O28   S    
C51   C57   A    
C2    O15   A    
C10   C96   A    
C52   C79   A    
C86   C100  A    
C14   C93   A    
C46   C72   A    
C18   C97   A    
Cr5   O13   S    
C82   I30   S    
Cr2   O9    S    
C31   C71   A    
Cr5   O16   S    
H2    O30   S    
C28   C34   A    
C17   C70   A    
Cr6   O38   S    
C6    O27   S    
C19   C72   A    
C15   C20   A    
Cr2   O6    S    
C7    C93   A    
C36   I10   S    
C26   C105  A    
Cr4   O36   S    
H10   O27   S    
C30   C70   A    
C43   O8    A    
Cr6   O4    S    
C41   C68   A    
C29   C69   A    
Cr2   O12   S    
C16   C26   A    
C48   C53   A    
Cr4   O2    S    
C62   C85   A    
Cr3   O23   S    
C98   O36   A    
C65   O10   A    
C92   I20   S    
C25   C78   A    
C50   C58   A    
C48   C74   A    
C1    O34   A    
C27   C67   A    
C47   C73   A    
Cr1   O1    S    
C10   O31   S    
C23   C75   A    
C61   C80   A    
C108  O22   S    
C85   I27   S    
C38   C78   A    
C27   C35   A    
C44   I3    S    
C81   I25   S    
C37   C77   A    
C51   I31   S    
C42   C69   A    
C50   I32   S    
C40   C61   A    
C31   C37   A    
C107  O21   S    
Cr3   O7    S    
C39   C79   A    
C31   I15   S    
C19   C23   A    
C13   C53   S    
C85   C99   A    
C36   C75   A    
C66   C82   A    
C41   I34   S    
C98   O14   A    
C60   C81   A    
C24   C77   A    
C20   C100  A    
Cr2   O18   S    
C14   C67   A    
C29   C39   A    
C49   C75   A    
C1    C66   S    
Cr5   O37   S    
C7    C106  A    
C76   O3    A    
C42   I4    S    
C17   C96   A    
H5    O21   S    
C105  C108  A    
C58   C90   A    
C89   I24   S    
C12   O38   A    
C60   C65   S    
Cr2   O34   S    
Cr3   O18   S    
C27   I13   S    
C22   C74   A    
C9    O30   S    
C3    O24   S    
C35   I5    S    
C11   C108  A    
H1    O20   S    
Cr1   O8    S    
C13   O2    A    
C47   C55   A    
C39   I7    S    
C11   C95   A    
C18   C71   A    
C80   I26   S    
C5    C102  A    
C100  C107  A    
C19   C99   A    
C82   C95   A    
C57   C91   A    
C21   O6    A    
C54   O9    A    
C42   C66   A    
C28   I11   S    
C41   C60   A    
C21   O35   A    
C30   I16   S    
C5    C8    A    
C45   I2    S    
C25   C104  A    
Cr4   O19   S    
C54   C61   S    
C32   C63   S    
Cr6   O19   S    
C87   O13   A    
C16   C69   A    
C15   C68   A    
C26   C79   A    
C49   C59   A    
C63   C84   A    
C24   C103  A    
C17   C25   A    
C14   C22   A    
C55   C86   A    
C80   C93   A    
C51   C78   A    
C40   I35   S    
C3    C10   A    
C13   O17   A    
Cr3   O35   S    
C48   I1    S    
C81   C94   A    
C16   C95   A    
Cr1   O18   S    
H8    O25   S    
C2    O37   A    
C83   C96   A    
C59   C76   S    
C47   I12   S    
Cr6   O14   S    
C45   C63   A    
C20   C73   A    
Cr1   O33   S    
C53   C88   A    
C38   I8    S    
H12   O29   S    
H4    O32   S    
C57   C98   S    
C90   C103  A    
C12   C55   S    
H3    O31   S    
C34   C73   A    
C34   I6    S    
C23   C102  A    
C92   C105  A    
C56   C92   A    
Cr6   O17   S    
C46   I36   S    
C50   C77   A    
C86   I19   S    
H6    O22   S    
C49   I33   S    
C2    C56   S    
C8    O29   S    
C5    O26   S    
C4    C9    A    
C54   O23   A    
C88   I18   S    
C52   C56   A    
C43   C62   S    
Cr4   O11   S    
Cr4   O15   S    
C65   O33   A    
