data_mof_unit_46495.cif
_audit_creation_date              2012-12-10T17:35:04-0500
_audit_creation_method            fapswitch 2.2
_symmetry_space_group_name_H-M    P1
_symmetry_Int_Tables_number       1
_space_group_crystal_system       triclinic
_cell_length_a                    12.448339
_cell_length_b                    13.19291
_cell_length_c                    13.804985
_cell_angle_alpha                 108.210594
_cell_angle_beta                  74.445861
_cell_angle_gamma                 117.93587
_cell_volume                      1882.55184947

loop_
_atom_site_label
_atom_site_type_symbol
_atom_type_description
_atom_site_fract_x
_atom_site_fract_y
_atom_site_fract_z
_atom_type_partial_charge
C1    C     C_R   0.143981 0.714042 0.509157 0.832032
C2    C     C_1   0.974097 0.506906 0.792048 0.005409
C3    C     C_R   0.712939 0.986059 0.319546 -0.173038
C4    C     C_R   0.773399 0.161309 0.455590 -0.118286
C5    C     C_R   0.186618 0.922397 0.590518 -0.201331
C6    C     C_R   0.268027 0.040967 0.611641 0.407088
C7    C     C_R   0.390306 0.075806 0.565287 -0.181779
C8    C     C_R   0.432771 0.992758 0.498295 0.090627
C9    C     C_R   0.345070 0.878323 0.462483 0.123892
C10   C     C_R   0.558989 0.021978 0.460743 0.021023
C11   C     C_R   0.591077 0.949949 0.368163 0.085287
C12   C     C_R   0.983575 0.503680 0.686205 0.866179
C13   C     C_R   0.500843 0.843468 0.324543 -0.167745
C14   C     C_R   0.379751 0.806065 0.372936 -0.121992
C15   C     C_R   0.654934 0.119115 0.511505 0.330534
C16   C     C_R   0.801946 0.094239 0.360195 -0.187149
C17   C     C_R   0.224933 0.839874 0.517481 -0.129406
C18   C     C_R   0.601289 0.593960 0.700675 -0.149297
C19   C     C_R   0.283025 0.400391 0.339883 0.495972
C20   C     C_R   0.405815 0.457176 0.295687 0.309705
C21   C     C_R   0.495471 0.518365 0.360912 -0.179578
C22   C     C_R   0.463384 0.510023 0.464388 -0.080133
C23   C     C_R   0.855981 0.285558 0.484170 0.896419
C24   C     C_R   0.341327 0.493808 0.507522 0.075008
C25   C     C_R   0.548737 0.529852 0.528129 -0.111997
C26   C     C_R   0.511707 0.548393 0.635978 -0.005674
C27   C     C_R   0.388167 0.530784 0.675852 -0.149998
C28   C     C_R   0.323342 0.543711 0.614766 0.365286
C29   C     C_R   0.661425 0.515966 0.490706 0.532733
C30   C     C_R   0.720969 0.608089 0.658902 0.034643
C31   C     C_R   0.014370 0.493556 0.313501 0.796426
C32   C     C_1   0.012947 0.476323 0.206769 -0.027573
C33   C     C_2   0.993992 0.436986 0.011550 -0.082059
C34   C     C_2   0.966202 0.511324 0.985735 -0.206695
C35   C     C_1   0.968153 0.509253 0.880824 0.138238
C36   C     C_1   0.005908 0.458428 0.117536 0.036901
Cu1   Cu    Cu3+1 0.899780 0.525060 0.522890 1.052219
Cu2   Cu    Cu3+1 0.100220 0.474940 0.477110 1.078500
H1    H     H_    0.950906 0.582364 0.044534 0.182247
H2    H     H_    0.313036 0.721955 0.337943 0.141879
H3    H     H_    0.788482 0.644460 0.710172 0.159632
H4    H     H_    0.581184 0.623046 0.783121 0.188261
H5    H     H_    0.589914 0.564333 0.329588 0.225058
H6    H     H_    0.891622 0.127300 0.315092 0.232677
H7    H     H_    0.524473 0.787632 0.254226 0.186606
H8    H     H_    0.737813 0.933992 0.246948 0.177982
H9    H     H_    0.094052 0.894139 0.632106 0.194286
H10   H     H_    0.451039 0.168179 0.580136 0.200739
N1    N     N_R   0.748810 0.563010 0.557590 -0.240662
N2    N     N_R   0.250540 0.437620 0.443020 -0.271679
O1    O     O_R   0.025040 0.682470 0.528790 -0.601810
O2    O     O_R   0.194310 0.640150 0.490130 -0.525794
O3    O     O_R   0.903380 0.524130 0.659910 -0.591386
O4    O     O_R   0.072660 0.481800 0.621240 -0.548851
O5    O     O_R   0.805690 0.359850 0.509870 -0.501277
O6    O     O_R   0.974960 0.317530 0.471210 -0.531402
O7    O     O_R   0.927340 0.518200 0.378760 -0.512923
O8    O     O_R   0.096620 0.475870 0.340090 -0.578931
C37   C     C_2   0.336536 0.526054 0.785639 0.939350
O9    O     O_2   0.369484 0.482287 0.831627 -0.508696
O10   O     O_R   0.248362 0.569524 0.836078 -0.722059
H11   H     H_    0.226634 0.567937 0.911905 0.330134
S1    S     S_3+6 0.669808 0.415809 0.365969 0.030491
O11   O     O_2   0.542330 0.333769 0.340918 -0.270547
O12   O     O_2   0.738697 0.487168 0.284913 -0.309291
O13   O     O_3   0.734541 0.325120 0.351898 -0.529854
H12   H     H_    0.735031 0.283346 0.278476 0.368903
S2    S     S_3+6 0.183584 0.262826 0.273494 0.077122
O14   O     O_2   0.104129 0.187363 0.349893 -0.299900
O15   O     O_2   0.104243 0.277428 0.218688 -0.277227
O16   O     O_3   0.266031 0.194852 0.186591 -0.441692
H13   H     H_    0.204284 0.119301 0.153273 0.383628
S3    S     S_3+6 0.451304 0.452300 0.162186 0.089449
O17   O     O_2   0.344255 0.422320 0.111333 -0.199136
O18   O     O_2   0.550415 0.570204 0.146311 -0.318573
O19   O     O_3   0.507709 0.350498 0.108993 -0.415759
H14   H     H_    0.533101 0.353487 0.035150 0.388845
S4    S     S_3+6 0.349494 0.695082 0.648844 0.064429
O20   O     O_2   0.231230 0.708729 0.686338 -0.263047
O21   O     O_2   0.427956 0.763424 0.733720 -0.248398
O22   O     O_3   0.425272 0.754945 0.546040 -0.519025
H15   H     H_    0.511079 0.766366 0.540209 0.353274
C38   C     C_2   0.013797 0.335443 0.937166 0.944483
O23   O     O_2   0.062275 0.286975 0.961817 -0.473276
O24   O     O_R   0.974799 0.293044 0.840494 -0.712281
H16   H     H_    0.991665 0.222675 0.798227 0.401329
S5    S     S_3+6 0.640084 0.169125 0.648531 0.021320
O25   O     O_2   0.755650 0.193977 0.684396 -0.268513
O26   O     O_2   0.622097 0.280638 0.679632 -0.287542
O27   O     O_3   0.521012 0.065818 0.705793 -0.465554
H17   H     H_    0.511571 0.105139 0.779484 0.401678
S6    S     S_3+6 0.219966 0.145650 0.700843 0.056272
O28   O     O_2   0.102407 0.085367 0.767155 -0.243611
O29   O     O_2   0.317248 0.229126 0.768231 -0.190841
O30   O     O_3   0.196768 0.221656 0.636932 -0.510094
H18   H     H_    0.277959 0.261423 0.597335 0.339163

loop_
_geom_bond_atom_site_label_1
_geom_bond_atom_site_label_2
_ccdc_geom_bond_type
C2    C35   T    
S5    O25   D    
S1    O12   D    
S3    O17   D    
O30   H18   S    
C18   C26   A    
C2    C12   S    
C29   S1    S    
O22   H15   S    
C7    C8    A    
C29   N1    A    
O24   H16   S    
C5    H9    S    
C26   C27   A    
C38   O23   D    
C32   C36   T    
C31   O8    A    
C10   C15   A    
C18   H4    S    
C5    C6    A    
Cu1   O1    S    
S4    O21   D    
C5    C17   A    
C33   C36   S    
C34   C35   S    
Cu2   O8    S    
C19   C20   A    
C8    C9    A    
C22   C25   A    
C30   H3    S    
C18   C30   A    
C28   S4    S    
C16   H6    S    
C12   O3    A    
Cu1   O3    S    
O13   H12   S    
S1    O13   S    
C37   O9    D    
C21   H5    S    
C13   C14   A    
C25   C29   A    
S3    O18   D    
C24   N2    A    
C37   O10   S    
C34   H1    S    
C23   O6    A    
O19   H14   S    
C4    C23   S    
S4    O20   D    
S2    O14   D    
C25   C26   A    
S6    O30   S    
C4    C16   A    
C9    C14   A    
Cu1   Cu2   S    
Cu1   N1    S    
C31   C32   S    
Cu2   O4    S    
S6    O29   D    
C33   C34   D    
Cu2   O6    S    
C19   S2    S    
C33   C38   S    
C9    C17   A    
C38   O24   S    
C30   N1    A    
S5    O26   D    
S3    O19   S    
C22   C24   A    
C19   N2    A    
C15   S5    S    
C24   C28   A    
C23   O5    A    
C6    C7    A    
Cu2   N2    S    
C3    H8    S    
C1    C17   S    
C1    O1    A    
C7    H10   S    
C31   O7    A    
C4    C15   A    
O16   H13   S    
C27   C37   S    
C13   H7    S    
C11   C13   A    
S4    O22   S    
O27   H17   S    
S2    O16   S    
C6    S6    S    
S6    O28   D    
C20   S3    S    
O10   H11   S    
C1    O2    A    
Cu1   O7    S    
C3    C11   A    
C10   C11   A    
C14   H2    S    
S1    O11   D    
Cu1   O5    S    
Cu2   O2    S    
C20   C21   A    
C8    C10   A    
S5    O27   S    
C27   C28   A    
S2    O15   D    
C21   C22   A    
C12   O4    A    
C3    C16   A    
