data_mof_unit_35772.cif
_audit_creation_date              2012-10-26T20:43:01-0400
_audit_creation_method            fapswitch 2.2
_symmetry_space_group_name_H-M    P1
_symmetry_Int_Tables_number       1
_space_group_crystal_system       triclinic
_cell_length_a                    10.843306
_cell_length_b                    9.61035
_cell_length_c                    15.079179
_cell_angle_alpha                 90.0
_cell_angle_beta                  93.138406
_cell_angle_gamma                 89.999989
_cell_volume                      1569.01382249

loop_
_atom_site_label
_atom_site_type_symbol
_atom_type_description
_atom_site_fract_x
_atom_site_fract_y
_atom_site_fract_z
_atom_type_partial_charge
C1    C     C_R   0.262624 0.500000 0.503425 0.529725
C2    C     C_R   0.129018 0.500000 0.509099 0.012119
C3    C     C_R   0.426293 0.074728 0.439296 0.218620
C4    C     C_R   0.582966 0.925228 0.554237 0.218453
C5    C     C_R   0.582967 0.074772 0.554237 0.218453
C6    C     C_R   0.426293 0.925272 0.439296 0.218620
C7    C     C_R   0.499910 0.500000 0.328664 0.544645
C8    C     C_R   0.494074 0.500000 0.670972 0.529536
C9    C     C_R   0.476177 0.626162 0.813741 -0.147055
C10   C     C_R   0.495646 0.373583 0.184817 -0.138254
C11   C     C_R   0.482110 0.500000 0.767426 -0.023108
C12   C     C_R   0.737765 0.500000 0.501178 0.544251
C13   C     C_R   0.497713 0.500000 0.231451 -0.014553
C14   C     C_R   0.476181 0.373838 0.813741 -0.147054
C15   C     C_R   0.495642 0.626417 0.184817 -0.138254
C16   C     C_R   0.477498 0.372668 0.906178 0.012346
C17   C     C_R   0.488685 0.627414 0.092278 0.010403
C18   C     C_R   0.480058 0.500000 0.952708 0.062608
C19   C     C_R   0.485409 0.500000 0.045786 0.060497
C20   C     C_R   0.477494 0.627331 0.906178 0.012346
C21   C     C_R   0.488689 0.372585 0.092278 0.010403
C22   C     C_R   0.478828 0.246460 0.952864 -0.135609
C23   C     C_R   0.484802 0.246417 0.045486 -0.134925
C24   C     C_R   0.484794 0.753582 0.045486 -0.134925
C25   C     C_3   0.234756 0.166923 0.366665 -0.267140
C26   C     C_3   0.680980 0.833450 0.693210 -0.266472
C27   C     C_3   0.680986 0.166552 0.693207 -0.266471
C28   C     C_3   0.234755 0.833078 0.366667 -0.267139
C29   C     C_R   0.478820 0.753539 0.952863 -0.135609
C30   C     C_R   0.064487 0.374071 0.511373 -0.149845
C31   C     C_R   0.936735 0.626103 0.507703 -0.139352
C32   C     C_R   0.936735 0.373896 0.507702 -0.139352
C33   C     C_R   0.064487 0.625929 0.511374 -0.149845
C34   C     C_R   0.871995 0.500000 0.504819 0.021901
Cu1   Cu    Cu3+1 0.500000 0.640660 0.500000 0.983776
Cu2   Cu    Cu3+1 0.500000 0.359340 0.500000 0.983776
H1    H     H_    0.471138 0.276415 0.778145 0.117028
H2    H     H_    0.499736 0.275756 0.220256 0.121252
H3    H     H_    0.486761 0.147882 0.080502 0.096679
H4    H     H_    0.476842 0.852026 0.917787 0.096888
H5    H     H_    0.397183 0.119856 0.305678 0.212524
H6    H     H_    0.188982 0.117717 0.307025 0.103571
H7    H     H_    0.213064 0.279441 0.362260 0.169018
H8    H     H_    0.196172 0.121985 0.426919 0.122657
H9    H     H_    0.768288 0.880011 0.577417 0.212060
H10   H     H_    0.763180 0.882955 0.726906 0.103587
H11   H     H_    0.687261 0.721087 0.709203 0.168892
H12   H     H_    0.499730 0.724244 0.220256 0.121252
H13   H     H_    0.596382 0.878165 0.719924 0.122815
H14   H     H_    0.768290 0.119986 0.577413 0.212059
H15   H     H_    0.596390 0.121836 0.719923 0.122815
H16   H     H_    0.687266 0.278916 0.709199 0.168892
H17   H     H_    0.763188 0.117049 0.726902 0.103587
H18   H     H_    0.397180 0.880143 0.305678 0.212525
H19   H     H_    0.188980 0.882284 0.307028 0.103571
H20   H     H_    0.196172 0.878014 0.426922 0.122657
H21   H     H_    0.213062 0.720559 0.362261 0.169018
H22   H     H_    0.476854 0.147974 0.917788 0.096888
H23   H     H_    0.486749 0.852117 0.080502 0.096678
H24   H     H_    0.112232 0.275724 0.515921 0.117916
H25   H     H_    0.889250 0.724895 0.506406 0.121987
H26   H     H_    0.889250 0.275104 0.506402 0.121988
H27   H     H_    0.112233 0.724275 0.515924 0.117916
H28   H     H_    0.471130 0.723584 0.778145 0.117028
N1    N     N_R   0.500000 0.852070 0.500000 -0.219704
N2    N     N_R   0.500000 0.147930 0.500000 -0.219704
N3    N     N_2   0.367100 0.147919 0.366772 -0.455968
N4    N     N_2   0.682810 0.851917 0.598057 -0.456059
N5    N     N_2   0.682813 0.148082 0.598054 -0.456060
N6    N     N_2   0.367099 0.852080 0.366773 -0.455969
O1    O     O_R   0.319640 0.618740 0.499990 -0.496001
O2    O     O_R   0.680360 0.381260 0.500010 -0.483270
O3    O     O_R   0.680360 0.618740 0.500010 -0.483271
O4    O     O_R   0.319640 0.381260 0.499990 -0.496001
O5    O     O_R   0.499970 0.618800 0.370260 -0.480866
O6    O     O_R   0.500030 0.381200 0.629740 -0.493765
O7    O     O_R   0.500030 0.618800 0.629740 -0.493764
O8    O     O_R   0.499970 0.381200 0.370260 -0.480865

loop_
_geom_bond_atom_site_label_1
_geom_bond_atom_site_label_2
_ccdc_geom_bond_type
C9    H28   S    
C31   H25   S    
Cu1   Cu2   S    
C25   N3    S    
C3    C6    A    
C25   H7    S    
C28   H20   S    
H5    N3    S    
C28   H21   S    
Cu1   O5    S    
C1    O1    A    
C1    O4    A    
C19   C21   A    
H14   N5    S    
C18   C19   A    
C8    C11   S    
C4    N1    A    
C11   C14   A    
Cu2   N2    S    
Cu1   N1    S    
C8    O6    A    
C6    N6    S    
C1    C2    S    
C24   C29   A    
C5    N5    S    
Cu2   O6    S    
C6    N1    A    
C30   H24   S    
C31   C33   A    
C27   N5    S    
C12   O2    A    
Cu1   O1    S    
C12   O3    A    
C15   H12   S    
C25   H8    S    
C28   H19   S    
C27   H15   S    
C20   C29   A    
C10   C21   A    
C28   N6    S    
C17   C24   A    
C26   H13   S    
C4    N4    S    
C4    C5    A    
C7    O5    A    
Cu1   O7    S    
C32   C34   A    
C9    C20   A    
H18   N6    S    
C33   H27   S    
H9    N4    S    
C31   C34   A    
C9    C11   A    
Cu2   O4    S    
C26   H11   S    
C7    O8    A    
C2    C33   A    
C13   C15   A    
C8    O7    A    
C14   C16   A    
C3    N2    A    
C12   C34   S    
C27   H16   S    
C15   C17   A    
Cu1   O3    S    
C16   C22   A    
C3    N3    S    
C5    N2    A    
C10   C13   A    
C25   H6    S    
C22   H22   S    
C27   H17   S    
C2    C30   A    
C10   H2    S    
C26   N4    S    
C21   C23   A    
C32   H26   S    
Cu2   O8    S    
C14   H1    S    
C30   C32   A    
C24   H23   S    
C23   H3    S    
C29   H4    S    
C17   C19   A    
C18   C20   A    
C26   H10   S    
C7    C13   S    
C16   C18   A    
C22   C23   A    
Cu2   O2    S    
