data_mof_unit_6594.cif
_audit_creation_date              2012-12-10T17:23:11-0500
_audit_creation_method            fapswitch 2.2
_symmetry_space_group_name_H-M    P1
_symmetry_Int_Tables_number       1
_space_group_crystal_system       triclinic
_cell_length_a                    15.838084
_cell_length_b                    10.840206
_cell_length_c                    9.609193
_cell_angle_alpha                 88.775809
_cell_angle_beta                  90.515644
_cell_angle_gamma                 93.328161
_cell_volume                      1646.57581902

loop_
_atom_site_label
_atom_site_type_symbol
_atom_type_description
_atom_site_fract_x
_atom_site_fract_y
_atom_site_fract_z
_atom_type_partial_charge
C1    C     C_R   0.507304 0.263008 0.502272 0.821695
C2    C     C_3   0.082893 0.494462 0.502423 0.048467
C3    C     C_3   0.975653 0.607815 0.535798 -0.336463
C4    C     C_3   0.916428 0.493762 0.503912 0.045286
C5    C     C_3   0.030242 0.578782 0.407812 -0.233569
C6    C     C_3   0.970355 0.464724 0.378587 0.524603
C7    C     C_1   0.174610 0.495920 0.499995 0.037726
C8    C     C_1   0.824780 0.492994 0.503423 0.047460
C9    C     C_R   0.517877 0.105701 0.771605 0.583227
C10   C     C_R   0.476536 0.046018 0.884401 -0.166698
C11   C     C_R   0.429401 0.935305 0.865949 -0.233574
C12   C     C_R   0.339980 0.499009 0.499534 0.793880
C13   C     C_R   0.430405 0.877452 0.737985 -0.128264
C14   C     C_R   0.474391 0.934327 0.624003 0.023520
C15   C     C_R   0.504224 0.058727 0.634560 -0.086008
C16   C     C_R   0.517180 0.128722 0.508227 -0.231689
C17   C     C_R   0.526740 0.066080 0.382239 0.468762
C18   C     C_R   0.514199 0.938712 0.380204 -0.251282
C19   C     C_R   0.489632 0.871528 0.499844 -0.167261
C20   C     C_R   0.589815 0.700764 0.130078 0.529799
C21   C     C_R   0.600454 0.808678 0.046115 -0.369333
C22   C     C_R   0.604155 0.797472 0.903319 -0.209936
C23   C     C_R   0.494002 0.737035 0.499265 0.845618
C24   C     C_R   0.601966 0.678493 0.851781 0.124834
C25   C     C_R   0.549833 0.587906 0.923058 -0.071250
C26   C     C_R   0.546675 0.593299 0.071684 0.070289
C27   C     C_R   0.454180 0.413737 0.075692 -0.130019
C28   C     C_R   0.451068 0.416394 0.926862 0.625947
C29   C     C_R   0.659825 0.497548 0.500704 0.843581
C30   C     C_3   0.969843 0.411728 0.596772 0.447217
C31   C     C_3   0.023508 0.379257 0.470230 -0.354998
C32   C     C_1   0.250234 0.497409 0.498947 -0.162105
C33   C     C_1   0.749292 0.494111 0.502433 -0.169503
C34   C     C_3   0.029465 0.524372 0.629326 0.011957
Cu1   Cu    Cu3+1 0.499990 0.499990 0.640660 1.017144
Cu2   Cu    Cu3+1 0.500010 0.500010 0.359340 0.995215
H1    H     H_    0.044095 0.286854 0.442444 0.142543
H2    H     H_    0.396503 0.890354 0.953136 0.167253
H3    H     H_    0.395495 0.789217 0.728731 0.167978
H4    H     H_    0.523725 0.892674 0.283656 0.186528
H5    H     H_    0.418218 0.342162 0.133272 0.158958
H6    H     H_    0.621889 0.895837 0.090905 0.175610
H7    H     H_    0.631533 0.874724 0.842549 0.185777
H8    H     H_    0.056331 0.647116 0.329488 0.150125
H9    H     H_    0.954781 0.700242 0.563008 0.181199
H10   H     H_    0.482529 0.084571 0.987259 0.194938
N1    N     N_R   0.500800 0.501210 0.147910 -0.205600
N2    N     N_R   0.500830 0.501290 0.852040 -0.213288
O1    O     O_R   0.499990 0.319640 0.618810 -0.496150
O2    O     O_R   0.500000 0.319660 0.381240 -0.547703
O3    O     O_R   0.379070 0.499980 0.618770 -0.552989
O4    O     O_R   0.379080 0.500000 0.381190 -0.593139
O5    O     O_R   0.500000 0.680340 0.618760 -0.593412
O6    O     O_R   0.500010 0.680360 0.381190 -0.542664
O7    O     O_R   0.620920 0.500000 0.618810 -0.591581
O8    O     O_R   0.620930 0.500020 0.381230 -0.525218
O9    O     O_3   0.631653 0.698805 0.256525 -0.542988
C35   C     C_3   0.720078 0.714015 0.236135 -0.292210
H11   H     H_    0.739443 0.807693 0.194443 0.147968
H12   H     H_    0.742681 0.641505 0.167495 0.167705
H13   H     H_    0.752300 0.705280 0.338303 0.193233
C36   C     C_2   0.685988 0.644044 0.805049 0.387252
H14   H     H_    0.707443 0.552838 0.830685 0.078577
O10   O     O_2   0.732453 0.716862 0.738422 -0.576358
O11   O     O_3   0.402236 0.328391 0.855292 -0.552293
C37   C     C_3   0.316180 0.335813 0.889092 -0.331824
H15   H     H_    0.277350 0.284447 0.810338 0.196918
H16   H     H_    0.296443 0.432895 0.886330 0.190571
H17   H     H_    0.302106 0.291180 0.992039 0.141706
O12   O     O_3   0.931967 0.329495 0.696923 -0.582991
C38   C     C_3   0.992053 0.248484 0.747469 -0.338651
H18   H     H_    0.050199 0.299038 0.787131 0.163299
H19   H     H_    0.008271 0.182764 0.666005 0.173151
H20   H     H_    0.963902 0.193382 0.835808 0.189291
O13   O     O_3   0.932810 0.434833 0.248970 -0.578335
C39   C     C_3   0.996542 0.415127 0.151945 -0.313464
H21   H     H_    0.034972 0.336892 0.185215 0.157047
H22   H     H_    0.037828 0.500321 0.133636 0.164816
H23   H     H_    0.966044 0.390547 0.051100 0.199093
C40   C     C_2   0.060347 0.558491 0.771999 0.340061
H24   H     H_    0.015082 0.577338 0.851710 0.077431
O14   O     O_2   0.135809 0.564946 0.799427 -0.571658
O15   O     O_3   0.545826 0.128121 0.258229 -0.579800
C41   C     C_3   0.634302 0.150435 0.251060 -0.286318
H25   H     H_    0.667524 0.062694 0.256813 0.143915
H26   H     H_    0.658087 0.213502 0.334426 0.156688
H27   H     H_    0.649891 0.196319 0.149445 0.200732
O16   O     O_3   0.573481 0.205360 0.800826 -0.561751
C42   C     C_3   0.656855 0.175024 0.772313 -0.324221
H28   H     H_    0.666109 0.159894 0.659565 0.154963
H29   H     H_    0.674621 0.092975 0.835090 0.150864
H30   H     H_    0.700571 0.253897 0.802167 0.204141

loop_
_geom_bond_atom_site_label_1
_geom_bond_atom_site_label_2
_ccdc_geom_bond_type
C37   H16   S    
Cu1   O5    S    
C2    C7    S    
C41   H27   S    
C4    C8    S    
C6    O13   S    
C39   H22   S    
C9    O16   S    
C30   C31   S    
C37   H17   S    
C35   H12   S    
C15   C16   A    
C29   C33   S    
Cu2   N1    S    
C18   C19   A    
C18   H4    S    
C36   O10   D    
C30   O12   S    
C41   H25   S    
O15   C41   S    
C16   C17   A    
Cu1   O1    S    
C39   H23   S    
O12   C38   S    
C42   H29   S    
C1    O2    A    
Cu2   O4    S    
C34   C40   S    
O16   C42   S    
C2    C34   S    
C35   H13   S    
C6    C31   S    
C21   C22   A    
C12   C32   S    
Cu1   N2    S    
C12   O4    A    
C23   O5    A    
C30   C34   S    
Cu1   O7    S    
C24   C25   A    
C40   O14   D    
C38   H19   S    
C29   O7    A    
C3    C34   S    
C35   H11   S    
C3    H9    S    
C31   H1    S    
C2    C31   S    
C17   O15   S    
Cu1   Cu2   S    
C11   H2    S    
C19   C23   S    
O13   C39   S    
C10   H10   S    
C36   H14   S    
Cu2   O8    S    
C27   H5    S    
C22   H7    S    
C17   C18   A    
C1    C16   S    
C39   H21   S    
C42   H30   S    
C25   N2    A    
C26   N1    A    
C4    C6    S    
C5    H8    S    
Cu1   O3    S    
C22   C24   A    
C2    C5    S    
C3    C4    S    
C42   H28   S    
C12   O3    A    
Cu2   O2    S    
C23   O6    A    
C9    C10   A    
C27   N1    A    
C28   N2    A    
C24   C36   S    
C7    C32   T    
C14   C19   A    
C41   H26   S    
C40   H24   S    
C3    C5    S    
C38   H20   S    
C29   O8    A    
C28   O11   S    
C25   C26   A    
C38   H18   S    
C11   C13   A    
O9    C35   S    
C5    C6    S    
C20   C26   A    
C37   H15   S    
C8    C33   T    
C9    C15   A    
C13   H3    S    
Cu2   O6    S    
C10   C11   A    
C21   H6    S    
C20   C21   A    
O11   C37   S    
C27   C28   A    
C14   C15   A    
C20   O9    S    
C13   C14   A    
C1    O1    A    
C4    C30   S    
