data_mof_unit_29788.cif
_audit_creation_date              2012-12-10T16:48:05-0500
_audit_creation_method            fapswitch 2.2
_symmetry_space_group_name_H-M    P1
_symmetry_Int_Tables_number       1
_space_group_crystal_system       triclinic
_cell_length_a                    15.851072
_cell_length_b                    8.68013
_cell_length_c                    7.500465
_cell_angle_alpha                 103.350421
_cell_angle_beta                  94.776666
_cell_angle_gamma                 93.015402
_cell_volume                      997.85883005

loop_
_atom_site_label
_atom_site_type_symbol
_atom_type_description
_atom_site_fract_x
_atom_site_fract_y
_atom_site_fract_z
_atom_type_partial_charge
C1    C     C_R   0.497317 0.199687 0.452965 0.872154
C2    C     C_R   0.502684 0.800313 0.547035 0.872167
C3    C     C_R   0.340115 0.499343 0.501277 0.813718
C4    C     C_R   0.659885 0.500657 0.498723 0.813721
C5    C     C_2   0.495865 0.031337 0.427013 -0.366838
C6    C     C_2   0.504136 0.968663 0.572986 -0.366859
C7    C     C_3   0.971797 0.401560 0.603396 -0.235464
C8    C     C_3   0.028203 0.598440 0.396602 -0.235447
C9    C     C_3   0.020582 0.351936 0.430203 0.155173
C10   C     C_3   0.979418 0.648064 0.569795 0.155185
C11   C     C_1   0.250715 0.499148 0.503981 -0.170920
C12   C     C_1   0.749284 0.500852 0.496018 -0.170952
C13   C     C_3   0.035137 0.549158 0.670533 0.170794
C14   C     C_3   0.964863 0.450843 0.329466 0.170802
C15   C     C_3   0.083653 0.498919 0.500852 0.093337
C16   C     C_3   0.916347 0.501082 0.499147 0.093317
C17   C     C_1   0.175255 0.498949 0.503763 -0.015953
C18   C     C_1   0.824745 0.501051 0.496236 -0.016001
Cu1   Cu    Cu3+1 0.509330 0.517380 0.684380 0.979290
Cu2   Cu    Cu3+1 0.490670 0.482620 0.315620 0.979287
H1    H     H_    0.948804 0.322682 0.689229 0.152958
H2    H     H_    0.051196 0.677318 0.310770 0.152956
H3    H     H_    0.487894 0.958730 0.286823 0.175230
H4    H     H_    0.512108 0.041270 0.713177 0.175179
N1    N     N_2   0.476600 0.456420 0.038510 0.002665
N2    N     N_2   0.523400 0.543580 0.961490 0.002644
O1    O     O_R   0.506070 0.286130 0.619780 -0.558971
O2    O     O_R   0.493930 0.713870 0.380220 -0.558924
O3    O     O_R   0.490300 0.256770 0.308360 -0.601356
O4    O     O_R   0.509700 0.743230 0.691640 -0.601357
O5    O     O_R   0.386960 0.514660 0.655680 -0.558718
O6    O     O_R   0.613040 0.485340 0.344320 -0.558780
O7    O     O_R   0.371190 0.485310 0.344260 -0.590342
O8    O     O_R   0.628810 0.514690 0.655740 -0.590336
C19   C     C_3   0.043819 0.184159 0.348819 -0.887389
H5    H     H_    0.985259 0.103345 0.308855 0.232639
H6    H     H_    0.078123 0.182718 0.225428 0.236008
H7    H     H_    0.085145 0.142839 0.452531 0.241648
C20   C     C_3   0.956178 0.815841 0.651178 -0.887385
H8    H     H_    0.014737 0.896659 0.691133 0.232632
H9    H     H_    0.914849 0.857156 0.547468 0.241647
H10   H     H_    0.921879 0.817282 0.774574 0.236016
N3    N     N_3   0.924862 0.397217 0.141622 -0.590325
H11   H     H_    0.973119 0.366520 0.056070 0.224416
H12   H     H_    0.887373 0.292867 0.134471 0.220497
N4    N     N_3   0.075137 0.602784 0.858375 -0.590345
H13   H     H_    0.026881 0.633332 0.943940 0.224438
H14   H     H_    0.112552 0.707203 0.865579 0.220517
N5    N     N_3   0.415880 0.351326 0.922420 -0.410217
H15   H     H_    0.356989 0.379850 0.968570 0.215647
H16   H     H_    0.426294 0.238489 0.942676 0.200397
N6    N     N_3   0.584137 0.648634 0.077569 -0.410294
H17   H     H_    0.643022 0.619911 0.031573 0.215663
H18   H     H_    0.573835 0.761420 0.057116 0.200431

loop_
_geom_bond_atom_site_label_1
_geom_bond_atom_site_label_2
_ccdc_geom_bond_type
C8    H2    S    
C9    C14   S    
Cu1   O8    S    
C15   C17   S    
C10   C20   S    
N2    N6    S    
C4    C12   S    
C4    O8    A    
Cu1   O1    S    
C19   H5    S    
C5    H3    S    
C2    O4    A    
C6    H4    S    
C1    O3    A    
C9    C15   S    
Cu1   O5    S    
C20   H9    S    
C10   C16   S    
C3    O5    A    
N3    H12   S    
C4    O6    A    
C8    C14   S    
C2    C6    S    
C1    C5    S    
Cu2   O7    S    
C8    C10   S    
C7    C16   S    
C19   H6    S    
N6    H18   S    
C8    C15   S    
N4    H14   S    
Cu2   O3    S    
C13   C15   S    
N3    H11   S    
C5    C6    D    
C14   C16   S    
C3    C11   S    
Cu2   N1    S    
C3    O7    A    
C9    C19   S    
C20   H8    S    
C7    C9    S    
C7    C13   S    
C19   H7    S    
N6    H17   S    
C16   C18   S    
N5    H15   S    
Cu2   O6    S    
C12   C18   T    
C13   N4    S    
C1    O1    A    
Cu1   N2    S    
C20   H10   S    
C11   C17   T    
C2    O2    A    
Cu2   O2    S    
N1    N2    D    
N4    H13   S    
Cu1   O4    S    
C10   C13   S    
Cu1   Cu2   S    
C14   N3    S    
N5    H16   S    
N1    N5    S    
C7    H1    S    
