data_mof_unit_36801.cif
_audit_creation_date              2012-12-10T17:21:39-0500
_audit_creation_method            fapswitch 2.2
_symmetry_space_group_name_H-M    P1
_symmetry_Int_Tables_number       1
_space_group_crystal_system       triclinic
_cell_length_a                    10.814605
_cell_length_b                    10.86353
_cell_length_c                    9.659166
_cell_angle_alpha                 89.721952
_cell_angle_beta                  89.022365
_cell_angle_gamma                 95.018724
_cell_volume                      1130.26689477

loop_
_atom_site_label
_atom_site_type_symbol
_atom_type_description
_atom_site_fract_x
_atom_site_fract_y
_atom_site_fract_z
_atom_type_partial_charge
C1    C     C_R   0.508194 0.263068 0.501711 0.828027
C2    C     C_3   0.877179 0.496391 0.499387 0.045751
C3    C     C_3   0.937369 0.628639 0.466152 -0.423102
C4    C     C_3   0.923176 0.407240 0.388837 -0.325390
C5    C     C_R   0.512695 0.109272 0.767559 -0.201314
C6    C     C_R   0.466320 0.044822 0.885841 0.032473
C7    C     C_R   0.405187 0.926360 0.871120 0.259436
C8    C     C_R   0.398324 0.872611 0.740488 -0.180738
C9    C     C_R   0.456484 0.933188 0.623799 0.085936
C10   C     C_R   0.495316 0.059533 0.633497 0.116241
C11   C     C_R   0.518058 0.128847 0.508582 -0.118419
C12   C     C_R   0.259942 0.500314 0.501008 0.759747
C13   C     C_R   0.537650 0.066403 0.385278 -0.133936
C14   C     C_R   0.525228 0.938478 0.382126 -0.159961
C15   C     C_R   0.484215 0.870522 0.500427 -0.102570
C16   C     C_R   0.684902 0.642020 0.145136 -0.145782
C17   C     C_R   0.795712 0.682411 0.080522 -0.165259
C18   C     C_R   0.806322 0.674589 0.939161 -0.155260
C19   C     C_R   0.700800 0.641435 0.861263 -0.008195
C20   C     C_R   0.594182 0.571770 0.924791 0.143896
C21   C     C_R   0.591569 0.570865 0.074224 0.201923
C22   C     C_R   0.414650 0.430135 0.076951 -0.028525
C23   C     C_R   0.491634 0.736546 0.499855 0.754869
C24   C     C_R   0.415004 0.428410 0.930389 0.250267
C25   C     C_R   0.739447 0.497233 0.499244 0.750809
C26   C     C_3   0.064232 0.469011 0.649212 -0.025139
C27   C     C_3   0.921603 0.456611 0.644509 -0.031617
C28   C     C_3   0.081051 0.630352 0.458152 -0.142774
C29   C     C_3   0.064606 0.400157 0.401156 -0.367244
C30   C     C_3   0.121297 0.501199 0.502021 0.003304
Cu1   Cu    Cu3+1 0.499990 0.499990 0.640660 0.981664
Cu2   Cu    Cu3+1 0.500010 0.500010 0.359340 0.958600
H1    H     H_    0.902446 0.440951 0.283442 0.222299
H2    H     H_    0.899287 0.663373 0.368807 0.180675
H3    H     H_    0.566226 0.117052 0.291955 0.178153
H4    H     H_    0.564996 0.196944 0.783775 0.187978
H5    H     H_    0.350325 0.781671 0.732463 0.189599
H6    H     H_    0.548839 0.892921 0.286981 0.181323
H7    H     H_    0.345466 0.371825 0.134609 0.177443
H8    H     H_    0.094552 0.378888 0.680751 0.198314
H9    H     H_    0.676308 0.667762 0.250774 0.191767
H10   H     H_    0.870052 0.729758 0.138492 0.185125
H11   H     H_    0.888579 0.721782 0.890759 0.179618
H12   H     H_    0.885278 0.517733 0.724087 0.169646
H13   H     H_    0.120022 0.700246 0.532957 0.112792
H14   H     H_    0.912549 0.693104 0.548857 0.138542
H15   H     H_    0.108514 0.409548 0.296345 0.233388
H16   H     H_    0.082751 0.306992 0.440265 0.173591
H17   H     H_    0.874175 0.313370 0.400415 0.177895
N1    N     N_R   0.501200 0.501210 0.147910 -0.218229
N2    N     N_R   0.501250 0.501290 0.852040 -0.219653
O1    O     O_R   0.499990 0.319640 0.618810 -0.570509
O2    O     O_R   0.500000 0.319660 0.381240 -0.571901
O3    O     O_R   0.317680 0.499970 0.618790 -0.537872
O4    O     O_R   0.317700 0.499990 0.381210 -0.573294
O5    O     O_R   0.500000 0.680340 0.618760 -0.582762
O6    O     O_R   0.500010 0.680360 0.381190 -0.597220
O7    O     O_R   0.682300 0.500010 0.618790 -0.602653
O8    O     O_R   0.682320 0.500030 0.381210 -0.604196
I1    I     I_    0.121331 0.598565 0.811814 -0.348158
C31   C     C_2   0.132176 0.674659 0.318402 0.416306
H18   H     H_    0.208441 0.746374 0.313950 0.098325
O9    O     O_2   0.091196 0.629956 0.211012 -0.511162
C32   C     C_2   0.478348 0.107793 0.020737 0.351571
H19   H     H_    0.555285 0.176958 0.037310 0.062133
O10   O     O_2   0.398271 0.090107 0.110881 -0.522803
I2    I     I_    0.343451 0.812728 0.041675 -0.263449
C33   C     C_2   0.695287 0.733880 0.751505 0.463638
H20   H     H_    0.727477 0.717658 0.647480 0.043851
O11   O     O_2   0.666089 0.836729 0.780598 -0.551468
I3    I     I_    0.282077 0.297320 0.845935 -0.304622
I4    I     I_    0.848267 0.272227 0.707481 -0.391739

loop_
_geom_bond_atom_site_label_1
_geom_bond_atom_site_label_2
_ccdc_geom_bond_type
C2    C4    S    
C27   I4    S    
C26   C30   S    
C16   C21   A    
Cu1   O5    S    
C20   N2    A    
C9    C10   A    
C4    H17   S    
C3    H14   S    
C4    C29   S    
C1    C11   S    
Cu1   O1    S    
C22   N1    A    
C2    C27   S    
C26   H8    S    
C28   C31   S    
C24   N2    A    
C15   C23   S    
C17   C18   A    
C9    C15   A    
C23   O5    A    
Cu1   Cu2   S    
C13   C14   A    
C32   H19   S    
C11   C13   A    
Cu2   N1    S    
C26   C27   S    
C29   C30   S    
Cu2   O6    S    
C29   H15   S    
Cu2   O4    S    
C5    C6    A    
C22   H7    S    
C16   H9    S    
Cu1   O7    S    
C28   C30   S    
C21   N1    A    
C13   H3    S    
C2    C25   S    
C2    C3    S    
C10   C11   A    
Cu1   O3    S    
C31   H18   S    
C1    O1    A    
C22   C24   A    
C28   H13   S    
C12   O4    A    
C14   H6    S    
C25   O7    A    
C4    H1    S    
C29   H16   S    
C7    I2    S    
C5    H4    S    
Cu2   O2    S    
C5    C10   A    
C16   C17   A    
C20   C21   A    
C24   I3    S    
C33   O11   D    
C18   C19   A    
C8    H5    S    
C6    C32   S    
C23   O6    A    
C7    C8    A    
C1    O2    A    
C17   H10   S    
C3    C28   S    
C14   C15   A    
C25   O8    A    
Cu2   O8    S    
C12   C30   S    
C3    H2    S    
C18   H11   S    
C26   I1    S    
C27   H12   S    
C33   H20   S    
C31   O9    D    
C12   O3    A    
C6    C7    A    
C19   C20   A    
C19   C33   S    
Cu1   N2    S    
C8    C9    A    
C32   O10   D    
