data_mof_unit_40711.cif
_audit_creation_date              2012-12-11T14:50:39-0500
_audit_creation_method            fapswitch 2.2
_symmetry_space_group_name_H-M    P1
_symmetry_Int_Tables_number       1
_space_group_crystal_system       triclinic
_cell_length_a                    20.785335
_cell_length_b                    7.420664
_cell_length_c                    20.106838
_cell_angle_alpha                 89.986021
_cell_angle_beta                  101.586024
_cell_angle_gamma                 89.98286
_cell_volume                      3038.1070342

loop_
_atom_site_label
_atom_site_type_symbol
_atom_type_description
_atom_site_fract_x
_atom_site_fract_y
_atom_site_fract_z
_atom_type_partial_charge
O1    O     O_R   0.423690 0.494470 0.435930 -0.510003
O2    O     O_R   0.576310 0.994470 0.564070 -0.510147
O3    O     O_R   0.556070 0.822310 0.435760 -0.548435
O4    O     O_R   0.443930 0.322310 0.564240 -0.548663
C1    C     C_R   0.575173 0.657639 0.421485 0.727436
C2    C     C_R   0.424839 0.157641 0.578529 0.726596
O5    O     O_R   0.422940 0.824080 0.428040 -0.535793
O6    O     O_R   0.577060 0.324080 0.571960 -0.536643
O7    O     O_R   0.442240 0.995960 0.556300 -0.503551
O8    O     O_R   0.557760 0.495960 0.443700 -0.503840
C3    C     C_R   0.399870 0.656311 0.411116 0.803829
C4    C     C_R   0.600139 0.156229 0.588861 0.800040
O9    O     O_3   0.506490 0.661310 0.542090 -0.371713
O10   O     O_3   0.493510 0.161310 0.457910 -0.371205
V1    V     V_3+5 0.498800 0.935560 0.492190 1.667688
V2    V     V_3+5 0.501200 0.435560 0.507810 1.666374
C5    C     C_R   0.840185 0.083241 0.856373 -0.137636
C6    C     C_R   0.159666 0.582697 0.143888 -0.144415
C7    C     C_R   0.661770 0.151943 0.641449 -0.129459
C8    C     C_R   0.338247 0.652391 0.358542 -0.124489
C9    C     C_R   0.768123 0.289571 0.686471 0.341790
C10   C     C_R   0.232481 0.792860 0.312918 0.350922
C11   C     C_R   0.717001 0.251250 0.630585 -0.112048
C12   C     C_R   0.283359 0.754135 0.368995 -0.118175
C13   C     C_R   0.662521 0.077053 0.706618 -0.063882
C14   C     C_R   0.336997 0.574480 0.293755 -0.061048
C15   C     C_R   0.722831 0.068260 0.755250 -0.090146
C16   C     C_R   0.276472 0.565655 0.245563 -0.122795
C17   C     C_R   0.776661 0.177491 0.745093 -0.098695
C18   C     C_R   0.223389 0.678902 0.254819 -0.089376
C19   C     C_R   0.837662 0.169556 0.793030 -0.034996
C20   C     C_R   0.162521 0.672539 0.206622 -0.014658
C21   C     C_R   0.787231 0.977137 0.865402 -0.180117
C22   C     C_R   0.211808 0.471570 0.136090 -0.168886
C23   C     C_R   0.731501 0.956032 0.814163 0.419385
C24   C     C_R   0.266994 0.449374 0.187879 0.454128
H1    H     H_    0.791636 0.898749 0.911566 0.178544
H2    H     H_    0.207008 0.389763 0.090716 0.182403
C25   C     C_3   0.250876 0.300556 0.818578 0.565964
C26   C     C_3   0.749201 0.800676 0.181519 0.560992
C27   C     C_3   0.258056 0.960445 0.799540 -0.300256
C28   C     C_3   0.742023 0.460548 0.200544 -0.304640
C29   C     C_3   0.305267 0.983938 0.747845 -0.252066
C30   C     C_3   0.694805 0.484045 0.252231 -0.249744
H3    H     H_    0.226817 0.845641 0.781191 0.301823
H4    H     H_    0.773261 0.345670 0.218897 0.302008
H5    H     H_    0.289052 0.885395 0.706217 0.241304
H6    H     H_    0.711015 0.385419 0.293861 0.241311
C31   C     C_1   0.379682 0.162024 0.624712 -0.031579
C32   C     C_1   0.620354 0.662028 0.375331 -0.031960
C33   C     C_3   0.208587 0.120959 0.794241 -0.197389
C34   C     C_3   0.791491 0.620974 0.205853 -0.196896
C35   C     C_3   0.306202 0.321893 0.769345 -0.259575
C36   C     C_3   0.693870 0.822033 0.230743 -0.257153
C37   C     C_3   0.295354 0.170365 0.711981 -0.156027
C38   C     C_3   0.704712 0.670399 0.288100 -0.155552
C39   C     C_3   0.223025 0.173469 0.668803 -0.244014
C40   C     C_3   0.777038 0.673324 0.331288 -0.244827
C41   C     C_3   0.169865 0.133347 0.714311 0.118436
C42   C     C_3   0.830205 0.633179 0.285788 0.119978
C43   C     C_1   0.342065 0.173971 0.663567 -0.028353
C44   C     C_1   0.657990 0.673994 0.336499 -0.028322
C45   C     C_1   0.160177 0.087675 0.839017 0.202391
C46   C     C_1   0.839901 0.587686 0.161072 0.201084
C47   C     C_1   0.121023 0.078701 0.876380 0.036049
C48   C     C_1   0.879036 0.578719 0.123687 0.036021
H7    H     H_    0.222269 0.059477 0.633140 0.217569
H8    H     H_    0.777788 0.559281 0.366949 0.217431
O11   O     O_R   0.942280 0.741210 0.056360 -0.515914
O12   O     O_R   0.057720 0.241210 0.943640 -0.515553
O13   O     O_R   0.077070 0.409690 0.071960 -0.540828
O14   O     O_R   0.922930 0.909690 0.928040 -0.543475
C49   C     C_R   0.099712 0.577861 0.089428 0.739061
C50   C     C_R   0.900243 0.077930 0.910657 0.740120
O15   O     O_R   0.943940 0.411580 0.064250 -0.538176
O16   O     O_R   0.056060 0.911580 0.935750 -0.538222
O17   O     O_R   0.923670 0.239840 0.935920 -0.505909
O18   O     O_R   0.076330 0.739840 0.064080 -0.501817
C51   C     C_R   0.924871 0.578123 0.078274 0.715684
C52   C     C_R   0.075153 0.078112 0.921754 0.722129
O19   O     O_3   0.993540 0.572620 0.957940 -0.373951
O20   O     O_3   0.006460 0.072620 0.042060 -0.370264
V3    V     V_3+5 0.001200 0.298330 0.007800 1.632157
V4    V     V_3+5 0.998800 0.798330 0.992200 1.628735
C53   C     C_2   0.899905 0.215092 0.770592 0.525361
H9    H     H_    0.902370 0.200206 0.717512 0.106018
O21   O     O_2   0.948459 0.269608 0.809940 -0.519965
C54   C     C_2   0.100450 0.722557 0.228534 0.519108
H10   H     H_    0.097377 0.707346 0.281448 0.101457
O22   O     O_2   0.052754 0.781207 0.188980 -0.515445
C55   C     C_2   0.291916 0.900776 0.870854 0.743691
H11   H     H_    0.338242 0.829573 0.879645 0.114518
O23   O     O_2   0.265123 0.914029 0.919424 -0.438761
C56   C     C_2   0.708170 0.401025 0.129228 0.749026
H12   H     H_    0.661847 0.329895 0.120433 0.114278
O24   O     O_2   0.734966 0.414302 0.080660 -0.432687
C57   C     C_2   0.377397 0.934098 0.774910 0.488552
H13   H     H_    0.403172 0.977385 0.824604 0.064750
O25   O     O_2   0.407582 0.844186 0.740456 -0.474618
C58   C     C_2   0.622676 0.434362 0.225153 0.485950
H14   H     H_    0.596909 0.477773 0.175459 0.063310
O26   O     O_2   0.592486 0.344440 0.259598 -0.476274
C59   C     C_2   0.109997 0.258372 0.704302 0.689017
H15   H     H_    0.075089 0.241847 0.737243 0.081890
O27   O     O_2   0.093944 0.357789 0.655405 -0.452652
C60   C     C_2   0.890073 0.758087 0.295805 0.688824
H16   H     H_    0.924988 0.741543 0.262872 0.079970
O28   O     O_2   0.906118 0.857415 0.344702 -0.453048
S1    S     S_3+6 0.126427 0.927242 0.680953 0.066105
O29   O     O_2   0.096237 0.838821 0.734544 -0.282663
O30   O     O_2   0.071451 0.972509 0.622177 -0.267164
O31   O     O_3   0.176383 0.782756 0.651339 -0.495520
H17   H     H_    0.160879 0.779214 0.601437 0.377634
S2    S     S_3+6 0.873638 0.426953 0.319148 0.065907
O32   O     O_2   0.903828 0.338549 0.265558 -0.282885
O33   O     O_2   0.928614 0.472044 0.377925 -0.267259
O34   O     O_3   0.823680 0.282519 0.348764 -0.495458
H18   H     H_    0.839172 0.278926 0.398668 0.377762
C61   C     C_2   0.209221 0.329747 0.619330 0.491085
H19   H     H_    0.202006 0.463753 0.636568 0.144763
O35   O     O_2   0.205216 0.305876 0.558497 -0.482836
C62   C     C_2   0.790835 0.829507 0.380766 0.491686
H20   H     H_    0.798054 0.963527 0.363534 0.144732
O36   O     O_2   0.794829 0.805538 0.441597 -0.482461
S3    S     S_3+6 0.189329 0.484246 0.814636 -0.018348
O37   O     O_2   0.211846 0.626699 0.865692 -0.306938
O38   O     O_2   0.176473 0.565034 0.745721 -0.319095
O39   O     O_3   0.116229 0.427151 0.831887 -0.549055
H21   H     H_    0.088922 0.537447 0.823487 0.399521
S4    S     S_3+6 0.810751 0.984258 0.185475 -0.018916
O40   O     O_2   0.788240 0.126818 0.134418 -0.306946
O41   O     O_2   0.823597 0.064923 0.254391 -0.318917
O42   O     O_3   0.883857 0.927069 0.168236 -0.549420
H22   H     H_    0.911157 0.037323 0.176624 0.399839
C63   C     C_2   0.303752 0.501073 0.737134 0.509977
H23   H     H_    0.306940 0.522531 0.684581 0.039926
O43   O     O_2   0.308160 0.628443 0.774616 -0.519578
C64   C     C_2   0.696318 0.001157 0.262960 0.510013
H24   H     H_    0.693119 0.022541 0.315511 0.040060
O44   O     O_2   0.691922 0.128592 0.225483 -0.519757
S5    S     S_3+6 0.808497 0.503063 0.688446 0.000416
O45   O     O_2   0.834923 0.562439 0.760227 -0.335369
O46   O     O_2   0.863828 0.491154 0.650638 -0.305666
O47   O     O_3   0.754225 0.658387 0.650641 -0.493021
H25   H     H_    0.778068 0.774596 0.657725 0.374677
S6    S     S_3+6 0.193151 0.008045 0.309964 0.024681
O48   O     O_2   0.168811 0.067330 0.237764 -0.299327
O49   O     O_2   0.136506 0.998950 0.346025 -0.312079
O50   O     O_3   0.247398 0.161675 0.349012 -0.488049
H26   H     H_    0.224436 0.278965 0.340542 0.373472
S7    S     S_3+6 0.681689 0.765576 0.822769 0.101908
O51   O     O_2   0.626564 0.820663 0.856649 -0.251569
O52   O     O_2   0.653647 0.684333 0.754585 -0.306994
O53   O     O_3   0.726615 0.608169 0.871738 -0.444906
H27   H     H_    0.747235 0.535595 0.840374 0.373336
S8    S     S_3+6 0.314292 0.251955 0.182280 0.082929
O54   O     O_2   0.368214 0.293821 0.144846 -0.278556
O55   O     O_2   0.343333 0.180519 0.251827 -0.305256
O56   O     O_3   0.265668 0.092194 0.138958 -0.456695
H28   H     H_    0.291976 0.979929 0.146040 0.381780
C65   C     C_2   0.722267 0.317923 0.561600 0.438178
H29   H     H_    0.759044 0.416405 0.555489 0.158047
O57   O     O_2   0.688082 0.256603 0.510063 -0.539766
C66   C     C_2   0.278004 0.822338 0.437734 0.437364
H30   H     H_    0.241102 0.920977 0.443436 0.156280
O58   O     O_2   0.312142 0.762006 0.489510 -0.539426
C67   C     C_2   0.599370 0.044779 0.728764 0.516323
H31   H     H_    0.594439 0.087052 0.779113 0.108417
O59   O     O_2   0.553025 0.970422 0.692207 -0.499951
C68   C     C_2   0.399667 0.537823 0.271007 0.511521
H32   H     H_    0.403147 0.569134 0.219172 0.101410
O60   O     O_2   0.447227 0.471789 0.308609 -0.502930
C69   C     C_2   0.379360 0.321056 0.805334 0.577075
H33   H     H_    0.415601 0.253059 0.782571 0.010453
O61   O     O_2   0.401372 0.422605 0.852211 -0.407647
C70   C     C_2   0.620715 0.821383 0.194745 0.572232
H34   H     H_    0.584470 0.753399 0.217495 0.009756
O62   O     O_2   0.598710 0.923058 0.147874 -0.409619
S9    S     S_3+6 0.291579 0.306500 0.910435 0.154016
O63   O     O_2   0.350951 0.187275 0.928390 -0.290710
O64   O     O_2   0.316078 0.493133 0.930723 -0.229426
O65   O     O_3   0.238666 0.250521 0.960355 -0.458447
H35   H     H_    0.212936 0.361100 0.964053 0.358274
S10   S     S_3+6 0.708502 0.806810 0.089662 0.163730
O66   O     O_2   0.649128 0.687718 0.071705 -0.286272
O67   O     O_2   0.684020 0.993510 0.069352 -0.225353
O68   O     O_3   0.761417 0.750769 0.039760 -0.451656
H36   H     H_    0.787575 0.860817 0.036614 0.358247

loop_
_geom_bond_atom_site_label_1
_geom_bond_atom_site_label_2
_ccdc_geom_bond_type
C25   C33   S    
C45   C47   T    
C19   C53   S    
O42   H22   S    
C15   C17   A    
C42   S2    S    
O1    C3    A    
O2    C4    A    
O39   H21   S    
O16   V4    S    
C2    O7    A    
C65   H29   S    
C35   C69   S    
C63   H23   S    
C67   O59   D    
C36   C64   S    
C69   H33   S    
C13   C67   S    
O5    C3    A    
C48   C51   S    
O15   C51   A    
C5    C21   A    
C25   S3    S    
S8    O54   D    
S1    O30   D    
C53   H9    S    
C21   C23   A    
C39   C41   S    
C60   H16   S    
O17   V3    S    
C40   C42   S    
C20   C54   S    
S10   O66   D    
C28   H4    S    
S7    O53   S    
C36   C70   S    
O65   H35   S    
C34   C42   S    
C65   O57   D    
S5    O45   D    
O15   V3    S    
C8    C12   A    
C38   C40   S    
C50   O17   A    
C35   C63   S    
S3    O39   S    
C49   O18   A    
O13   V3    S    
C39   C61   S    
S9    O65   S    
C60   O28   D    
C35   C37   S    
S7    O51   D    
O6    V2    S    
C47   C52   S    
C28   C56   S    
S9    O64   D    
C27   C29   S    
C12   C66   S    
C28   C30   S    
C39   H7    S    
O31   H17   S    
O19   V3    S    
C57   H13   S    
S6    O49   D    
C69   O61   D    
C9    C11   A    
C36   C38   S    
C3    C8    S    
C40   C62   S    
C31   C43   T    
C53   O21   D    
O12   C52   A    
C10   S6    S    
C33   C45   S    
O14   C50   A    
C34   C46   S    
S5    O47   S    
C55   H11   S    
O13   C49   A    
C7    C11   A    
O5    V1    S    
C15   C23   A    
C26   C34   S    
C9    C17   A    
C21   H1    S    
S5    O46   D    
C46   C48   T    
O4    V2    S    
S4    O41   D    
O12   V3    S    
C55   O23   D    
S6    O50   S    
C30   C38   S    
S2    O33   D    
O56   H28   S    
O6    C4    A    
C58   O26   D    
C59   O27   D    
O1    V2    S    
C61   H19   S    
C56   O24   D    
O2    V1    S    
C6    C22   A    
C14   C68   S    
O53   H27   S    
O14   V4    S    
C61   O35   D    
C64   O44   D    
O4    C2    A    
C70   H34   S    
C27   C55   S    
C54   O22   D    
C6    C49   S    
C26   C36   S    
C37   C39   S    
S3    O37   D    
C32   C44   T    
C10   C12   A    
C1    C32   S    
S1    O31   S    
S4    O42   S    
C6    C20   A    
C62   O36   D    
O3    C1    A    
C67   H31   S    
O19   V4    S    
C42   C60   S    
C24   S8    S    
S6    O48   D    
C29   C37   S    
C63   O43   D    
C26   S4    S    
C66   H30   S    
C57   O25   D    
C10   C18   A    
C5    C50   S    
C22   H2    S    
C14   C16   A    
S8    O56   S    
C29   C57   S    
O47   H25   S    
C8    C14   A    
C25   S9    S    
O16   C52   A    
S2    O32   D    
C13   C15   A    
O20   V4    S    
S10   O68   S    
C41   C59   S    
C66   O58   D    
S4    O40   D    
O7    V1    S    
C9    S5    S    
C16   C18   A    
C17   C19   A    
O11   V4    S    
O8    V2    S    
O34   H18   S    
C18   C20   A    
C30   C58   S    
C40   H8    S    
C25   C35   S    
C68   O60   D    
C5    C19   A    
C37   C43   S    
C4    C7    S    
S8    O55   D    
C58   H14   S    
C41   S1    S    
C22   C24   A    
S10   O67   D    
C38   C44   S    
S7    O52   D    
C2    C31   S    
C56   H12   S    
C7    C13   A    
C23   S7    S    
S2    O34   S    
O11   C51   A    
C64   H24   S    
S9    O63   D    
O18   V4    S    
C1    O8    A    
C33   C41   S    
C54   H10   S    
C16   C24   A    
O20   V3    S    
C68   H32   S    
O9    V2    S    
S1    O29   D    
C59   H15   S    
S3    O38   D    
C27   H3    S    
O10   V1    S    
O3    V1    S    
O68   H36   S    
C11   C65   S    
C62   H20   S    
O50   H26   S    
C29   H5    S    
C27   C33   S    
C30   H6    S    
C28   C34   S    
C70   O62   D    
C26   S10   S    
