data_mof_unit_24332.cif
_audit_creation_date              2012-12-11T15:53:43-0500
_audit_creation_method            fapswitch 2.2
_symmetry_space_group_name_H-M    P1
_symmetry_Int_Tables_number       1
_space_group_crystal_system       triclinic
_cell_length_a                    10.650096
_cell_length_b                    10.723142
_cell_length_c                    16.996319
_cell_angle_alpha                 80.577974
_cell_angle_beta                  99.354936
_cell_angle_gamma                 118.998482
_cell_volume                      1666.97609291

loop_
_atom_site_label
_atom_site_type_symbol
_atom_type_description
_atom_site_fract_x
_atom_site_fract_y
_atom_site_fract_z
_atom_type_partial_charge
C1    C     C_R   0.384882 0.284791 0.631956 0.550275
C2    C     C_1   0.334069 0.186952 0.781628 -0.053925
C3    C     C_1   0.318306 0.682380 0.280305 -0.030075
C4    C     C_R   0.369206 0.654794 0.586017 0.531437
C5    C     C_1   0.297002 0.706268 0.209699 -0.043385
C6    C     C_R   0.803125 0.652507 0.150338 0.017860
C7    C     C_R   0.783343 0.528500 0.200874 0.006461
C8    C     C_R   0.774599 0.522802 0.280544 0.013734
C9    C     C_R   0.769559 0.747524 0.260155 -0.158705
C10   C     C_R   0.778075 0.754062 0.178145 -0.154772
C11   C     C_3   0.867985 0.446550 0.218062 -0.215627
C12   C     C_R   0.393283 0.830462 0.673997 -0.135053
C13   C     C_3   0.856915 0.441411 0.306052 -0.224350
C14   C     C_R   0.783556 0.637891 0.312923 0.006944
C15   C     C_R   0.327105 0.174094 0.157999 0.006561
C16   C     C_R   0.781297 0.621087 0.626132 0.545158
C17   C     C_R   0.225478 0.196830 0.187694 0.006545
C18   C     C_R   0.230213 0.200961 0.267855 0.091350
C19   C     C_R   0.449797 0.181639 0.291327 -0.159602
C20   C     C_R   0.445446 0.176119 0.209503 -0.157196
C21   C     C_3   0.063493 0.111301 0.181264 -0.221833
C22   C     C_3   0.071163 0.115810 0.270066 0.101215
C23   C     C_R   0.376634 0.852455 0.749776 -0.151285
C24   C     C_R   0.336397 0.185747 0.321172 -0.018595
C25   C     C_R   0.947544 0.725038 0.851667 0.537973
C26   C     C_R   0.281774 0.750916 0.882651 0.552477
C27   C     C_R   0.286830 0.118684 0.858449 0.538007
C28   C     C_R   0.351807 0.226716 0.399628 0.555550
C29   C     C_R   0.881845 0.688354 0.081510 0.545953
C30   C     C_R   0.284476 0.738509 0.125603 0.564902
C31   C     C_R   0.286863 0.110347 0.083938 0.545674
C32   C     C_R   0.362217 0.656949 0.361709 0.550199
C33   C     C_R   0.763629 0.618300 0.396603 0.545997
C34   C     C_3   0.127807 0.458412 0.793206 -0.245452
C35   C     C_R   0.280042 0.737504 0.798311 -0.002490
C36   C     C_R   0.180500 0.612604 0.762638 0.009496
C37   C     C_R   0.197495 0.590330 0.688076 0.013233
C38   C     C_3   0.146868 0.434165 0.711399 -0.250804
C39   C     C_R   0.314195 0.692800 0.646719 0.014359
C40   C     C_1   0.850912 0.669438 0.702572 -0.032744
C41   C     C_1   0.897963 0.703915 0.769277 -0.036198
C42   C     C_1   0.365286 0.233918 0.714357 -0.054777
Cl1   Cl    Cl    0.993899 0.217588 0.294283 -0.656957
Cr1   Cr    Cr6+3 0.608440 0.389080 0.519680 1.021054
Cr2   Cr    Cr6+3 0.288640 0.400090 0.490760 1.067113
Cr3   Cr    Cr6+3 0.602940 0.710800 0.489510 1.040084
Cr4   Cr    Cr6+3 0.052530 0.947560 0.964210 1.012500
Cr5   Cr    Cr6+3 0.059970 0.626800 0.992920 1.017399
Cr6   Cr    Cr6+3 0.373320 0.938440 0.995370 1.013437
H1    H     H_    0.478759 0.916613 0.641235 0.149388
H2    H     H_    0.447425 0.955121 0.772781 0.142702
H3    H     H_    0.013086 0.405206 0.806035 0.152919
H4    H     H_    0.202759 0.441060 0.841977 0.162868
H5    H     H_    0.233203 0.403841 0.713161 0.147724
H6    H     H_    0.043289 0.366483 0.677170 0.152862
H7    H     H_    0.758495 0.830553 0.282235 0.168268
H8    H     H_    0.780301 0.845251 0.138821 0.141762
H9    H     H_    0.981599 0.509749 0.203311 0.182083
H10   H     H_    0.807261 0.339568 0.194852 0.172041
H11   H     H_    0.789971 0.331686 0.333955 0.175582
H12   H     H_    0.962485 0.504364 0.340262 0.154586
H13   H     H_    0.539171 0.179693 0.331150 0.143500
H14   H     H_    0.527088 0.161090 0.188052 0.143714
H15   H     H_    0.024718 0.001086 0.166111 0.128240
H16   H     H_    0.010602 0.170993 0.143485 0.178005
H17   H     H_    0.037273 0.009806 0.305690 0.117023
O1    O     O_R   0.754020 0.497590 0.609930 -0.513614
O2    O     O_R   0.406180 0.826930 0.920660 -0.495329
O3    O     O_R   0.358620 0.062870 0.901950 -0.516742
O4    O     O_R   0.481420 0.271390 0.600630 -0.492603
O5    O     O_R   0.163910 0.085460 0.050210 -0.520303
O6    O     O_R   0.935200 0.815170 0.045770 -0.504493
O7    O     O_R   0.916120 0.596690 0.069430 -0.526575
O8    O     O_R   0.192310 0.631200 0.086170 -0.481637
O9    O     O_R   0.406770 0.819480 0.096420 -0.493791
O10   O     O_R   0.359170 0.055960 0.064880 -0.519022
O11   O     O_3   0.161940 0.837600 0.984160 -0.312705
O12   O     O_R   0.295080 0.533620 0.397890 -0.468432
O13   O     O_R   0.263810 0.254550 0.589590 -0.505789
O14   O     O_R   0.300820 0.531200 0.560890 -0.517462
O15   O     O_R   0.491480 0.744020 0.564270 -0.518673
O16   O     O_R   0.726290 0.693800 0.583010 -0.490873
O17   O     O_R   0.747830 0.500190 0.434090 -0.517127
O18   O     O_R   0.475680 0.273800 0.437630 -0.507083
O19   O     O_R   0.257620 0.257160 0.413750 -0.450953
O20   O     O_R   0.485280 0.746620 0.388440 -0.511386
O21   O     O_R   0.720550 0.696220 0.420010 -0.496959
O22   O     O_3   0.500010 0.499990 0.499980 -0.275128
O23   O     O_R   0.163320 0.092900 0.874450 -0.508906
O24   O     O_R   0.934650 0.822080 0.882840 -0.476467
O25   O     O_R   0.915520 0.604140 0.893670 -0.508947
O26   O     O_R   0.191760 0.638110 0.923230 -0.501385

loop_
_geom_bond_atom_site_label_1
_geom_bond_atom_site_label_2
_ccdc_geom_bond_type
C8    C13   S    
Cr6   O2    S    
C28   O18   A    
C19   C20   A    
Cr1   O17   S    
C14   C33   S    
C7    C8    A    
C13   H11   S    
C7    C11   S    
C12   C23   A    
C25   O24   A    
C18   C24   A    
C36   C37   A    
C4    O14   A    
C30   O8    A    
C29   O7    A    
C19   H13   S    
C26   O26   A    
C22   H17   S    
C21   H15   S    
Cr3   O16   S    
C38   H6    S    
C35   C36   A    
Cr5   O25   S    
Cr6   O9    S    
Cr1   O4    S    
Cr2   O12   S    
C11   H9    S    
C9    C10   A    
C27   O3    A    
C29   O6    A    
C31   O5    A    
C20   H14   S    
Cr6   O3    S    
C21   C22   S    
Cr4   O23   S    
C11   H10   S    
Cr3   O22   S    
C15   C20   A    
C25   O25   A    
C4    O15   A    
Cr5   O8    S    
C10   H8    S    
C25   C41   S    
C16   O1    A    
Cr1   O18   S    
C17   C21   S    
C34   C38   S    
Cr5   O11   S    
Cr2   O19   S    
C9    C14   A    
C37   C38   S    
Cr3   O15   S    
C1    C42   S    
C23   H2    S    
C22   Cl1   S    
C38   H5    S    
C4    C39   S    
C32   O20   A    
Cr2   O22   S    
C16   O16   A    
C17   C18   A    
Cr6   O10   S    
Cr2   O13   S    
C9    H7    S    
C33   O17   A    
Cr4   O5    S    
C2    C27   S    
C16   C40   S    
C40   C41   T    
C23   C35   A    
Cr5   O26   S    
C1    O13   A    
Cr4   O24   S    
Cr4   O11   S    
Cr3   O21   S    
C15   C17   A    
C8    C14   A    
C21   H16   S    
C18   C22   S    
Cr5   O7    S    
C24   C28   S    
C3    C5    T    
C6    C10   A    
C12   H1    S    
C15   C31   S    
C6    C7    A    
C34   H3    S    
C1    O4    A    
C26   O2    A    
C12   C39   A    
C19   C24   A    
C33   O21   A    
C37   C39   A    
C30   O9    A    
C11   C13   S    
C31   O10   A    
C2    C42   T    
Cr6   O11   S    
C27   O23   A    
Cr2   O14   S    
C34   C36   S    
C3    C32   S    
Cr4   O6    S    
C32   O12   A    
C26   C35   S    
C6    C29   S    
C13   H12   S    
C34   H4    S    
C5    C30   S    
C28   O19   A    
Cr1   O1    S    
Cr1   O22   S    
Cr3   O20   S    
