data_mof_unit_67795.cif
_audit_creation_date              2013-03-05T15:41:22-0500
_audit_creation_method            fapswitch 2.2
_symmetry_space_group_name_H-M    P1
_symmetry_Int_Tables_number       1
_space_group_crystal_system       triclinic
_cell_length_a                    7.887415
_cell_length_b                    8.797001
_cell_length_c                    10.75388
_cell_angle_alpha                 92.666515
_cell_angle_beta                  84.339571
_cell_angle_gamma                 94.748895
_cell_volume                      739.423323743

loop_
_atom_site_label
_atom_site_type_symbol
_atom_site_description
_atom_site_fract_x
_atom_site_fract_y
_atom_site_fract_z
_atom_type_partial_charge
O1    O     O_R   0.389250 0.738570 0.508370 -0.660922
O2    O     O_R   0.678390 0.711620 0.486510 -0.610586
C1    C     C_R   0.546730 0.793723 0.490100 0.869674
O3    O     O_R   0.355430 0.513500 0.696140 -0.630375
O4    O     O_R   0.644580 0.486550 0.674270 -0.636161
C2    C     C_R   0.501599 0.511385 0.741704 0.987511
Zn1   Zn    Zn3+2 0.306940 0.517990 0.514600 0.945387
Zn2   Zn    Zn3+2 0.693060 0.482010 0.485400 0.990905
O5    O     O_R   0.321610 0.288380 0.513490 -0.611829
O6    O     O_R   0.610750 0.261430 0.491630 -0.562550
O7    O     O_R   0.355420 0.513450 0.325730 -0.579693
O8    O     O_R   0.644570 0.486500 0.303860 -0.606570
C3    C     C_R   0.455087 0.205440 0.496860 1.010302
C4    C     C_R   0.500464 0.503703 0.258261 0.960052
C5    C     C_3   0.366715 0.625200 0.945370 0.248555
H1    H     H_    0.236505 0.595772 0.915173 0.069317
C6    C     C_3   0.361025 0.611851 0.088758 0.268613
H2    H     H_    0.394785 0.727042 0.128559 0.184465
H3    H     H_    0.334416 0.296469 0.111197 0.196402
C7    C     C_3   0.461405 0.350265 0.922712 0.146839
C8    C     C_3   0.681383 0.574434 0.917364 0.321350
C9    C     C_3   0.500062 0.516344 0.879104 -0.159616
H4    H     H_    0.772577 0.489199 0.880613 0.034233
C10   C     C_3   0.500147 0.509240 0.121376 -0.159418
C11   C     C_3   0.458731 0.344974 0.066701 -0.168316
C12   C     C_3   0.676141 0.580879 0.061798 -0.148620
H5    H     H_    0.779762 0.512908 0.085410 0.149868
H6    H     H_    0.575567 0.291993 0.883996 0.140215
C13   C     C_2   0.575351 0.956107 0.475647 0.055987
C14   C     C_2   0.436987 0.041121 0.486962 -0.453959
H7    H     H_    0.307084 0.988661 0.499009 0.174791
N1    N     N_2   0.950330 0.457950 0.465890 -0.161149
H8    H     H_    0.011595 0.377546 0.409628 0.236136
N2    N     N_2   0.049670 0.542050 0.534110 -0.205127
H9    H     H_    0.989912 0.627917 0.583416 0.186170
I1    I     I_    0.639411 0.192981 0.113976 -0.367234
I2    I     I_    0.843266 0.034576 0.443948 -0.377773
O9    O     O_3   0.426650 0.778342 0.923159 -0.559602
C15   C     C_3   0.335492 0.850434 0.841421 0.053212
H10   H     H_    0.230075 0.906590 0.896314 0.155650
H11   H     H_    0.286358 0.772674 0.766703 0.146770
C16   C     C_3   0.458165 0.971996 0.781423 -0.632966
H12   H     H_    0.560238 0.918185 0.721561 0.233466
H13   H     H_    0.388146 0.044453 0.726578 0.218975
H14   H     H_    0.520462 0.041581 0.854803 0.291221
O10   O     O_3   0.198736 0.556128 0.143537 -0.664836
C17   C     C_3   0.092429 0.675400 0.176254 0.084673
H15   H     H_    0.966134 0.618863 0.206148 0.216748
H16   H     H_    0.083887 0.744222 0.093689 0.138393
C18   C     C_3   0.142030 0.781215 0.287140 -0.718979
H17   H     H_    0.275767 0.778554 0.307562 0.258435
H18   H     H_    0.123919 0.900820 0.266194 0.238220
H19   H     H_    0.058672 0.751846 0.372957 0.250659
O11   O     O_3   0.326592 0.267149 0.863413 -0.623302
C19   C     C_3   0.159590 0.271412 0.922959 0.123681
H20   H     H_    0.140753 0.369698 0.987878 0.182448
H21   H     H_    0.126623 0.165370 0.975270 0.176352
C20   C     C_3   0.036815 0.276979 0.823087 -0.801039
H22   H     H_    0.066942 0.192695 0.745758 0.278137
H23   H     H_    0.903463 0.251599 0.864146 0.209413
H24   H     H_    0.048944 0.391896 0.783609 0.245402
O12   O     O_3   0.727586 0.719351 0.866427 -0.512112
C21   C     C_3   0.903905 0.745958 0.832988 0.133071
H25   H     H_    0.962180 0.645624 0.786064 0.092496
H26   H     H_    0.969707 0.778713 0.917001 0.142355
C22   C     C_3   0.927377 0.877768 0.745396 -0.835830
H27   H     H_    0.874279 0.979649 0.794102 0.279187
H28   H     H_    0.063416 0.904507 0.712326 0.197737
H29   H     H_    0.855957 0.846941 0.663292 0.274478
I3    I     I_    0.728115 0.810012 0.141362 -0.349383

loop_
_geom_bond_atom_site_label_1
_geom_bond_atom_site_label_2
_geom_bond_distance
_ccdc_geom_bond_type
O4    Zn2   2.028520 S    
C22   H28   1.106270 S    
C8    C12   1.548213 S    
C21   H26   1.100987 S    
C5    O9    1.413382 S    
C5    C6    1.547846 S    
C13   C14   1.365866 D    
C17   C18   1.539465 S    
C18   H18   1.109723 S    
C17   H15   1.101222 S    
C14   H7    1.086573 S    
Zn2   O8    2.028823 S    
N1    H8    1.029064 S    
C19   H20   1.096213 S    
C8    H4    1.114197 S    
C22   H27   1.108240 S    
C8    O12   1.416596 S    
C21   C22   1.515835 S    
C17   H16   1.108147 S    
O1    Zn1   1.996551 S    
C8    C9    1.565648 S    
C10   C11   1.556039 S    
Zn1   O7    2.028519 S    
N1    N2    1.290889 D    
C1    C13   1.440850 S    
C12   H5    1.107233 S    
O12   C21   1.404782 S    
C16   H13   1.103025 S    
C22   H29   1.104980 S    
C20   H24   1.107818 S    
O3    Zn1   2.028823 S    
C12   I3    2.176014 S    
C7    O11   1.426032 S    
Zn1   N2    2.046815 S    
O8    C4    1.304074 A    
C6    H2    1.103809 S    
C15   C16   1.505256 S    
O2    C1    1.309670 A    
C19   H21   1.110901 S    
O4    C2    1.307734 A    
H3    C11   1.108887 S    
O7    C4    1.299723 A    
C20   H22   1.109303 S    
C6    C10   1.552846 S    
C13   I2    2.167118 S    
C16   H12   1.104160 S    
C7    C9    1.552159 S    
C11   I1    2.144495 S    
C20   H23   1.108957 S    
C21   H25   1.106767 S    
Zn2   N1    2.046814 S    
C3    C14   1.440746 S    
O9    C15   1.394223 S    
C6    O10   1.414227 S    
C15   H11   1.109118 S    
Zn2   O6    1.996549 S    
N2    H9    1.022880 S    
C7    C11   1.549318 S    
C19   C20   1.520383 S    
C4    C10   1.475373 S    
C15   H10   1.108108 S    
Zn1   O5    2.032148 S    
O5    C3    1.323103 A    
O11   C19   1.409280 S    
C7    H6    1.108838 S    
C18   H17   1.100782 S    
C18   H19   1.106823 S    
O10   C17   1.407440 S    
O3    C2    1.298243 A    
O6    C3    1.281411 A    
C5    C9    1.576850 S    
O2    Zn2   2.032148 S    
C5    H1    1.114088 S    
C10   C12   1.565837 S    
O1    C1    1.295291 A    
C16   H14   1.104810 S    
C2    C9    1.475080 S    
