data_mof_unit_27919.cif
_audit_creation_date              2012-12-11T16:53:24-0500
_audit_creation_method            fapswitch 2.2
_symmetry_space_group_name_H-M    P1
_symmetry_Int_Tables_number       1
_space_group_crystal_system       triclinic
_cell_length_a                    15.089345
_cell_length_b                    14.774544
_cell_length_c                    16.977857
_cell_angle_alpha                 108.361157
_cell_angle_beta                  106.523457
_cell_angle_gamma                 108.780805
_cell_volume                      3071.56973421

loop_
_atom_site_label
_atom_site_type_symbol
_atom_type_description
_atom_site_fract_x
_atom_site_fract_y
_atom_site_fract_z
_atom_type_partial_charge
C1    C     C_R   0.087709 0.287966 0.078787 -0.226774
C2    C     C_R   0.063544 0.548567 0.264766 -0.123799
C3    C     C_R   0.276874 0.788225 0.177900 -0.133787
C4    C     C_R   0.934268 0.517417 0.745807 -0.121169
C5    C     C_R   0.697831 0.400884 0.992556 -0.189785
C6    C     C_R   0.334583 0.784652 0.255668 0.120600
C7    C     C_R   0.638252 0.425140 0.933146 0.075869
C8    C     C_R   0.971319 0.533983 0.273541 0.048484
C9    C     C_R   0.996502 0.826241 0.999274 0.033376
C10   C     C_R   0.485069 0.560183 0.988174 0.008065
C11   C     C_R   0.402720 0.478786 0.983949 -0.021240
C12   C     C_R   0.023762 0.576841 0.742428 0.066622
C13   C     C_R   0.387107 0.372408 0.947381 -0.283808
C14   C     C_R   0.460226 0.348563 0.922211 0.164125
C15   C     C_R   0.548444 0.433925 0.936075 0.027945
C16   C     C_R   0.778384 0.201837 0.813494 -0.134337
C17   C     C_R   0.559006 0.537514 0.967954 0.033398
C18   C     C_3   0.648543 0.635752 0.048630 -0.653594
C19   C     C_3   0.567183 0.663644 0.070831 0.564982
C20   C     C_R   0.961191 0.577330 0.359293 0.132620
C21   C     C_R   0.030761 0.617319 0.674552 0.128751
C22   C     C_R   0.134325 0.692525 0.604246 -0.225195
C23   C     C_R   0.760487 0.195263 0.726671 0.054245
C24   C     C_R   0.127909 0.675006 0.678569 -0.177920
C25   C     C_R   0.940102 0.588913 0.599765 -0.283625
C26   C     C_R   0.946046 0.601481 0.523389 0.190464
C27   C     C_R   0.044003 0.649335 0.524281 0.189121
C28   C     C_R   0.282983 0.560924 0.974347 0.190916
C29   C     C_R   0.050555 0.641091 0.442547 -0.277966
C30   C     C_R   0.863301 0.542312 0.360372 -0.175020
C31   C     C_R   0.855825 0.555670 0.442588 -0.227483
C32   C     C_R   0.717447 0.096703 0.641688 0.062259
C33   C     C_R   0.443462 0.857449 0.323573 -0.033076
C34   C     C_R   0.324987 0.501101 0.003709 0.022166
C35   C     C_R   0.606079 0.018360 0.391162 -0.415283
C36   C     C_R   0.512071 0.940656 0.313936 0.640852
C37   C     C_R   0.477801 0.843975 0.402877 -0.344725
C38   C     C_R   0.569420 0.920540 0.478153 0.179637
C39   C     C_R   0.631496 0.012789 0.475188 0.053276
C40   C     C_R   0.780403 0.297293 0.734989 -0.109929
C41   C     C_R   0.711391 0.100066 0.558136 0.127063
C42   C     C_R   0.665843 0.998610 0.641213 -0.219131
C43   C     C_R   0.593275 0.910391 0.559502 -0.200978
C44   C     C_R   0.070352 0.090041 0.124960 0.149120
C45   C     C_R   0.273445 0.689037 0.252105 -0.153928
C46   C     C_R   0.003369 0.137006 0.112403 0.054541
C47   C     C_R   0.942529 0.133950 0.162302 -0.184427
C48   C     C_R   0.957098 0.095246 0.228585 -0.216656
C49   C     C_R   0.033989 0.061302 0.247709 0.025170
C50   C     C_R   0.084299 0.052419 0.190574 0.166200
C51   C     C_3   0.196436 0.086990 0.214333 -0.486432
C52   C     C_R   0.273145 0.460005 0.048729 -0.179292
C53   C     C_3   0.181730 0.127212 0.141639 -0.500412
C54   C     C_R   0.105409 0.602373 0.821571 -0.159777
C55   C     C_R   0.916131 0.202543 0.003550 0.583467
C56   C     C_R   0.702912 0.489067 0.909305 0.178547
C57   C     C_R   0.002407 0.196026 0.056171 -0.095407
C58   C     C_3   0.578447 0.426616 0.751437 -0.959840
C59   C     C_3   0.432049 0.190591 0.796923 -0.908226
C60   C     C_3   0.578528 0.775287 0.993657 -0.194820
C61   C     C_3   0.872450 0.189207 0.551953 -0.902699
C62   C     C_3   0.563819 0.983768 0.208245 -0.245727
C63   C     C_3   0.347515 0.746018 0.002051 -0.848733
C64   C     C_3   0.781734 0.034543 0.938758 -0.348068
C65   C     C_R   0.890311 0.463749 0.187056 -0.118843
C66   C     C_R   0.083044 0.808804 0.027833 -0.114726
C67   C     C_R   0.911271 0.725550 0.953587 -0.142038
H1    H     H_    0.163377 0.320449 0.133764 0.128496
H2    H     H_    0.855884 0.497679 0.703250 0.081177
H3    H     H_    0.698182 0.687304 0.027581 0.205202
H4    H     H_    0.567404 0.662421 0.136080 0.031539
H5    H     H_    0.126376 0.673813 0.443621 0.118071
H6    H     H_    0.792399 0.497440 0.297732 0.114724
H7    H     H_    0.210018 0.730990 0.606329 0.125815
H8    H     H_    0.779971 0.521016 0.441354 0.126577
H9    H     H_    0.199635 0.700969 0.736010 0.113584
H10   H     H_    0.864471 0.547382 0.596163 0.116263
H11   H     H_    0.771270 0.138404 0.832810 0.137694
H12   H     H_    0.808382 0.435166 0.167954 0.093169
H13   H     H_    0.672988 0.991289 0.703783 0.125646
H14   H     H_    0.655035 0.086298 0.386733 0.152451
H15   H     H_    0.548096 0.837949 0.561418 0.123902
H16   H     H_    0.428904 0.779353 0.411183 0.140660
H17   H     H_    0.888981 0.168248 0.154987 0.174657
H18   H     H_    0.914017 0.099013 0.269721 0.139833
H19   H     H_    0.246917 0.152221 0.285411 0.196147
H20   H     H_    0.215121 0.018605 0.196724 0.194390
H21   H     H_    0.226962 0.215204 0.171731 0.189171
H22   H     H_    0.190686 0.080769 0.081244 0.193208
H23   H     H_    0.162989 0.868201 0.060202 0.091309
H24   H     H_    0.770560 0.323037 0.681821 0.109033
H25   H     H_    0.289049 0.413399 0.083786 0.115675
H26   H     H_    0.182390 0.663371 0.847139 0.111575
H27   H     H_    0.297412 0.649692 0.291763 0.092053
H28   H     H_    0.732517 0.537435 0.814048 0.161227
H29   H     H_    0.510235 0.413595 0.767155 0.266884
H30   H     H_    0.584843 0.350902 0.726377 0.251767
H31   H     H_    0.565983 0.451757 0.695724 0.247691
H32   H     H_    0.398014 0.193622 0.907297 0.165714
H33   H     H_    0.423672 0.108363 0.779572 0.246168
H34   H     H_    0.831796 0.709470 0.919736 0.094216
H35   H     H_    0.498793 0.234633 0.786202 0.261709
H36   H     H_    0.360144 0.185620 0.750128 0.249717
H37   H     H_    0.534966 0.701354 0.927400 0.139067
H38   H     H_    0.662112 0.813875 0.010011 0.132158
H39   H     H_    0.549391 0.832869 0.984464 0.144852
H40   H     H_    0.747033 0.224156 0.520053 0.155912
H41   H     H_    0.925059 0.267575 0.560200 0.249614
H42   H     H_    0.851222 0.126052 0.483555 0.246421
H43   H     H_    0.914299 0.172725 0.606893 0.259328
H44   H     H_    0.614991 0.944894 0.220938 0.173314
H45   H     H_    0.141780 0.597873 0.317709 0.096302
H46   H     H_    0.609089 0.072225 0.244195 0.139390
H47   H     H_    0.530964 0.960981 0.133680 0.183895
H48   H     H_    0.307409 0.613477 0.879166 0.145164
H49   H     H_    0.383306 0.800482 0.975529 0.226357
H50   H     H_    0.399732 0.775045 0.074831 0.302391
H51   H     H_    0.273636 0.747632 0.998434 0.220277
H52   H     H_    0.804079 0.000198 0.986024 0.169798
H53   H     H_    0.810936 0.015459 0.885290 0.124574
H54   H     H_    0.695856 0.993856 0.902766 0.176909
H55   H     H_    0.301370 0.845777 0.152759 0.161025
H56   H     H_    0.670651 0.346318 0.020069 0.130116
H57   H     H_    0.319021 0.308793 0.939346 0.140749
H58   H     H_    0.692680 0.616647 0.100311 0.178508
N1    N     N_R   0.055640 0.348550 0.045600 -0.067146
N2    N     N_R   0.811290 0.303400 0.871650 -0.034661
N3    N     N_R   0.205180 0.552990 0.997660 -0.059930
N4    N     N_R   0.814810 0.361830 0.823710 -0.050898
N5    N     N_R   0.201660 0.494570 0.045600 -0.045825
N6    N     N_R   0.068420 0.560530 0.871650 -0.039566
N7    N     N_R   0.948050 0.295860 0.997660 -0.093097
N8    N     N_R   0.185190 0.638170 0.176290 -0.037569
N9    N     N_2   0.672729 0.509207 0.831399 -0.117814
N10   N     N_2   0.449099 0.242232 0.891488 -0.112270
N11   N     N_2   0.780642 0.193199 0.559381 -0.120171
N12   N     N_R   0.798340 0.505430 0.954400 -0.080543
N13   N     N_2   0.331026 0.639177 0.948818 -0.107880
N14   N     N_R   0.931580 0.439470 0.128350 -0.037462
N15   N     N_R   0.051950 0.704140 0.002340 -0.041042
N16   N     N_R   0.944360 0.651450 0.954400 -0.045343
N17   N     N_R   0.039170 0.492150 0.176290 -0.042893
N18   N     N_R   0.188710 0.696600 0.128350 -0.048758
N19   N     N_R   0.794820 0.447010 0.002340 -0.052634
N20   N     N_R   0.960830 0.507850 0.823710 -0.039959
Ni1   Ni    Ni4+2 0.119330 0.493420 0.109950 0.201238
Ni2   Ni    Ni4+2 0.880670 0.506580 0.890050 0.198559
Ni3   Ni    Ni4+2 0.872590 0.372590 0.000000 0.255481
Ni4   Ni    Ni4+2 0.127410 0.627410 0.000000 0.203388
O1    O     O_3   0.564885 0.758485 0.067977 -0.611879
O2    O     O_3   0.481244 0.950230 0.232772 -0.656776
O3    O     O_3   0.814767 0.145303 0.987756 -0.630992

loop_
_geom_bond_atom_site_label_1
_geom_bond_atom_site_label_2
_ccdc_geom_bond_type
C18   H3    S    
C40   N4    A    
C42   H13   S    
C65   H12   S    
C6    C45   A    
N5    Ni1   S    
N17   Ni1   S    
C19   H4    S    
C35   C36   A    
C58   H31   S    
N19   Ni3   S    
C3    C6    A    
C61   H42   S    
C19   O1    S    
C9    C67   A    
N1    Ni1   S    
C55   O3    S    
C39   C41   A    
C20   C30   A    
C58   N9    S    
C54   N6    A    
C2    H45   S    
C26   C27   A    
H40   N11   S    
C64   H52   S    
C64   O3    S    
C25   H10   S    
C62   H47   S    
C18   H58   S    
C30   C31   A    
C63   H50   S    
N14   N17   A    
C27   C29   A    
C14   N10   S    
C61   H43   S    
C10   C17   A    
C64   H54   S    
C1    H1    S    
C15   C17   A    
C18   C19   S    
C61   H41   S    
C58   H29   S    
C9    C66   A    
C54   H26   S    
C44   C53   S    
C62   H44   S    
N18   Ni4   S    
C32   C41   A    
C4    C12   A    
C3    H55   S    
N2    Ni3   S    
C29   H5    S    
C7    C15   S    
C28   C34   A    
C8    C65   A    
C13   C14   A    
C59   H33   S    
C58   H30   S    
C7    C56   A    
C45   H27   S    
C51   H19   S    
C4    H2    S    
N20   Ni2   S    
C44   C46   A    
C50   C51   S    
C20   C29   A    
C35   H14   S    
N14   Ni3   S    
N8    N18   A    
C62   O2    S    
C33   C36   A    
N7    Ni3   S    
C3    N18   A    
N15   N16   A    
C62   H46   S    
C66   H23   S    
C51   H20   S    
C5    C7    A    
C30   H6    S    
C24   H9    S    
C5    N19   A    
C25   C26   A    
C12   C21   S    
H28   N9    S    
C33   C37   A    
C51   C53   S    
C35   C39   A    
N2    N4    A    
C37   C38   A    
C1    C57   A    
C13   H57   S    
C31   H8    S    
C47   C48   A    
H48   N13   S    
N1    N7    A    
C10   C19   S    
C17   C18   S    
H32   N10   S    
C60   O1    S    
C47   H17   S    
C1    N1    A    
C63   H49   S    
C48   C49   A    
C8    C20   S    
N12   N19   A    
C49   C50   A    
C16   C23   A    
C22   C27   A    
C55   C57   A    
C46   C57   S    
C53   H22   S    
C2    N17   A    
C63   N13   S    
C22   C24   A    
C52   H25   S    
C42   C43   A    
C22   H7    S    
C67   N16   A    
C28   N13   S    
C60   H39   S    
C67   H34   S    
C44   C50   A    
C63   H51   S    
C21   C25   A    
C46   C47   A    
C14   C15   A    
C59   H35   S    
C34   C52   A    
N12   Ni2   S    
C11   C34   S    
C2    C8    A    
N3    N5    A    
C56   N9    S    
C36   O2    S    
C5    H56   S    
C45   N8    A    
C64   H53   S    
C6    C33   S    
C52   N5    A    
C23   C32   S    
C59   H36   S    
C38   C43   A    
C56   N12   A    
C11   C13   A    
C38   C39   A    
C4    N20   A    
C59   N10   S    
N6    N20   A    
C53   H21   S    
C16   H11   S    
C40   H24   S    
C16   N2    A    
N4    Ni2   S    
N6    Ni4   S    
C10   C11   A    
N16   Ni2   S    
C65   N14   A    
C28   N3    A    
N3    Ni4   S    
C26   C31   A    
C66   N15   A    
C55   N7    A    
C21   C24   A    
C43   H15   S    
C32   C42   A    
C48   H18   S    
C37   H16   S    
N8    Ni1   S    
C60   H37   S    
N15   Ni4   S    
C41   N11   S    
C12   C54   A    
C60   H38   S    
C23   C40   A    
C61   N11   S    
