data_mof_unit_35309.cif
_audit_creation_date              2012-12-11T18:32:19-0500
_audit_creation_method            fapswitch 2.2
_symmetry_space_group_name_H-M    P1
_symmetry_Int_Tables_number       1
_space_group_crystal_system       triclinic
_cell_length_a                    8.457279
_cell_length_b                    14.649274
_cell_length_c                    18.998569
_cell_angle_alpha                 96.401656
_cell_angle_beta                  93.681473
_cell_angle_gamma                 91.784691
_cell_volume                      2332.54443628

loop_
_atom_site_label
_atom_site_type_symbol
_atom_type_description
_atom_site_fract_x
_atom_site_fract_y
_atom_site_fract_z
_atom_type_partial_charge
Ba1   Ba    Ba6+2 0.841340 0.543980 0.464170 1.824305
Ba2   Ba    Ba6+2 0.348470 0.456100 0.535830 1.826834
C1    C     C_3   0.587118 0.830548 0.183372 -0.285151
C2    C     C_3   0.420485 0.518447 0.240870 0.036514
C3    C     C_2   0.359505 0.518589 0.164769 -0.164956
C4    C     C_3   0.071343 0.796798 0.266595 0.380956
C5    C     C_2   0.207702 0.489599 0.144236 -0.052358
C6    C     C_2   0.101080 0.462844 0.202500 0.341473
C7    C     C_1   0.154765 0.474595 0.271668 0.058976
C8    C     C_R   0.059160 0.486217 0.924965 0.520651
C9    C     C_R   0.153595 0.487988 0.066313 0.498401
C10   C     C_R   0.089273 0.526621 0.797343 -0.115186
C11   C     C_R   0.035508 0.516866 0.724179 0.028278
C12   C     C_3   0.541242 0.760810 0.233987 0.560669
C13   C     C_R   0.800900 0.431535 0.753126 0.018953
C14   C     C_R   0.854255 0.441137 0.824750 -0.181396
C15   C     C_R   0.002372 0.484706 0.847950 -0.051076
C16   C     C_3   0.045291 0.865551 0.209708 1.004064
C17   C     C_R   0.897799 0.461876 0.702564 0.155660
C18   C     C_R   0.690392 0.945167 0.542132 0.018189
C19   C     C_R   0.507396 0.804095 0.503925 0.019057
C20   C     C_R   0.357969 0.773181 0.472975 -0.224706
C21   C     C_R   0.257810 0.829285 0.437520 -0.021819
C22   C     C_R   0.306178 0.918765 0.432618 -0.159823
C23   C     C_3   0.491061 0.306177 0.311647 0.938568
C24   C     C_R   0.455888 0.954546 0.462574 0.030217
C25   C     C_R   0.553869 0.900141 0.503787 0.008571
C26   C     C_R   0.639481 0.090000 0.491006 -0.015025
C27   C     C_R   0.738069 0.036312 0.532213 0.032911
C28   C     C_3   0.222850 0.744020 0.629461 0.649047
C29   C     C_R   0.680187 0.186642 0.493607 0.046364
C30   C     C_R   0.818989 0.223222 0.532386 -0.193067
C31   C     C_R   0.926709 0.166965 0.562444 0.029306
C32   C     C_R   0.885496 0.074755 0.563643 -0.097808
C33   C     C_R   0.504897 0.044703 0.451648 -0.050749
C34   C     C_3   0.578070 0.298782 0.242856 -0.213465
C35   C     C_3   0.295315 0.835792 0.666554 -0.331406
C36   C     C_3   0.997577 0.248815 0.371471 0.903202
C37   C     C_3   0.958475 0.147856 0.339793 1.020212
C38   C     C_3   0.717385 0.681477 0.678325 0.639950
C39   C     C_3   0.769587 0.728306 0.754280 0.589052
C40   C     C_2   0.539690 0.813096 0.306682 0.537445
C41   C     C_2   0.898899 0.801227 0.752997 0.642881
C42   C     C_2   0.167215 0.283797 0.786029 0.549943
C43   C     C_2   0.136462 0.069198 0.786996 0.622074
C44   C     C_2   0.549804 0.169368 0.671898 0.461363
C45   C     C_3   0.081274 0.214787 0.730846 0.233170
C46   C     C_2   0.035633 0.698089 0.236007 0.555644
C47   C     C_2   0.301275 0.594059 0.350687 0.584887
C48   C     C_2   0.763159 0.910226 0.605374 0.472325
C49   C     C_2   0.428021 0.081007 0.389548 0.533006
C50   C     C_3   0.011049 0.131235 0.762474 -0.223875
C51   C     C_3   0.607476 0.220193 0.742825 0.345821
C52   C     C_3   0.596422 0.159132 0.803014 0.285272
C53   C     C_2   0.287703 0.524074 0.290041 -0.291806
H1    H     H_    0.370803 0.823381 0.713974 0.159311
H2    H     H_    0.612020 0.794501 0.130871 0.156080
H3    H     H_    0.980366 0.251592 0.708315 -0.108051
H4    H     H_    0.939407 0.155267 0.807433 0.143420
H5    H     H_    0.930318 0.090596 0.721372 0.033587
H6    H     H_    0.734132 0.240327 0.740810 -0.140832
H7    H     H_    0.663332 0.095645 0.790929 0.049484
H8    H     H_    0.470088 0.139086 0.808298 0.097134
H9    H     H_    0.442055 0.535694 0.126310 0.105677
H10   H     H_    0.198182 0.565883 0.814388 0.133880
H11   H     H_    0.778264 0.415377 0.862443 0.148564
H12   H     H_    0.368252 0.870490 0.630177 0.087754
H13   H     H_    0.313329 0.706390 0.481603 0.123232
H14   H     H_    0.223874 0.960522 0.405603 0.099942
H15   H     H_    0.970754 0.033027 0.588911 0.036756
H16   H     H_    0.197496 0.803604 0.286560 -0.140695
H17   H     H_    0.849785 0.295668 0.534597 0.123484
H18   H     H_    0.320540 0.703677 0.607316 0.012967
H19   H     H_    0.451972 0.864262 0.316238 -0.023190
H20   H     H_    0.798494 0.304041 0.362101 0.295123
H21   H     H_    0.106379 0.298718 0.461455 0.327821
H22   H     H_    0.843801 0.176979 0.252628 0.260418
H23   H     H_    0.200394 0.882047 0.683971 0.095659
H24   H     H_    0.904649 0.031459 0.374010 0.361058
H25   H     H_    0.090164 0.135027 0.258186 0.287324
H26   H     H_    0.612344 0.564061 0.643850 0.306885
H27   H     H_    0.942652 0.816765 0.703459 -0.088714
H28   H     H_    0.740292 0.626611 0.811078 0.351631
H29   H     H_    0.617285 0.826359 0.767320 0.312400
H30   H     H_    0.389536 0.699881 0.161069 0.336853
H31   H     H_    0.320408 0.221858 0.270988 0.313057
H32   H     H_    0.425108 0.408517 0.375321 0.320075
H33   H     H_    0.250473 0.931398 0.222586 0.307858
H34   H     H_    0.823423 0.655671 0.651856 -0.158648
H35   H     H_    0.215858 0.346763 0.769595 0.012878
H36   H     H_    0.215236 0.037173 0.749537 0.019577
H37   H     H_    0.552547 0.204499 0.624859 -0.006361
H38   H     H_    0.979605 0.650641 0.267295 0.003772
H39   H     H_    0.650707 0.164670 0.903585 0.331583
H40   H     H_    0.906040 0.451874 0.143370 0.328897
H41   H     H_    0.295979 0.665597 0.341991 -0.171399
H42   H     H_    0.817418 0.489626 0.611811 0.296937
H43   H     H_    0.873053 0.874987 0.602234 0.018739
H44   H     H_    0.327701 0.124267 0.395747 0.108684
H45   H     H_    0.693554 0.872492 0.205638 0.157789
H46   H     H_    0.946450 0.866488 0.113927 0.329261
H47   H     H_    0.960394 0.986569 0.203021 0.317582
H48   H     H_    0.118040 0.820883 0.563466 0.260093
H49   H     H_    0.490550 0.878367 0.175172 0.137199
H50   H     H_    0.573628 0.226423 0.217846 0.101710
H51   H     H_    0.520511 0.341236 0.204416 0.070733
H52   H     H_    0.703549 0.322999 0.252574 0.111514
N1    N     N_R   0.180245 0.543453 0.955468 -0.206751
N2    N     N_R   0.226024 0.544240 0.024352 -0.204923
N3    N     N_R   0.035024 0.429579 0.035222 -0.223779
N4    N     N_R   0.988674 0.429090 0.966607 -0.201595
O1    O     O_2   0.878750 0.447310 0.330740 -0.424596
O2    O     O_2   0.251314 0.169907 0.548645 -0.447051
O3    O     O_3   0.188392 0.184206 0.680158 -0.611478
O4    O     O_3   0.131030 0.448880 0.418060 -0.461750
O5    O     O_3   0.553640 0.613150 0.531430 -0.470347
O6    O     O_2   0.393070 0.270760 0.474720 -0.456908
O7    O     O_3   0.548851 0.239738 0.354637 -0.621065
O8    O     O_2   0.484282 0.470852 0.753200 -0.432870
O9    O     O_3   0.513848 0.296703 0.758217 -0.594485
O10   O     O_3   0.627390 0.618170 0.367170 -0.404048
O11   O     O_2   0.739045 0.535415 0.252150 -0.434992
O12   O     O_3   0.640290 0.745607 0.639891 -0.678974
O13   O     O_3   0.043358 0.300001 0.317698 -0.647814
O14   O     O_3   0.655703 0.692571 0.231958 -0.583399
O15   O     O_2   0.796630 0.729270 0.525320 -0.421698
O16   O     O_3   0.039210 0.666640 0.400620 -0.484513
O17   O     O_2   0.939968 0.827583 0.455883 -0.432128
O18   O     O_2   0.640592 0.802841 0.353645 -0.549502
O19   O     O_3   0.866461 0.286013 0.401622 -0.798962
O20   O     O_3   0.121187 0.248446 0.423291 -0.697785
O21   O     O_3   0.821859 0.141284 0.292547 -0.711368
O22   O     O_3   0.929791 0.095611 0.395504 -0.721514
O23   O     O_3   0.973702 0.819309 0.322828 -0.585469
O24   O     O_3   0.089333 0.111953 0.305285 -0.726082
O25   O     O_3   0.609950 0.609586 0.686011 -0.700207
O26   O     O_2   0.955405 0.843760 0.808273 -0.498790
O27   O     O_3   0.830991 0.662284 0.795609 -0.747297
O28   O     O_3   0.638260 0.767492 0.786819 -0.667018
O29   O     O_3   0.389660 0.722516 0.212303 -0.790552
O30   O     O_3   0.330414 0.286679 0.292838 -0.754861
O31   O     O_3   0.514196 0.396434 0.344549 -0.725953
O32   O     O_3   0.192157 0.889180 0.184397 -0.719848
O33   O     O_2   0.182781 0.271191 0.848537 -0.548190
O34   O     O_2   0.310950 0.552720 0.669300 -0.428742
O35   O     O_2   0.150105 0.054027 0.848928 -0.496799
O36   O     O_2   0.498880 0.089730 0.666081 -0.579151
O37   O     O_2   0.072939 0.669769 0.176777 -0.557543
O38   O     O_3   0.659917 0.207390 0.866898 -0.688500
O39   O     O_3   0.949634 0.425924 0.185918 -0.700664
O40   O     O_2   0.339965 0.572832 0.409245 -0.560049
O41   O     O_3   0.858371 0.435122 0.632007 -0.743733
O42   O     O_2   0.707482 0.928826 0.662692 -0.594631
O43   O     O_2   0.469950 0.056691 0.330254 -0.545720
O44   O     O_3   0.943686 0.825469 0.152095 -0.700680
O45   O     O_3   0.058670 0.551200 0.581940 -0.454726
O46   O     O_3   0.976611 0.945261 0.240668 -0.705979
O47   O     O_3   0.108696 0.756662 0.574853 -0.724046
O48   O     O_3   0.562310 0.381900 0.632830 -0.474599
O49   O     O_3   0.148882 0.699356 0.680330 -0.633187
O50   O     O_3   0.636050 0.386930 0.468580 -0.415421
O51   O     O_3   0.150490 0.333430 0.599380 -0.472260
P1    P     P_3+3 0.053470 0.419720 0.342720 1.113522
P2    P     P_3+3 0.625250 0.715650 0.546950 1.015781
P3    P     P_3+3 0.056559 0.786386 0.403095 1.028625
P4    P     P_3+3 0.136230 0.580350 0.657290 1.072172
P5    P     P_3+3 0.126243 0.213709 0.596330 1.007244
P6    P     P_3+3 0.600656 0.595372 0.273229 1.079800
P7    P     P_3+3 0.564153 0.271051 0.447812 1.040881
P8    P     P_3+3 0.593277 0.394123 0.725279 1.019935

loop_
_geom_bond_atom_site_label_1
_geom_bond_atom_site_label_2
_ccdc_geom_bond_type
C1    H49   S    
C45   O3    S    
C49   O43   D    
C6    O39   S    
O48   P8    S    
C9    N2    A    
C8    N1    A    
C23   O31   S    
C23   O7    S    
Ba2   O51   S    
C51   O9    S    
O3    P5    S    
C30   H17   S    
C37   O24   S    
C51   C52   S    
H39   O38   S    
C13   C17   A    
C38   O25   S    
C24   C25   A    
H25   O24   S    
C4    C46   S    
C36   O19   S    
C16   O32   S    
C22   C24   A    
Ba1   O1    S    
C36   C37   S    
H21   O20   S    
C44   H37   S    
C52   H8    S    
H46   O44   S    
C48   O42   D    
C13   C14   A    
C35   H12   S    
Ba1   P1    S    
N1    N2    A    
H47   O46   S    
C28   O47   S    
Ba1   Ba2   S    
C7    P1    S    
N3    N4    A    
C18   C48   S    
C50   H5    S    
C21   P3    S    
C35   H1    S    
C51   H6    S    
C1    H45   S    
C29   C30   A    
Ba1   P2    S    
C6    C7    D    
C10   C15   A    
C21   C22   A    
C7    C53   D    
Ba1   O5    S    
O49   P4    S    
C38   H34   S    
Ba2   P4    S    
H33   O32   S    
C42   C45   S    
O16   P3    S    
O34   P4    D    
O13   P1    S    
O50   P7    S    
C19   C25   A    
Ba1   O50   S    
C47   H41   S    
C19   P2    S    
C19   C20   A    
C34   H52   S    
C39   C41   S    
C31   P5    S    
Ba2   O5    S    
O15   P2    D    
Ba2   O50   S    
Ba2   O6    S    
C22   H14   S    
C5    C9    S    
C52   O38   S    
C18   C27   A    
C49   H44   S    
C4    H16   S    
H24   O22   S    
C4    C16   S    
C40   H19   S    
C48   H43   S    
C46   H38   S    
C47   O40   D    
C34   H51   S    
C43   O35   D    
C5    C6    S    
O14   P6    S    
O11   P6    D    
Ba1   O15   S    
H29   O28   S    
C3    C5    D    
C28   H18   S    
C11   C17   A    
C14   C15   A    
C29   P7    S    
O7    P7    S    
C47   C53   S    
C27   C32   A    
C2    P6    S    
C28   C35   S    
Ba2   O34   S    
H22   O21   S    
Ba1   O45   S    
C28   O49   S    
C50   H4    S    
Ba2   O4    S    
C44   O36   D    
O45   P4    S    
C42   O33   D    
C31   C32   A    
O23   P3    S    
C8    N4    A    
H40   O39   S    
C12   O14   S    
H30   O29   S    
C20   H13   S    
C39   O27   S    
C1    C12   S    
C1    H2    S    
C38   C39   S    
C12   O29   S    
C2    C53   S    
C33   C49   S    
O17   P3    D    
C14   H11   S    
Ba2   O48   S    
C8    C15   S    
C42   H35   S    
H26   O25   S    
C37   O22   S    
C26   C33   A    
O1    P1    D    
C32   H15   S    
C26   C27   A    
Ba2   O45   S    
C34   H50   S    
O5    P2    S    
C26   C29   A    
C23   O30   S    
Ba1   O16   S    
C2    C3    S    
O2    P5    D    
H20   O19   S    
H48   O47   S    
C45   C50   S    
C18   C25   A    
C52   H7    S    
C10   H10   S    
C43   C50   S    
C12   C40   S    
C3    H9    S    
C30   C31   A    
C4    O23   S    
C16   O46   S    
C23   C34   S    
C36   O20   S    
C45   H3    S    
O12   P2    S    
O9    P8    S    
C11   P4    S    
C38   O12   S    
C46   O37   D    
C44   C51   S    
H42   O41   S    
C41   O26   D    
C40   O18   D    
O10   P6    S    
H32   O31   S    
O4    P1    S    
C43   H36   S    
Ba1   O10   S    
C39   O28   S    
O8    P8    D    
O51   P5    S    
O6    P7    D    
C24   C33   A    
C10   C11   A    
C13   P8    S    
C37   O21   S    
C41   H27   S    
C20   C21   A    
Ba1   O4    S    
C35   H23   S    
H28   O27   S    
C36   O13   S    
C16   O44   S    
H31   O30   S    
C9    N3    A    
C17   O41   S    
