data_mof_unit_50514.cif
_audit_creation_date              2012-12-10T18:33:38-0500
_audit_creation_method            fapswitch 2.2
_symmetry_space_group_name_H-M    P1
_symmetry_Int_Tables_number       1
_space_group_crystal_system       triclinic
_cell_length_a                    10.504075
_cell_length_b                    15.022195
_cell_length_c                    15.482779
_cell_angle_alpha                 82.590074
_cell_angle_beta                  90.054892
_cell_angle_gamma                 104.53454
_cell_volume                      2343.90081763

loop_
_atom_site_label
_atom_site_type_symbol
_atom_type_description
_atom_site_fract_x
_atom_site_fract_y
_atom_site_fract_z
_atom_type_partial_charge
C1    C     C_R   0.484782 0.442205 0.662138 0.868423
C2    C     C_R   0.521654 0.557905 0.337873 0.873200
C3    C     C_R   0.531156 0.474318 0.811540 -0.173916
C4    C     C_R   0.551761 0.527559 0.188646 -0.192838
C5    C     C_R   0.561425 0.449426 0.897543 0.063256
C6    C     C_R   0.594746 0.554986 0.101840 0.061187
C7    C     C_R   0.545017 0.353982 0.928698 0.051713
C8    C     C_R   0.632477 0.651227 0.070233 0.042833
C9    C     C_R   0.598927 0.517330 0.954401 -0.007005
C10   C     C_R   0.591739 0.488250 0.044690 0.003427
C11   C     C_R   0.580897 0.393546 0.074766 -0.222130
C12   C     C_R   0.642895 0.613184 0.923936 -0.224142
C13   C     C_R   0.561447 0.327449 0.017458 0.385337
C14   C     C_R   0.663129 0.679353 0.981124 0.378960
C15   C     C_R   0.689057 0.843081 0.642262 0.300396
C16   C     C_R   0.308615 0.156915 0.358450 0.296990
C17   C     C_R   0.664259 0.755399 0.614835 0.433714
C18   C     C_R   0.335678 0.245035 0.385070 0.439839
C19   C     C_R   0.514027 0.793954 0.511252 -0.139011
C20   C     C_R   0.484704 0.205488 0.489059 -0.139695
C21   C     C_R   0.538628 0.885064 0.533731 -0.051549
C22   C     C_R   0.458522 0.114167 0.466924 -0.049985
C23   C     C_R   0.742657 0.500985 0.500146 0.875036
C24   C     C_R   0.257333 0.499021 0.499838 0.881654
C25   C     C_R   0.615537 0.905558 0.607642 -0.024272
C26   C     C_R   0.380905 0.093706 0.393277 -0.021928
C27   C     C_R   0.488900 0.955611 0.485460 0.144362
C28   C     C_R   0.507393 0.043385 0.515423 0.146040
C29   C     C_R   0.566352 0.056011 0.596037 -0.307033
C30   C     C_R   0.428755 0.942737 0.405239 -0.305549
C31   C     C_R   0.617266 0.988206 0.643004 -0.008958
C32   C     C_R   0.377355 0.010438 0.358434 -0.004910
C33   C     C_3   0.932671 0.432766 0.560830 -0.187112
C34   C     C_3   0.067267 0.567246 0.439134 -0.188171
C35   C     C_3   0.048170 0.513949 0.578905 -0.152671
C36   C     C_3   0.951765 0.486065 0.421057 -0.152027
C37   C     C_3   0.121526 0.497747 0.499543 -0.002431
C38   C     C_3   0.878430 0.502265 0.500422 0.000245
C39   C     C_3   0.008663 0.416529 0.481464 -0.096954
C40   C     C_3   0.991278 0.583481 0.518498 -0.097538
C41   C     C_R   0.497220 0.408796 0.753996 -0.064459
C42   C     C_R   0.554472 0.592332 0.245855 -0.068616
C43   C     C_R   0.510474 0.287768 0.870380 -0.112350
C44   C     C_R   0.635986 0.716538 0.128418 -0.109162
C45   C     C_R   0.488116 0.315223 0.783364 -0.214071
C46   C     C_R   0.598079 0.687170 0.215798 -0.207529
H1    H     H_    0.091973 0.524949 0.643184 0.160543
H2    H     H_    0.907897 0.475087 0.356787 0.159640
H3    H     H_    0.554359 0.229485 0.537356 0.159107
H4    H     H_    0.444675 0.769609 0.462933 0.159904
H5    H     H_    0.566574 0.116434 0.626987 0.122085
H6    H     H_    0.427311 0.881975 0.374563 0.124512
H7    H     H_    0.873162 0.378332 0.610508 0.149544
H8    H     H_    0.126726 0.621709 0.389464 0.149167
H9    H     H_    0.019586 0.348485 0.466422 0.192303
H10   H     H_    0.980374 0.651534 0.533521 0.193464
H11   H     H_    0.511387 0.455151 0.212175 0.189502
H12   H     H_    0.529901 0.545048 0.788916 0.182630
H13   H     H_    0.602485 0.738530 0.259553 0.170083
H14   H     H_    0.463804 0.263399 0.739313 0.165384
H15   H     H_    0.499629 0.214655 0.891399 0.204040
H16   H     H_    0.666286 0.790377 0.106932 0.206442
H17   H     H_    0.591566 0.369632 0.142581 0.183078
H18   H     H_    0.666200 0.638219 0.855813 0.222595
N1    N     N_R   0.574200 0.731700 0.552740 -0.152815
N2    N     N_R   0.425800 0.268300 0.447260 -0.156316
O1    O     O_R   0.462600 0.383110 0.605620 -0.626363
O2    O     O_R   0.537400 0.616890 0.394380 -0.628564
O3    O     O_R   0.510210 0.531900 0.639510 -0.578089
O4    O     O_R   0.489790 0.468100 0.360490 -0.576463
O5    O     O_R   0.662240 0.425610 0.483080 -0.630003
O6    O     O_R   0.337760 0.574390 0.516920 -0.627402
O7    O     O_R   0.709860 0.574400 0.516970 -0.568811
O8    O     O_R   0.290140 0.425600 0.483030 -0.569328
Zn1   Zn    Zn3+2 0.468210 0.400660 0.477370 0.995201
Zn2   Zn    Zn3+2 0.531790 0.599340 0.522630 0.994437
Cl1   Cl    Cl    0.252869 0.325974 0.336084 -0.528711
Cl2   Cl    Cl    0.749947 0.675637 0.662379 -0.562172
Cl3   Cl    Cl    0.827455 0.877332 0.707247 -0.456309
Cl4   Cl    Cl    0.168838 0.123437 0.294389 -0.475451
Cl5   Cl    Cl    0.552128 0.211526 0.061013 -0.503250
Cl6   Cl    Cl    0.721166 0.796962 0.937187 -0.460981
C47   C     C_2   0.652898 0.002539 0.733704 0.556965
H19   H     H_    0.699380 0.071671 0.748744 0.042774
O9    O     O_2   0.622077 0.938681 0.793183 -0.455503
C48   C     C_2   0.338323 0.994765 0.268496 0.558509
H20   H     H_    0.291497 0.925211 0.254692 0.037750
O10   O     O_2   0.366372 0.057885 0.208175 -0.443723

loop_
_geom_bond_atom_site_label_1
_geom_bond_atom_site_label_2
_ccdc_geom_bond_type
C25   C31   A    
O5    Zn1   S    
C45   H14   S    
C26   C32   A    
C46   H13   S    
C34   C37   S    
O6    Zn2   S    
C35   H1    S    
C43   H15   S    
C33   C39   S    
N1    Zn2   S    
C34   C40   S    
C20   N2    A    
C28   C29   A    
C38   C40   S    
C2    O2    A    
C12   H18   S    
C48   O10   D    
C15   C25   A    
C13   Cl5   S    
C31   C47   S    
O3    Zn2   S    
C42   C46   A    
C30   H6    S    
C1    O1    A    
C15   Cl3   S    
C40   H10   S    
C4    H11   S    
C19   N1    A    
C7    C43   A    
C9    C10   A    
C21   C27   A    
C22   C28   A    
C27   C30   A    
C33   H7    S    
C23   O7    A    
C44   C46   A    
C16   C26   A    
C39   H9    S    
O8    Zn1   S    
C23   O5    A    
C4    C6    A    
C5    C7    A    
C48   H20   S    
C6    C8    A    
C44   H16   S    
C1    O3    A    
C16   Cl4   S    
C5    C9    A    
C20   H3    S    
C47   H19   S    
C32   C48   S    
C24   C37   S    
C16   C18   A    
C43   C45   A    
C1    C41   S    
C47   O9    D    
C12   C14   A    
C34   H8    S    
O7    Zn2   S    
C18   N2    A    
C14   Cl6   S    
O4    Zn1   S    
C24   O6    A    
C29   H5    S    
C15   C17   A    
C21   C25   A    
C3    C41   A    
C8    C14   A    
C35   C37   S    
C36   C39   S    
C8    C44   A    
C20   C22   A    
C3    C5    A    
C6    C10   A    
O2    Zn2   S    
C23   C38   S    
C17   N1    A    
C33   C38   S    
C36   C38   S    
C35   C40   S    
C37   C39   S    
C30   C32   A    
C11   C13   A    
C19   H4    S    
C24   O8    A    
C4    C42   A    
C2    C42   S    
C18   Cl1   S    
N2    Zn1   S    
C17   Cl2   S    
C33   C35   S    
C36   H2    S    
C34   C36   S    
C9    C12   A    
C10   C11   A    
C3    H12   S    
C7    C13   A    
O1    Zn1   S    
C29   C31   A    
C22   C26   A    
C27   C28   A    
C41   C45   A    
C2    O4    A    
C11   H17   S    
C19   C21   A    
