data_mof_unit_48795.cif
_audit_creation_date              2012-12-10T19:46:22-0500
_audit_creation_method            fapswitch 2.2
_symmetry_space_group_name_H-M    P1
_symmetry_Int_Tables_number       1
_space_group_crystal_system       triclinic
_cell_length_a                    10.856448
_cell_length_b                    10.864058
_cell_length_c                    10.427191
_cell_angle_alpha                 90.439805
_cell_angle_beta                  90.28149
_cell_angle_gamma                 90.142899
_cell_volume                      1229.78086922

loop_
_atom_site_label
_atom_site_type_symbol
_atom_type_description
_atom_site_fract_x
_atom_site_fract_y
_atom_site_fract_z
_atom_type_partial_charge
C1    C     C_R   0.495710 0.261510 0.499177 0.793704
C2    C     C_R   0.504285 0.738490 0.500823 0.793699
C3    C     C_R   0.872008 0.493936 0.501616 -0.084492
C4    C     C_R   0.127993 0.506045 0.498377 -0.084500
C5    C     C_R   0.939776 0.455158 0.610073 -0.004105
C6    C     C_R   0.060226 0.544825 0.389921 -0.004086
C7    C     C_R   0.269045 0.220058 0.138541 -0.118180
C8    C     C_R   0.730916 0.780000 0.861513 -0.118223
C9    C     C_R   0.309677 0.170484 0.254596 -0.112539
C10   C     C_R   0.690290 0.829547 0.745444 -0.112543
C11   C     C_R   0.426376 0.115521 0.262906 0.127473
C12   C     C_R   0.573583 0.884484 0.737107 0.127513
C13   C     C_R   0.501408 0.110272 0.153643 -0.157490
C14   C     C_R   0.498536 0.889735 0.846358 -0.157491
C15   C     C_R   0.460608 0.160674 0.037998 -0.149207
C16   C     C_R   0.539330 0.839359 0.962017 -0.149213
C17   C     C_R   0.344480 0.215384 0.030397 -0.120375
C18   C     C_R   0.655467 0.784674 0.969643 -0.120379
C19   C     C_R   0.476888 0.932423 0.388262 -0.253861
C20   C     C_R   0.523093 0.067578 0.611743 -0.253850
C21   C     C_R   0.506649 0.872109 0.502308 -0.083395
C22   C     C_R   0.493335 0.127892 0.497696 -0.083392
C23   C     C_R   0.261556 0.503924 0.499437 0.793904
C24   C     C_R   0.738444 0.496070 0.500562 0.793920
C25   C     C_R   0.531964 0.940505 0.615354 -0.000491
C26   C     C_R   0.468010 0.059496 0.384653 -0.000481
C27   C     C_1   0.500018 0.500010 0.071944 0.091618
C28   C     C_1   0.499980 0.499991 0.928056 0.091647
C29   C     C_R   0.230778 0.761186 0.168938 -0.135776
C30   C     C_R   0.769251 0.238926 0.831208 -0.135796
C31   C     C_R   0.178994 0.711287 0.279675 -0.106458
C32   C     C_R   0.821043 0.288747 0.720438 -0.106519
C33   C     C_R   0.117853 0.597221 0.273824 0.133839
C34   C     C_R   0.882152 0.402828 0.726201 0.133846
C35   C     C_R   0.108749 0.534417 0.155931 -0.149968
C36   C     C_R   0.891222 0.465725 0.844035 -0.149903
C37   C     C_R   0.162546 0.583579 0.045994 -0.144941
C38   C     C_R   0.837413 0.416642 0.954003 -0.144956
C39   C     C_R   0.223298 0.697015 0.052431 -0.118930
C40   C     C_R   0.776690 0.303191 0.947656 -0.118936
C41   C     C_R   0.932793 0.537037 0.392696 -0.248369
C42   C     C_R   0.067208 0.462937 0.607293 -0.248385
Cu1   Cu    Cu3+1 0.500000 0.500000 0.625300 0.978256
Cu2   Cu    Cu3+1 0.500000 0.500000 0.374700 0.978252
H1    H     H_    0.591282 0.067412 0.158191 0.126792
H2    H     H_    0.408658 0.932581 0.841791 0.126778
H3    H     H_    0.518693 0.156812 0.954083 0.130247
H4    H     H_    0.481236 0.843225 0.045922 0.130250
H5    H     H_    0.456996 0.880234 0.301638 0.153475
H6    H     H_    0.542988 0.119769 0.698368 0.153490
H7    H     H_    0.276097 0.849908 0.173140 0.120298
H8    H     H_    0.723958 0.150191 0.827076 0.120312
H9    H     H_    0.185712 0.761634 0.369513 0.104328
H10   H     H_    0.814353 0.238330 0.630647 0.104357
H11   H     H_    0.060491 0.447295 0.149572 0.114862
H12   H     H_    0.939461 0.552858 0.850323 0.114832
H13   H     H_    0.156706 0.534007 0.955720 0.126191
H14   H     H_    0.843224 0.466289 0.044230 0.126182
H15   H     H_    0.880702 0.568566 0.310223 0.154042
H16   H     H_    0.119298 0.431416 0.689770 0.154049
H17   H     H_    0.312907 0.253998 0.940702 0.126490
H18   H     H_    0.687037 0.746082 0.059348 0.126494
H19   H     H_    0.178758 0.261315 0.132219 0.120749
H20   H     H_    0.821212 0.738771 0.867857 0.120740
N1    N     N_1   0.500010 0.499990 0.186410 -0.139414
N2    N     N_1   0.499990 0.500010 0.813590 -0.139408
O1    O     O_R   0.499990 0.319650 0.605810 -0.585772
O2    O     O_R   0.500010 0.680350 0.394190 -0.585763
O3    O     O_R   0.499990 0.319640 0.394190 -0.565783
O4    O     O_R   0.500010 0.680360 0.605810 -0.565784
O5    O     O_R   0.319640 0.500010 0.605810 -0.589586
O6    O     O_R   0.680360 0.499990 0.394190 -0.589588
O7    O     O_R   0.319650 0.500010 0.394190 -0.562593
O8    O     O_R   0.680350 0.499990 0.605810 -0.562587
H21   H     H_    0.264063 0.735409 0.967033 0.129150
H22   H     H_    0.735914 0.264859 0.033078 0.129176
H23   H     H_    0.250239 0.174251 0.337662 0.106275
H24   H     H_    0.749740 0.825784 0.662390 0.106279

loop_
_geom_bond_atom_site_label_1
_geom_bond_atom_site_label_2
_ccdc_geom_bond_type
C30   C32   A    
C5    C42   A    
C15   H3    S    
C16   H4    S    
C10   H24   S    
C14   H2    S    
C36   H12   S    
C38   C40   A    
C2    O2    A    
C20   C25   A    
C15   C17   A    
C19   C26   A    
C20   H6    S    
C17   H17   S    
C38   H14   S    
C7    C17   A    
C6    C41   A    
C31   C33   A    
C39   H21   S    
Cu1   O8    S    
C1    C22   S    
Cu2   N1    S    
C23   O7    A    
C32   H10   S    
C37   C39   A    
C35   H11   S    
C23   O5    A    
C41   H15   S    
C4    C6    A    
C42   H16   S    
C4    C23   S    
C18   H18   S    
C11   C26   S    
C1    O3    A    
C40   H22   S    
C32   C34   A    
C28   N2    T    
Cu1   Cu2   S    
C27   N1    T    
C19   H5    S    
C5    C34   S    
C29   C39   A    
C2    C21   S    
C30   C40   A    
Cu2   O3    S    
C9    H23   S    
C31   H9    S    
C9    C11   A    
C7    H19   S    
C10   C12   A    
C8    H20   S    
C16   C18   A    
C3    C24   S    
C20   C22   A    
Cu1   O4    S    
C13   C15   A    
C14   C16   A    
Cu2   O2    S    
C24   O6    A    
C29   H7    S    
C35   C37   A    
C7    C9    A    
C21   C25   A    
C3    C41   A    
Cu1   O5    S    
C19   C21   A    
C8    C10   A    
C12   C14   A    
C3    C5    A    
C1    O1    A    
C6    C33   S    
C12   C25   S    
C36   C38   A    
C29   C31   A    
C13   H1    S    
C11   C13   A    
C24   O8    A    
C4    C42   A    
Cu1   N2    S    
C33   C35   A    
Cu2   O6    S    
C34   C36   A    
Cu2   O7    S    
C8    C18   A    
Cu1   O1    S    
C22   C26   A    
C27   C28   S    
C2    O4    A    
C37   H13   S    
C30   H8    S    
