data_mof_unit_21592.cif
_audit_creation_date              2012-10-26T21:24:46-0400
_audit_creation_method            fapswitch 2.2
_symmetry_space_group_name_H-M    P1
_symmetry_Int_Tables_number       1
_space_group_crystal_system       triclinic
_cell_length_a                    9.555593
_cell_length_b                    10.816795
_cell_length_c                    15.551005
_cell_angle_alpha                 89.952862
_cell_angle_beta                  74.226528
_cell_angle_gamma                 89.948119
_cell_volume                      1546.83778065

loop_
_atom_site_label
_atom_site_type_symbol
_atom_type_description
_atom_site_fract_x
_atom_site_fract_y
_atom_site_fract_z
_atom_type_partial_charge
C1    C     C_R   0.999346 0.262350 0.501517 0.548500
C2    C     C_R   0.224275 0.455459 0.045497 0.045827
C3    C     C_R   0.321539 0.503450 0.091620 0.035728
C4    C     C_R   0.917991 0.500801 0.671966 0.541406
C5    C     C_R   0.079124 0.430081 0.091253 -0.142033
C6    C     C_R   0.030440 0.447027 0.183260 -0.142986
C7    C     C_R   0.265728 0.528553 0.183338 -0.103681
C8    C     C_R   0.121561 0.063419 0.509188 0.014029
C9    C     C_R   0.995464 0.129203 0.510119 0.007566
C10   C     C_R   0.863651 0.064526 0.523542 -0.159969
C11   C     C_R   0.863616 0.935646 0.523445 -0.159679
C12   C     C_R   0.670364 0.508379 0.906499 0.033534
C13   C     C_R   0.995376 0.870743 0.509991 0.010462
C14   C     C_R   0.121511 0.936217 0.509110 0.024148
C15   C     C_3   0.269734 0.929508 0.445285 -0.275931
C16   C     C_R   0.999277 0.737637 0.501432 0.543131
C17   C     C_3   0.269808 0.069933 0.445377 -0.253151
C18   C     C_R   0.595893 0.585244 0.450802 0.103870
C19   C     C_R   0.550130 0.423954 0.554911 -0.002287
C20   C     C_R   0.401226 0.424254 0.555131 -0.002067
C21   C     C_R   0.448995 0.583250 0.449334 0.171965
C22   C     C_3   0.492810 0.591102 0.349833 0.210823
C23   C     C_R   0.770368 0.544601 0.954473 0.049337
C24   C     C_3   0.649241 0.601083 0.352327 -0.210785
C25   C     C_R   0.081543 0.500217 0.327997 0.545844
C26   C     C_R   0.871668 0.507922 0.769880 -0.000638
C27   C     C_R   0.124820 0.494115 0.229977 -0.003190
C28   C     C_R   0.918876 0.557513 0.910759 -0.141578
C29   C     C_R   0.969472 0.538606 0.818997 -0.140533
C30   C     C_R   0.724367 0.491264 0.813798 -0.131625
C31   C     C_R   0.520152 0.492832 0.952365 0.033722
C32   C     C_R   0.471312 0.520549 0.045361 0.034949
C33   C     C_R   0.574894 0.559714 0.089669 -0.124651
C34   C     C_R   0.721321 0.569476 0.045331 -0.137632
C35   C     C_R   0.417726 0.448385 0.908813 -0.136694
C36   C     C_R   0.273131 0.430364 0.954650 -0.139285
Cu1   Cu    Cu3+1 0.140670 0.499980 0.500000 0.989066
Cu2   Cu    Cu3+1 0.859330 0.500020 0.500000 0.935199
F1    F     F_    0.469199 0.480016 0.311756 -0.638632
H1    H     H_    0.796701 0.598048 0.082537 0.110540
H2    H     H_    0.326285 0.361228 0.598509 0.104502
H3    H     H_    0.329030 0.574643 0.220746 0.155985
H4    H     H_    0.450348 0.674305 0.323298 0.068197
H5    H     H_    0.717229 0.522833 0.318382 0.186501
H6    H     H_    0.696719 0.694290 0.333633 0.066070
H7    H     H_    0.920553 0.420105 0.217942 0.133460
H8    H     H_    0.199386 0.394011 0.918809 0.108422
H9    H     H_    0.995506 0.584771 0.947355 0.113543
H10   H     H_    0.083888 0.551979 0.786224 0.127735
H11   H     H_    0.653438 0.468542 0.773175 0.117817
H12   H     H_    0.004707 0.392632 0.056355 0.118317
H13   H     H_    0.547694 0.582026 0.159409 0.152537
H14   H     H_    0.445470 0.422575 0.839463 0.096163
H15   H     H_    0.761980 0.112806 0.529899 0.133093
H16   H     H_    0.761944 0.887565 0.529703 0.134897
H17   H     H_    0.350894 0.888790 0.476555 0.130366
H18   H     H_    0.268962 0.888776 0.379764 0.128814
H19   H     H_    0.350971 0.110220 0.476747 0.143970
H20   H     H_    0.269101 0.110979 0.379896 0.159446
H21   H     H_    0.586838 0.360466 0.597996 0.105874
N1    N     N_R   0.648210 0.500930 0.499430 -0.226989
N2    N     N_R   0.352300 0.500890 0.499430 -0.201542
O1    O     O_R   0.118810 0.319640 0.500000 -0.492359
O2    O     O_R   0.881230 0.319680 0.499990 -0.509646
O3    O     O_R   0.055580 0.499970 0.629840 -0.514444
O4    O     O_R   0.818000 0.500010 0.629830 -0.512312
O5    O     O_R   0.118770 0.680320 0.500010 -0.512204
O6    O     O_R   0.881190 0.680360 0.500000 -0.506607
O7    O     O_R   0.182000 0.499990 0.370170 -0.433306
O8    O     O_R   0.944420 0.500030 0.370160 -0.518920

loop_
_geom_bond_atom_site_label_1
_geom_bond_atom_site_label_2
_ccdc_geom_bond_type
C2    C3    A    
C4    C26   S    
Cu2   O8    S    
C18   N1    A    
C23   C28   A    
Cu1   Cu2   S    
C16   O6    A    
Cu1   O7    S    
C19   H21   S    
C25   C27   S    
C18   C21   A    
C11   C13   A    
C9    C10   A    
C3    C7    A    
C8    C17   S    
C14   C15   S    
C6    C27   A    
C17   H19   S    
C23   C34   A    
C12   C30   A    
C15   H17   S    
Cu2   N1    S    
C20   H2    S    
C30   H11   S    
C1    C9    S    
C16   O5    A    
C29   H10   S    
C13   C14   A    
C32   C33   A    
C33   H13   S    
C4    O4    A    
C15   H18   S    
C12   C23   A    
C21   N2    A    
C3    C32   A    
C35   C36   A    
C19   N1    A    
C34   H1    S    
C22   F1    S    
Cu1   O5    S    
C22   C24   S    
C28   C29   A    
Cu1   O1    S    
C17   H20   S    
C26   C30   A    
Cu2   O2    S    
Cu1   N2    S    
C12   C31   A    
C20   N2    A    
C5    C6    A    
C24   H5    S    
C31   C35   A    
C33   C34   A    
C13   C16   S    
C2    C5    A    
C25   O7    A    
C10   C11   A    
C24   H6    S    
C10   H15   S    
C1    O2    A    
C1    O1    A    
C18   C24   S    
C11   H16   S    
C7    C27   A    
C26   C29   A    
C35   H14   S    
C7    H3    S    
C2    C36   A    
C15   C17   S    
Cu2   O4    S    
C4    O3    A    
C28   H9    S    
C8    C14   A    
C25   O8    A    
C6    H7    S    
C36   H8    S    
C21   C22   S    
C31   C32   A    
C5    H12   S    
C19   C20   A    
Cu2   O6    S    
C8    C9    A    
C22   H4    S    
Cu1   O3    S    
