data_mof_unit_32518.cif
_audit_creation_date              2012-12-10T18:57:08-0500
_audit_creation_method            fapswitch 2.2
_symmetry_space_group_name_H-M    P1
_symmetry_Int_Tables_number       1
_space_group_crystal_system       triclinic
_cell_length_a                    8.72257
_cell_length_b                    10.84916
_cell_length_c                    9.565189
_cell_angle_alpha                 90.684878
_cell_angle_beta                  98.166245
_cell_angle_gamma                 90.462456
_cell_volume                      895.892217971

loop_
_atom_site_label
_atom_site_type_symbol
_atom_type_description
_atom_site_fract_x
_atom_site_fract_y
_atom_site_fract_z
_atom_type_partial_charge
C1    C     C_R   0.496575 0.262579 0.498613 0.793109
C2    C     C_R   0.514965 0.934976 0.376181 -0.157507
C3    C     C_R   0.483668 0.871420 0.496606 -0.146532
C4    C     C_R   0.428267 0.938658 0.604580 0.090520
C5    C     C_3   0.474800 0.939008 0.761323 0.264587
C6    C     C_3   0.474475 0.079002 0.758225 -0.474710
C7    C     C_R   0.628058 0.537564 0.091345 0.166440
C8    C     C_R   0.379699 0.450943 0.057986 -0.008155
C9    C     C_R   0.379724 0.450833 0.909416 0.010931
C10   C     C_R   0.629129 0.537535 0.943813 0.204824
C11   C     C_3   0.701511 0.663959 0.955306 0.245672
C12   C     C_R   0.203822 0.499416 0.463580 0.889452
C13   C     C_3   0.702422 0.660650 0.113656 -0.506678
C14   C     C_R   0.497127 0.737861 0.500169 0.838994
C15   C     C_R   0.796132 0.498335 0.536197 0.921877
C16   C     C_2   0.037692 0.498903 0.443460 -0.372695
C17   C     C_2   0.962233 0.495572 0.555527 -0.326035
C18   C     C_R   0.428812 0.065954 0.602796 0.047477
C19   C     C_R   0.480991 0.129794 0.492881 -0.087888
C20   C     C_R   0.512822 0.063257 0.373853 -0.161022
Cu1   Cu    Cu3+1 0.499990 0.499980 0.640670 1.022461
Cu2   Cu    Cu3+1 0.500010 0.500020 0.359330 0.971643
H1    H     H_    0.818715 0.655215 0.177840 0.225563
H2    H     H_    0.624767 0.730116 0.151105 0.200819
H3    H     H_    0.022975 0.491487 0.662566 0.218813
H4    H     H_    0.545821 0.109729 0.282878 0.181797
H5    H     H_    0.549860 0.886591 0.286859 0.183897
H6    H     H_    0.592567 0.902454 0.792806 0.103918
H7    H     H_    0.382620 0.123546 0.810157 0.235243
H8    H     H_    0.591922 0.120507 0.786844 0.184302
H9    H     H_    0.281059 0.412784 0.099904 0.157700
N1    N     N_R   0.500980 0.500930 0.148050 -0.191557
N2    N     N_R   0.500990 0.500890 0.852140 -0.209772
O1    O     O_R   0.500000 0.319640 0.618810 -0.592403
O2    O     O_R   0.500020 0.319680 0.381230 -0.592831
O3    O     O_R   0.274830 0.499980 0.591380 -0.572082
O4    O     O_R   0.274850 0.500020 0.353800 -0.582951
O5    O     O_R   0.499980 0.680320 0.618770 -0.545256
O6    O     O_R   0.500000 0.680360 0.381190 -0.591005
O7    O     O_R   0.725150 0.499980 0.646200 -0.535033
O8    O     O_R   0.725170 0.500020 0.408620 -0.591849
H10   H     H_    0.977421 0.501954 0.336016 0.186984
H11   H     H_    0.281160 0.412458 0.841027 0.149371
S1    S     S_3+6 0.892610 0.672755 0.907644 0.022440
O9    O     O_2   0.989371 0.761750 0.005395 -0.248423
O10   O     O_2   0.966836 0.548008 0.917932 -0.328284
O11   O     O_3   0.880604 0.724931 0.741747 -0.537026
H12   H     H_    0.989060 0.730198 0.722624 0.404170
H13   H     H_    0.622452 0.733422 0.903825 0.133956
S2    S     S_3+6 0.326486 0.876762 0.852910 0.007650
O12   O     O_2   0.175073 0.939495 0.806310 -0.251495
O13   O     O_2   0.307753 0.740902 0.822599 -0.288821
O14   O     O_3   0.378269 0.900305 0.027227 -0.559122
H14   H     H_    0.310298 0.844657 0.072956 0.394523

loop_
_geom_bond_atom_site_label_1
_geom_bond_atom_site_label_2
_ccdc_geom_bond_type
C8    C9    A    
C7    C10   A    
S2    O13   D    
C2    H5    S    
C11   H13   S    
C12   O3    A    
C5    H6    S    
C19   C20   A    
Cu1   O1    S    
S1    O11   S    
C4    C18   A    
C15   O7    A    
Cu2   O4    S    
C2    C3    A    
C17   H3    S    
C11   S1    S    
Cu1   O3    S    
O14   H14   S    
C9    N2    A    
Cu2   O2    S    
C11   C13   S    
C13   H1    S    
C3    C14   S    
Cu2   N1    S    
Cu2   O6    S    
C6    H8    S    
S1    O10   D    
C1    O1    A    
S2    O12   D    
C10   N2    A    
Cu1   O7    S    
C5    C6    S    
C6    C18   S    
C5    S2    S    
C9    H11   S    
Cu2   O8    S    
C14   O5    A    
C10   C11   S    
C15   O8    A    
C2    C20   A    
C3    C4    A    
S2    O14   S    
O11   H12   S    
C16   H10   S    
C7    C13   S    
C6    H7    S    
Cu1   N2    S    
S1    O9    D    
C1    O2    A    
C18   C19   A    
C1    C19   S    
C12   O4    A    
C15   C17   S    
C4    C5    S    
C7    N1    A    
C14   O6    A    
Cu1   Cu2   S    
C8    H9    S    
Cu1   O5    S    
C12   C16   S    
C13   H2    S    
C16   C17   D    
C20   H4    S    
C8    N1    A    
