data_mof_unit_53747.cif
_audit_creation_date              2012-12-10T19:45:42-0500
_audit_creation_method            fapswitch 2.2
_symmetry_space_group_name_H-M    P1
_symmetry_Int_Tables_number       1
_space_group_crystal_system       triclinic
_cell_length_a                    10.883651
_cell_length_b                    14.66984
_cell_length_c                    14.682429
_cell_angle_alpha                 64.581854
_cell_angle_beta                  104.093759
_cell_angle_gamma                 103.298349
_cell_volume                      2032.3781451

loop_
_atom_site_label
_atom_site_type_symbol
_atom_type_description
_atom_site_fract_x
_atom_site_fract_y
_atom_site_fract_z
_atom_type_partial_charge
C1    C     C_R   0.475403 0.119742 0.311979 0.833034
C2    C     C_R   0.524036 0.880234 0.688081 0.804351
C3    C     C_R   0.871796 0.993523 0.506701 -0.272270
C4    C     C_R   0.130303 0.988066 0.517357 -0.269849
C5    C     C_R   0.905928 0.937467 0.460921 -0.096045
C6    C     C_R   0.095884 0.045472 0.561820 -0.107448
C7    C     C_R   0.445272 0.186574 0.204152 -0.084171
C8    C     C_R   0.551426 0.813228 0.796207 -0.105369
C9    C     C_R   0.292766 0.229442 0.045879 0.505594
C10   C     C_R   0.695397 0.772280 0.959582 0.521721
C11   C     C_R   0.340125 0.157277 0.140957 -0.279874
C12   C     C_R   0.649898 0.844093 0.862809 -0.336619
C13   C     C_R   0.510476 0.285311 0.169061 -0.185477
C14   C     C_R   0.488644 0.713736 0.829508 -0.198017
C15   C     C_R   0.470609 0.358372 0.071883 0.053898
C16   C     C_R   0.526724 0.641261 0.927287 0.041281
C17   C     C_R   0.353227 0.331786 0.014934 0.035706
C18   C     C_R   0.640223 0.668852 0.986876 0.048400
C19   C     C_R   0.534055 0.460911 0.037672 0.000746
C20   C     C_R   0.464418 0.538734 0.960585 -0.007570
C21   C     C_R   0.336093 0.511135 0.918003 -0.056706
C22   C     C_R   0.661655 0.489572 0.081297 -0.083835
C23   C     C_R   0.263218 0.996045 0.506434 0.857894
C24   C     C_R   0.737701 0.999130 0.500649 0.862396
C25   C     C_R   0.289641 0.409050 0.936135 -0.251332
C26   C     C_R   0.704887 0.591933 0.065266 -0.230522
C27   C     C_R   0.733597 0.290117 0.657455 0.418062
C28   C     C_R   0.260754 0.703832 0.350296 0.415156
C29   C     C_R   0.693287 0.208199 0.627627 -0.009559
C30   C     C_R   0.302400 0.787927 0.377858 -0.059132
C31   C     C_R   0.513547 0.282325 0.516759 0.052242
C32   C     C_R   0.488402 0.719008 0.482637 0.043386
C33   C     C_R   0.555031 0.373630 0.534138 -0.086495
C34   C     C_R   0.448840 0.627586 0.465623 -0.049139
C35   C     C_R   0.665138 0.375412 0.609591 -0.109436
C36   C     C_R   0.339662 0.625692 0.389590 -0.072563
C37   C     C_R   0.488197 0.461002 0.481475 0.007451
C38   C     C_R   0.517144 0.540869 0.517785 0.003230
C39   C     C_R   0.613867 0.530981 0.605022 0.352933
C40   C     C_R   0.396195 0.472879 0.391406 0.426905
C41   C     C_R   0.697239 0.458422 0.640066 -0.113036
C42   C     C_R   0.316304 0.548752 0.351169 -0.063382
C43   C     C_R   0.347167 0.135036 0.748777 0.471520
C44   C     C_R   0.667303 0.938037 0.223731 0.465393
C45   C     C_R   0.271919 0.071581 0.699504 -0.227403
C46   C     C_R   0.755615 0.970716 0.294461 -0.186811
C47   C     C_R   0.188752 0.112830 0.607179 0.060326
C48   C     C_R   0.813287 0.900268 0.386392 0.075346
C49   C     C_R   0.179442 0.217429 0.565235 -0.128260
C50   C     C_R   0.784407 0.795978 0.405331 -0.207921
C51   C     C_R   0.247766 0.279814 0.616180 0.433729
C52   C     C_R   0.705847 0.762690 0.330600 0.461552
C53   C     C_R   0.333801 0.238459 0.706769 -0.311495
C54   C     C_R   0.644746 0.833439 0.241891 -0.304684
C55   C     C_R   0.966806 0.038647 0.565136 0.449537
C56   C     C_R   0.033763 0.923751 0.479340 0.441532
Cu1   Cu    Cu3+1 0.466270 0.918260 0.475690 0.944358
Cu2   Cu    Cu3+1 0.533730 0.081740 0.524310 0.954117
H1    H     H_    0.390765 0.286515 0.745285 0.158581
H2    H     H_    0.582253 0.806388 0.186307 0.166180
H3    H     H_    0.579021 0.733328 0.527109 0.203120
H4    H     H_    0.423011 0.269612 0.471148 0.204789
H5    H     H_    0.244611 0.848026 0.350873 0.179441
H6    H     H_    0.746689 0.144757 0.661172 0.175969
H7    H     H_    0.273698 0.990123 0.734358 0.139328
H8    H     H_    0.777361 0.051458 0.278639 0.150778
H9    H     H_    0.113876 0.249644 0.494997 0.191478
H10   H     H_    0.821156 0.740565 0.478175 0.154122
H11   H     H_    0.194681 0.389899 0.898353 0.230107
H12   H     H_    0.798323 0.612048 0.104497 0.220385
H13   H     H_    0.417014 0.691341 0.774647 0.145035
H14   H     H_    0.585220 0.306558 0.222874 0.147493
H15   H     H_    0.698415 0.921672 0.835843 0.141441
H16   H     H_    0.287136 0.081219 0.169620 0.148507
N1    N     N_R   0.584450 0.204570 0.560790 -0.234447
N2    N     N_R   0.415550 0.795430 0.439210 -0.228442
O1    O     O_R   0.455540 0.022090 0.338120 -0.588147
O2    O     O_R   0.544460 0.977910 0.661880 -0.610249
O3    O     O_R   0.512510 0.160150 0.379180 -0.571263
O4    O     O_R   0.487490 0.839850 0.620820 -0.579908
O5    O     O_R   0.291160 0.930970 0.479480 -0.551863
O6    O     O_R   0.708840 0.069030 0.520520 -0.531636
O7    O     O_R   0.348130 0.069020 0.520540 -0.588009
O8    O     O_R   0.651870 0.930980 0.479460 -0.592855
O9    O     O_3   0.175483 0.204961 0.992140 -0.594309
C57   C     C_3   0.186473 0.134408 0.954017 -0.337197
H17   H     H_    0.193830 0.057496 0.016222 0.154710
H18   H     H_    0.269038 0.160692 0.912408 0.199557
H19   H     H_    0.098695 0.127648 0.898620 0.198262
O10   O     O_3   0.803932 0.797664 0.022029 -0.606867
C58   C     C_3   0.799375 0.888861 0.030970 -0.340406
H20   H     H_    0.701687 0.895072 0.036486 0.172962
H21   H     H_    0.836440 0.956033 0.966477 0.157458
H22   H     H_    0.862801 0.889579 0.102383 0.193284
C59   C     C_2   0.240307 0.583069 0.868926 0.816394
O11   O     O_2   0.243054 0.648829 0.899979 -0.589811
O12   O     O_R   0.144547 0.573609 0.789358 -0.769227
H23   H     H_    0.083702 0.625571 0.764114 0.331607
C60   C     C_2   0.758894 0.418680 0.130703 0.845755
O13   O     O_2   0.843771 0.428545 0.199198 -0.563067
O14   O     O_R   0.755233 0.342159 0.096859 -0.730212
H24   H     H_    0.826297 0.298910 0.136188 0.342504
C61   C     C_2   0.816279 0.471960 0.710456 0.986077
O15   O     O_2   0.919794 0.489342 0.683194 -0.590276
O16   O     O_R   0.810015 0.466218 0.806783 -0.730338
H25   H     H_    0.897738 0.476214 0.847815 0.347873
C62   C     C_2   0.221760 0.553183 0.257999 1.001290
O17   O     O_2   0.139528 0.480008 0.260481 -0.516867
O18   O     O_R   0.230735 0.639153 0.166621 -0.765560
H26   H     H_    0.162085 0.632602 0.108247 0.351166
O19   O     O_3   0.841928 0.286962 0.730740 -0.574791
C63   C     C_3   0.811742 0.217546 0.827423 -0.286190
H27   H     H_    0.795995 0.137603 0.833789 0.113585
H28   H     H_    0.726888 0.234501 0.844067 0.192996
H29   H     H_    0.894131 0.224790 0.886804 0.233636
O20   O     O_3   0.138093 0.689620 0.296979 -0.578857
C64   C     C_3   0.104148 0.780530 0.214950 -0.298302
H30   H     H_    0.185854 0.827913 0.174665 0.152331
H31   H     H_    0.062606 0.825016 0.242000 0.166346
H32   H     H_    0.028905 0.759692 0.158240 0.239881
O21   O     O_3   0.627656 0.589708 0.660303 -0.606289
C65   C     C_3   0.539988 0.544194 0.729634 -0.233074
H33   H     H_    0.534373 0.459523 0.768053 0.168396
H34   H     H_    0.443477 0.565664 0.690699 0.150339
H35   H     H_    0.573721 0.573343 0.790705 0.207645
O22   O     O_3   0.389439 0.416402 0.335028 -0.608648
C66   C     C_3   0.481678 0.464011 0.269667 -0.273363
H36   H     H_    0.576161 0.439397 0.310690 0.177144
H37   H     H_    0.490562 0.548952 0.235191 0.187812
H38   H     H_    0.450591 0.439365 0.205508 0.198915
O23   O     O_3   0.422751 0.097425 0.844018 -0.600403
C67   C     C_3   0.504475 0.034607 0.846180 -0.335819
H39   H     H_    0.550342 0.068482 0.776840 0.180046
H40   H     H_    0.452651 0.956895 0.857564 0.184518
H41   H     H_    0.582622 0.027317 0.912223 0.195332
O24   O     O_3   0.613951 0.011706 0.134350 -0.573271
C68   C     C_3   0.481475 0.981952 0.109618 -0.275800
H42   H     H_    0.432365 0.948715 0.177610 0.151997
H43   H     H_    0.463754 0.928241 0.071299 0.168407
H44   H     H_    0.438323 0.050694 0.054255 0.219527
O25   O     O_3   0.233061 0.381973 0.572862 -0.597572
C69   C     C_3   0.190813 0.407033 0.641735 -0.202094
H45   H     H_    0.269744 0.412456 0.704185 0.134862
H46   H     H_    0.107495 0.351912 0.673842 0.215574
H47   H     H_    0.159170 0.483257 0.599617 0.208905
O26   O     O_3   0.679281 0.660914 0.344336 -0.607787
C70   C     C_3   0.793289 0.617573 0.374381 -0.262902
H48   H     H_    0.828788 0.596441 0.457389 0.171997
H49   H     H_    0.868982 0.668659 0.328825 0.201299
H50   H     H_    0.772090 0.546262 0.361022 0.197346
O27   O     O_3   0.934165 0.080413 0.623053 -0.561522
C71   C     C_3   0.929609 0.004456 0.722635 -0.307456
H51   H     H_    0.022753 0.975079 0.758961 0.167860
H52   H     H_    0.851855 0.940365 0.721970 0.157143
H53   H     H_    0.909189 0.038291 0.770965 0.167708
O28   O     O_3   0.063363 0.854256 0.450174 -0.581000
C72   C     C_3   0.081845 0.763112 0.537929 -0.265325
H54   H     H_    0.005495 0.737869 0.585690 0.141844
H55   H     H_    0.175781 0.771247 0.586664 0.186314
H56   H     H_    0.080723 0.701570 0.512752 0.198687

loop_
_geom_bond_atom_site_label_1
_geom_bond_atom_site_label_2
_ccdc_geom_bond_type
C44   O24   S    
O14   H24   S    
C27   C29   A    
C1    O1    A    
C14   H13   S    
C5    C56   A    
C36   C42   A    
C59   O11   D    
C18   C26   A    
C6    C55   A    
C56   O28   S    
C63   H28   S    
O12   H23   S    
C53   H1    S    
C47   C49   A    
C54   H2    S    
O9    C57   S    
C15   C19   A    
C68   H43   S    
C72   H54   S    
C23   O7    A    
O22   C66   S    
Cu1   N2    S    
O28   C72   S    
C70   H49   S    
C32   H3    S    
C46   H8    S    
C37   C40   A    
C64   H31   S    
C38   C39   A    
C57   H18   S    
O20   C64   S    
C24   O6    A    
C28   O20   S    
C70   H48   S    
C9    O9    S    
C51   O25   S    
C3    C55   A    
C43   C53   A    
O19   C63   S    
C44   C46   A    
C67   H39   S    
C49   C51   A    
C50   C52   A    
C62   O17   D    
C31   C33   A    
C14   C16   A    
C23   O5    A    
C42   C62   S    
O10   C58   S    
C8    C12   A    
C40   C42   A    
C29   H6    S    
C27   O19   S    
C72   H55   S    
C34   C38   A    
C12   H15   S    
C4    C56   A    
C62   O18   S    
C69   H47   S    
C3    C24   S    
C8    C14   A    
C63   H27   S    
C5    C48   S    
C52   C54   A    
Cu2   N1    S    
C45   C47   A    
C68   H44   S    
C46   C48   A    
C6    C47   S    
Cu1   O1    S    
C19   C22   A    
Cu2   O6    S    
C39   C41   A    
C64   H32   S    
C58   H20   S    
C4    C23   S    
C57   H17   S    
C21   C59   S    
C27   C35   A    
C57   H19   S    
C33   C37   A    
C41   C61   S    
C51   C53   A    
C32   C34   A    
C7    C11   A    
C66   H37   S    
C37   C38   A    
C2    O2    A    
C58   H21   S    
C30   N2    A    
C31   N1    A    
C60   O13   D    
C71   H53   S    
C16   C20   A    
C40   O22   S    
C70   H50   S    
Cu1   O8    S    
C61   O16   S    
C16   C18   A    
C20   C21   A    
C48   C50   A    
C9    C11   A    
C31   H4    S    
O21   C65   S    
C10   C12   A    
Cu2   O3    S    
C9    C17   A    
C60   O14   S    
Cu1   O4    S    
C72   H56   S    
O25   C69   S    
C13   C15   A    
C45   H7    S    
C1    O3    A    
C69   H46   S    
C4    C6    A    
C25   H11   S    
C65   H34   S    
C66   H36   S    
O26   C70   S    
O16   H25   S    
C15   C17   A    
C21   C25   A    
C52   O26   S    
C22   C60   S    
C49   H9    S    
C1    C7    S    
C2    C8    S    
C71   H52   S    
O24   C68   S    
C3    C5    A    
C11   H16   S    
C32   N2    A    
C59   O12   S    
C55   O27   S    
C29   N1    A    
C13   H14   S    
C68   H42   S    
C19   C20   A    
C64   H30   S    
C39   O21   S    
C17   C25   A    
C65   H35   S    
C43   O23   S    
C24   O8    A    
C66   H38   S    
C43   C45   A    
Cu2   O7    S    
C58   H22   S    
Cu1   Cu2   S    
C10   C18   A    
C67   H41   S    
C26   H12   S    
C28   C30   A    
C33   C35   A    
C34   C36   A    
C35   C41   A    
Cu1   O5    S    
C2    O4    A    
Cu2   O2    S    
C44   C54   A    
C7    C13   A    
C10   O10   S    
C71   H51   S    
C28   C36   A    
C67   H40   S    
C22   C26   A    
O18   H26   S    
C61   O15   D    
C69   H45   S    
C65   H33   S    
C30   H5    S    
C50   H10   S    
O27   C71   S    
C63   H29   S    
O23   C67   S    
