data_mof_unit_60383.cif
_audit_creation_date              2012-12-10T16:46:28-0500
_audit_creation_method            fapswitch 2.2
_symmetry_space_group_name_H-M    P1
_symmetry_Int_Tables_number       1
_space_group_crystal_system       triclinic
_cell_length_a                    18.507737
_cell_length_b                    18.513057
_cell_length_c                    34.442885
_cell_angle_alpha                 90.03512
_cell_angle_beta                  90.000255
_cell_angle_gamma                 89.975677
_cell_volume                      11801.3273892

loop_
_atom_site_label
_atom_site_type_symbol
_atom_type_description
_atom_site_fract_x
_atom_site_fract_y
_atom_site_fract_z
_atom_type_partial_charge
C1    C     C_R   0.500002 0.000017 0.605900 0.507410
C2    C     C_R   0.000129 0.631597 0.229804 -0.130705
C3    C     C_R   0.499820 0.065718 0.668807 -0.132504
C4    C     C_R   0.565705 0.999883 0.168785 -0.132188
C5    C     C_R   0.000011 0.434337 0.168758 -0.132148
C6    C     C_R   0.434294 0.000194 0.168784 -0.132347
C7    C     C_R   0.000068 0.565710 0.168806 -0.132011
C8    C     C_R   0.999999 0.499996 0.648425 0.008865
C9    C     C_R   0.500005 0.000034 0.648423 0.008804
C10   C     C_R   0.500000 0.000022 0.148424 0.009009
C11   C     C_R   0.000026 0.500028 0.148422 0.008977
C12   C     C_R   0.933837 0.500455 0.709280 0.008672
C13   C     C_R   0.631629 0.999754 0.229755 -0.130858
C14   C     C_R   0.499814 0.066167 0.709304 0.008731
C15   C     C_R   0.066160 0.499512 0.709281 0.008615
C16   C     C_R   0.500199 0.933880 0.709255 0.008671
C17   C     C_R   0.433837 0.000230 0.209280 0.008794
C18   C     C_R   0.000090 0.566155 0.209302 0.008821
C19   C     C_R   0.566162 0.999906 0.209280 0.008703
C20   C     C_R   0.000031 0.433868 0.209252 0.008851
C21   C     C_R   0.999999 0.499980 0.729631 0.061944
C22   C     C_R   0.500006 0.000019 0.729630 0.062038
C23   C     C_R   0.500000 0.000079 0.229630 0.062063
C24   C     C_R   0.000012 0.368413 0.229700 -0.131111
C25   C     C_R   0.000067 0.500005 0.229627 0.062143
C26   C     C_R   0.368369 0.000438 0.270253 -0.131595
C27   C     C_R   0.000138 0.631585 0.270302 -0.130164
C28   C     C_R   0.631630 0.999761 0.270253 -0.130836
C29   C     C_R   0.000020 0.368400 0.270199 -0.131717
C30   C     C_R   0.868371 0.500937 0.770254 -0.132124
C31   C     C_R   0.499611 0.131599 0.770306 -0.131200
C32   C     C_R   0.131626 0.499010 0.770254 -0.131439
C33   C     C_R   1.000000 0.500000 0.605903 0.507580
C34   C     C_R   0.500397 0.868414 0.770202 -0.131741
C35   C     C_R   0.433835 0.000271 0.290727 0.008354
C36   C     C_R   0.000105 0.566131 0.290750 0.008195
C37   C     C_R   0.566164 0.999925 0.290727 0.008575
C38   C     C_R   0.000046 0.433841 0.290700 0.008733
C39   C     C_R   0.933835 0.500461 0.790728 0.008116
C40   C     C_R   0.499804 0.066146 0.790753 0.008092
C41   C     C_R   0.066162 0.499487 0.790728 0.008553
C42   C     C_R   0.500200 0.933856 0.790702 0.008801
C43   C     C_R   0.499999 0.000095 0.270377 0.062096
C44   C     C_R   0.000004 0.500016 0.105900 0.508033
C45   C     C_R   0.000075 0.499992 0.270375 0.062041
C46   C     C_R   0.999999 0.499975 0.770378 0.062055
C47   C     C_R   0.500003 0.000007 0.770378 0.061941
C48   C     C_R   0.434292 0.000266 0.331221 -0.133347
C49   C     C_R   0.000093 0.565663 0.331242 -0.130407
C50   C     C_R   0.565707 0.999909 0.331221 -0.132164
C51   C     C_R   0.000034 0.434286 0.331195 -0.133214
C52   C     C_R   0.934292 0.500465 0.831222 -0.133650
C53   C     C_R   0.499801 0.065677 0.831247 -0.130275
C54   C     C_R   0.065705 0.499488 0.831222 -0.133257
C55   C     C_R   0.500000 0.000000 0.105903 0.506732
C56   C     C_R   0.500198 0.934300 0.831197 -0.133391
C57   C     C_R   0.500000 0.000065 0.351576 0.008697
C58   C     C_R   0.000046 0.499970 0.351576 0.009459
C59   C     C_R   0.999999 0.499983 0.851577 0.008517
C60   C     C_R   0.499998 0.999981 0.851578 0.009476
C61   C     C_R   0.500000 0.000018 0.394089 0.503927
C62   C     C_R   0.000011 0.499984 0.394091 0.503112
C63   C     C_R   1.000000 0.499996 0.894089 0.502718
C64   C     C_R   0.499999 0.999986 0.894092 0.508628
C65   C     C_R   0.361594 0.138842 0.499709 0.521986
C66   C     C_R   0.868372 0.500930 0.729756 -0.131552
C67   C     C_R   0.861961 0.360887 0.500290 0.539014
C68   C     C_R   0.639400 0.861952 0.500278 0.509268
C69   C     C_R   0.138164 0.639192 0.500265 0.529032
C70   C     C_R   0.639192 0.138177 0.500252 0.531810
C71   C     C_R   0.138544 0.361219 0.499974 0.536311
C72   C     C_R   0.360890 0.861969 0.500285 0.537729
C73   C     C_R   0.861969 0.639050 0.500322 0.517592
C74   C     C_R   0.861582 0.638836 0.999715 0.520718
C75   C     C_R   0.362252 0.860601 0.000409 0.510299
C76   C     C_R   0.138129 0.360749 0.999353 0.510574
C77   C     C_R   0.499618 0.131609 0.729806 -0.131202
C78   C     C_R   0.638816 0.138378 0.999715 0.534643
C79   C     C_R   0.139429 0.637885 0.000544 0.529234
C80   C     C_R   0.638522 0.861206 0.999989 0.535059
C81   C     C_R   0.861276 0.361428 0.999900 0.532452
C82   C     C_R   0.361043 0.138095 0.999610 0.534499
C83   C     C_2   0.186498 0.758457 0.480942 0.066324
C84   C     C_2   0.255571 0.200010 0.471907 0.075490
C85   C     C_2   0.818426 0.238392 0.486584 0.067726
C86   C     C_2   0.760326 0.813633 0.481775 0.074240
C87   C     C_2   0.820109 0.762738 0.489135 0.122445
C88   C     C_R   0.131626 0.499027 0.729756 -0.131201
C89   C     C_2   0.758396 0.186609 0.480830 0.067947
C90   C     C_2   0.191316 0.246298 0.477776 0.074933
C91   C     C_2   0.238321 0.818457 0.486685 0.066810
C92   C     C_2   0.698892 0.245006 0.972190 0.068539
C93   C     C_2   0.755201 0.699703 0.972081 0.076647
C94   C     C_2   0.321348 0.734998 0.990974 0.070313
C95   C     C_2   0.243751 0.297626 0.969833 0.069203
C96   C     C_2   0.292049 0.234247 0.968031 0.111038
C97   C     C_2   0.262619 0.681802 0.985739 0.109824
C98   C     C_2   0.691010 0.746036 0.978035 0.075666
C99   C     C_R   0.500394 0.868427 0.729704 -0.131373
C100  C     C_2   0.747069 0.308125 0.976657 0.067273
C101  C     C_2   0.189815 0.698510 0.503244 -0.060144
C102  C     C_2   0.303263 0.191564 0.501234 -0.069209
C103  C     C_2   0.805484 0.306336 0.498964 -0.053210
C104  C     C_2   0.699660 0.811346 0.503839 -0.103429
C105  C     C_2   0.805732 0.693802 0.499162 -0.071818
C106  C     C_2   0.698511 0.189828 0.503216 -0.059510
C107  C     C_2   0.197743 0.309628 0.496815 -0.062237
C108  C     C_2   0.306325 0.805502 0.498963 -0.052849
C109  C     C_2   0.691814 0.196366 0.001101 -0.054481
C110  C     C_R   0.368370 0.000412 0.229754 -0.131170
C111  C     C_2   0.803200 0.691507 0.001286 -0.069738
C112  C     C_2   0.306736 0.805031 0.999464 -0.087873
C113  C     C_2   0.189457 0.301061 0.996270 -0.096423
C114  C     C_2   0.306622 0.194638 0.999921 -0.058360
C115  C     C_2   0.198588 0.689594 0.004047 -0.066368
C116  C     C_2   0.697666 0.809562 0.996854 -0.061380
C117  C     C_2   0.808855 0.302891 0.997317 -0.058448
C118  C     C_R   0.065703 0.499534 0.668785 -0.132374
C119  C     C_R   0.500193 0.934346 0.668761 -0.132512
C120  C     C_R   0.934295 0.500450 0.668785 -0.132566
H1    H     H_    0.229291 0.694008 0.526392 0.069357
H2    H     H_    0.797087 0.721082 0.028328 0.072502
H3    H     H_    0.251977 0.823718 0.004271 0.073781
H4    H     H_    0.178918 0.255853 0.015441 0.081453
H5    H     H_    0.281348 0.205704 0.027679 0.059644
H6    H     H_    0.190008 0.733178 0.024576 0.069278
H7    H     H_    0.749724 0.826884 0.008045 0.066451
H8    H     H_    0.824260 0.252449 0.011042 0.067863
H9    H     H_    0.116567 0.499171 0.653168 0.135462
H10   H     H_    0.500343 0.883495 0.653127 0.135286
H11   H     H_    0.883432 0.500818 0.653167 0.135384
H12   H     H_    0.296926 0.220951 0.528319 0.072418
H13   H     H_    0.499671 0.116569 0.653206 0.135268
H14   H     H_    0.616569 0.999750 0.153167 0.135529
H15   H     H_    0.999981 0.383487 0.153124 0.135426
H16   H     H_    0.383430 0.000308 0.153166 0.135445
H17   H     H_    0.000084 0.616562 0.153206 0.135510
H18   H     H_    0.817217 0.501299 0.714450 0.110697
H19   H     H_    0.499469 0.182754 0.714521 0.110929
H20   H     H_    0.182780 0.498661 0.714450 0.111095
H21   H     H_    0.500546 0.817290 0.714377 0.110660
H22   H     H_    0.317214 0.000532 0.214448 0.111023
H23   H     H_    0.751456 0.324384 0.506339 0.062101
H24   H     H_    0.000150 0.682742 0.214519 0.111575
H25   H     H_    0.682785 0.999623 0.214449 0.111360
H26   H     H_    0.999987 0.317277 0.214373 0.110789
H27   H     H_    0.317213 0.000577 0.285559 0.110605
H28   H     H_    0.000164 0.682721 0.285630 0.113411
H29   H     H_    0.682786 0.999634 0.285560 0.111727
H30   H     H_    0.000000 0.317255 0.285484 0.109108
H31   H     H_    0.817217 0.501313 0.785561 0.110240
H32   H     H_    0.499457 0.182735 0.785633 0.110921
H33   H     H_    0.182780 0.498630 0.785561 0.111102
H34   H     H_    0.695557 0.772831 0.527494 0.080253
H35   H     H_    0.500551 0.817270 0.785487 0.109254
H36   H     H_    0.383429 0.000411 0.346842 0.136898
H37   H     H_    0.000116 0.616512 0.346880 0.140719
H38   H     H_    0.616571 0.999762 0.346842 0.136352
H39   H     H_    0.000007 0.383436 0.346798 0.133825
H40   H     H_    0.883430 0.500861 0.846844 0.137164
H41   H     H_    0.499640 0.116525 0.846887 0.138941
H42   H     H_    0.116568 0.499092 0.846844 0.135019
H43   H     H_    0.500357 0.883449 0.846799 0.133138
H44   H     H_    0.157601 0.776247 0.425024 0.225133
H45   H     H_    0.750880 0.675544 0.504405 0.066397
H46   H     H_    0.099215 0.810092 0.458384 0.229575
H47   H     H_    0.224509 0.175691 0.415966 0.215658
H48   H     H_    0.313078 0.182738 0.422930 0.225936
H49   H     H_    0.902089 0.169310 0.494416 0.223107
H50   H     H_    0.894169 0.201939 0.448615 0.231023
H51   H     H_    0.771588 0.916858 0.461742 0.255473
H52   H     H_    0.728332 0.858615 0.430437 0.258274
H53   H     H_    0.895179 0.841028 0.475983 0.244805
H54   H     H_    0.919663 0.783176 0.510609 0.211171
H55   H     H_    0.775988 0.157983 0.424838 0.225461
H56   H     H_    0.694068 0.229213 0.526421 0.069111
H57   H     H_    0.809962 0.099460 0.458050 0.222279
H58   H     H_    0.114932 0.168149 0.473299 0.236894
H59   H     H_    0.120857 0.223200 0.434053 0.227519
H60   H     H_    0.169236 0.902060 0.494680 0.222174
H61   H     H_    0.201745 0.894248 0.448834 0.233057
H62   H     H_    0.695334 0.237460 0.913548 0.222231
H63   H     H_    0.624129 0.281329 0.933681 0.230635
H64   H     H_    0.723554 0.674960 0.916290 0.216444
H65   H     H_    0.812190 0.682149 0.922960 0.225733
H66   H     H_    0.426226 0.725526 0.008889 0.249571
H67   H     H_    0.249689 0.326854 0.508197 0.066133
H68   H     H_    0.414788 0.729657 0.959532 0.266092
H69   H     H_    0.268804 0.401739 0.955574 0.264746
H70   H     H_    0.210607 0.359144 0.923912 0.256720
H71   H     H_    0.284457 0.209970 0.910857 0.230940
H72   H     H_    0.357614 0.260077 0.922903 0.259694
H73   H     H_    0.292153 0.639105 0.933992 0.233289
H74   H     H_    0.318874 0.590680 0.973149 0.252200
H75   H     H_    0.614533 0.667878 0.974111 0.239475
H76   H     H_    0.620028 0.722403 0.934636 0.228186
H77   H     H_    0.675430 0.389135 0.967592 0.227241
H78   H     H_    0.324404 0.751477 0.506268 0.062386
H79   H     H_    0.725317 0.366454 0.928115 0.227359
H80   H     H_    0.722496 0.201256 0.027809 0.065011
N1    N     N_3   0.131954 0.765908 0.451483 -0.572724
N2    N     N_3   0.764903 0.662270 0.935686 -0.574004
N3    N     N_3   0.394063 0.709220 0.985509 -0.626382
N4    N     N_3   0.256275 0.353296 0.941498 -0.629600
N5    N     N_3   0.325351 0.216596 0.931493 -0.577379
N6    N     N_3   0.276153 0.620297 0.961285 -0.569925
N7    N     N_3   0.621487 0.721241 0.964930 -0.584547
N8    N     N_3   0.727143 0.374792 0.958109 -0.573829
N9    N     N_3   0.265632 0.162824 0.435466 -0.575807
N10   N     N_3   0.890991 0.215500 0.478021 -0.578625
N11   N     N_3   0.770186 0.864351 0.450591 -0.611257
N12   N     N_3   0.893709 0.786483 0.483694 -0.557517
N13   N     N_3   0.765738 0.132220 0.451269 -0.582157
N14   N     N_3   0.121960 0.221637 0.464347 -0.573226
N15   N     N_3   0.215397 0.891016 0.478221 -0.581778
N16   N     N_3   0.658767 0.237088 0.936679 -0.584626
O1    O     O_3   0.500000 0.000000 0.500000 -0.448605
O2    O     O_R   0.560130 0.000000 0.087440 -0.546992
O3    O     O_R   1.000000 0.560130 0.087440 -0.546472
O4    O     O_R   0.439870 0.000000 0.087440 -0.547510
O5    O     O_R   0.439940 0.000000 0.412560 -0.547684
O6    O     O_R   0.000000 0.439940 0.412560 -0.552531
O7    O     O_R   0.560060 0.000000 0.412560 -0.547317
O8    O     O_R   0.000000 0.560060 0.412560 -0.542916
O9    O     O_R   0.939940 0.500000 0.912560 -0.546151
O10   O     O_R   0.500000 0.939940 0.912560 -0.550796
O11   O     O_R   0.060060 0.500000 0.912560 -0.550664
O12   O     O_3   0.000000 0.500000 0.500000 -0.453824
O13   O     O_R   0.500000 0.060060 0.912560 -0.538087
O14   O     O_R   0.415450 0.144560 0.522930 -0.550461
O15   O     O_R   0.855440 0.415450 0.522930 -0.551641
O16   O     O_R   0.584550 0.855440 0.522930 -0.539653
O17   O     O_R   0.144560 0.584550 0.522930 -0.555125
O18   O     O_R   0.584550 0.144560 0.522930 -0.553106
O19   O     O_R   0.144560 0.415450 0.522930 -0.551696
O20   O     O_R   0.415450 0.855440 0.522930 -0.551707
O21   O     O_R   0.855440 0.584550 0.522930 -0.551772
O22   O     O_R   0.915450 0.644560 0.022930 -0.550641
O23   O     O_3   0.000000 0.500000 0.000000 -0.448785
O24   O     O_R   0.355440 0.915450 0.022930 -0.537934
O25   O     O_R   0.084550 0.355440 0.022930 -0.540024
O26   O     O_R   0.644560 0.084550 0.022930 -0.553278
O27   O     O_R   0.084550 0.644560 0.022930 -0.551637
O28   O     O_R   0.644560 0.915450 0.022930 -0.550460
O29   O     O_R   0.915450 0.355440 0.022930 -0.553672
O30   O     O_R   0.355440 0.084550 0.022930 -0.550468
O31   O     O_R   0.644640 0.915430 0.477080 -0.549617
O32   O     O_R   0.084570 0.644640 0.477080 -0.489925
O33   O     O_R   0.355360 0.084570 0.477080 -0.495347
O34   O     O_3   0.500000 0.000000 0.000000 -0.448783
O35   O     O_R   0.915430 0.355360 0.477080 -0.497063
O36   O     O_R   0.355360 0.915430 0.477080 -0.498130
O37   O     O_R   0.915430 0.644640 0.477080 -0.497383
O38   O     O_R   0.644640 0.084570 0.477080 -0.495152
O39   O     O_R   0.084570 0.355360 0.477080 -0.496302
O40   O     O_R   0.144640 0.415430 0.977080 -0.547405
O41   O     O_R   0.584570 0.144640 0.977080 -0.498757
O42   O     O_R   0.855360 0.584570 0.977080 -0.496432
O43   O     O_R   0.415430 0.855360 0.977080 -0.544853
O44   O     O_R   0.855360 0.415430 0.977080 -0.492254
O45   O     O_R   0.500000 0.939870 0.587440 -0.546653
O46   O     O_R   0.415430 0.144640 0.977080 -0.504378
O47   O     O_R   0.144640 0.584570 0.977080 -0.496378
O48   O     O_R   0.584570 0.855360 0.977080 -0.504310
O49   O     O_R   0.060130 0.500000 0.587440 -0.546602
O50   O     O_R   0.500000 0.060130 0.587440 -0.546848
O51   O     O_R   0.939870 0.500000 0.587440 -0.546605
O52   O     O_R   0.000000 0.439870 0.087440 -0.546063
Zn1   Zn    Zn3+2 0.414160 1.000000 0.467250 0.961622
Zn2   Zn    Zn3+2 0.914220 0.500000 0.532750 0.931955
Zn3   Zn    Zn3+2 0.500000 0.914220 0.532750 0.934853
Zn4   Zn    Zn3+2 0.085780 0.500000 0.532750 0.931727
Zn5   Zn    Zn3+2 0.000000 0.585780 0.032750 0.933765
Zn6   Zn    Zn3+2 0.414220 0.000000 0.032750 0.935829
Zn7   Zn    Zn3+2 0.000000 0.414220 0.032750 0.934652
Zn8   Zn    Zn3+2 0.585780 0.000000 0.032750 0.932391
Zn9   Zn    Zn3+2 0.000000 0.414160 0.467250 0.957541
Zn10  Zn    Zn3+2 0.585840 1.000000 0.467250 0.936386
Zn11  Zn    Zn3+2 0.000000 0.585840 0.467250 0.963365
Zn12  Zn    Zn3+2 0.914160 0.500000 0.967250 0.962215
Zn13  Zn    Zn3+2 0.500000 0.914160 0.967250 0.936600
Zn14  Zn    Zn3+2 0.085840 0.500000 0.967250 0.936527
Zn15  Zn    Zn3+2 0.500000 0.085840 0.967250 0.961635
Zn16  Zn    Zn3+2 0.500000 0.085780 0.532750 0.932710

loop_
_geom_bond_atom_site_label_1
_geom_bond_atom_site_label_2
_ccdc_geom_bond_type
C52   H40   S    
C40   C47   A    
C58   C62   S    
C31   H32   S    
C65   O33   A    
C2    C18   A    
C120  H11   S    
C2    H24   S    
C87   N12   S    
C95   C96   S    
C34   C42   A    
C13   H25   S    
C83   N1    S    
H52   N11   S    
C86   C104  D    
C85   N10   S    
C70   O38   A    
O17   Zn4   S    
C64   O10   A    
C100  N8    S    
C8    C118  A    
C48   C57   A    
C44   O52   A    
O7    Zn10  S    
C34   H35   S    
C50   H38   S    
C7    C11   A    
C44   O3    A    
C56   H43   S    
C92   C100  S    
C75   C112  S    
C78   O26   A    
O47   Zn14  S    
C65   O14   A    
C33   O51   A    
H54   N12   S    
H55   N13   S    
C89   N13   S    
O49   Zn4   S    
C102  H12   S    
C90   C107  D    
C5    C11   A    
C71   C107  S    
C49   H37   S    
C70   O18   A    
C64   O13   A    
O44   Zn12  S    
O51   Zn2   S    
C92   C109  D    
C20   C25   A    
O13   Zn15  S    
C25   C45   A    
C32   C88   A    
O15   Zn2   S    
C81   C117  S    
O3    Zn5   S    
C119  H10   S    
C23   C43   A    
C31   C40   A    
O52   Zn7   S    
H71   N5    S    
C14   C77   A    
C7    H17   S    
C110  H22   S    
C69   O17   A    
C24   C29   A    
C88   H20   S    
C38   C45   A    
C6    H16   S    
O37   Zn11  S    
C42   C56   A    
C29   H30   S    
C12   C120  A    
C4    C19   A    
C98   C116  D    
C85   C89   S    
C1    O50   A    
C20   C24   A    
O14   Zn16  S    
O24   Zn6   S    
C27   H28   S    
O32   Zn11  S    
C116  H7    S    
C87   C105  D    
C89   C106  D    
C82   O46   A    
C106  H56   S    
C91   N15   S    
C41   C46   A    
C13   C28   A    
C92   N16   S    
O21   Zn2   S    
C79   O27   A    
C97   N6    S    
C97   C115  D    
O22   Zn5   S    
C35   C43   A    
C26   C110  A    
C85   C103  D    
C84   C102  D    
C42   C47   A    
C2    C27   A    
O9    Zn12  S    
C39   C52   A    
C48   H36   S    
C67   O15   A    
C28   H29   S    
H69   N4    S    
O39   Zn9   S    
C111  H2    S    
H62   N16   S    
O48   Zn13  S    
C74   O22   A    
C75   O24   A    
C18   C25   A    
C84   C90   S    
C65   C102  S    
H72   N5    S    
C35   C48   A    
C91   C108  D    
C53   C60   A    
C31   C77   A    
C55   O2    A    
C61   O5    A    
C54   C59   A    
C74   O42   A    
C68   O31   A    
H74   N6    S    
O23   Zn14  S    
H64   N2    S    
H58   N14   S    
O4    Zn6   S    
O33   Zn1   S    
O43   Zn13  S    
C29   C38   A    
C1    C9    S    
C86   N11   S    
H47   N9    S    
C112  H3    S    
C63   O9    A    
O23   Zn7   S    
O12   Zn4   S    
C16   C119  A    
C30   H31   S    
C71   O19   A    
C5    C20   A    
C114  H5    S    
C82   O30   A    
C84   N9    S    
O1    Zn16  S    
C63   O11   A    
C38   C51   A    
C94   C97   S    
O19   Zn4   S    
O1    Zn3   S    
O8    Zn11  S    
C12   C66   A    
C12   C21   A    
O20   Zn3   S    
C101  H1    S    
C49   C58   A    
C56   C60   A    
C33   O49   A    
C3    H13   S    
H46   N1    S    
H65   N2    S    
C37   C43   A    
C19   C23   A    
C16   C22   A    
O35   Zn9   S    
C73   O21   A    
C3    C9    A    
C52   C59   A    
C81   O29   A    
C96   C114  D    
H51   N11   S    
C69   O32   A    
C73   C105  S    
O46   Zn15  S    
C66   H18   S    
O30   Zn6   S    
C32   C41   A    
C7    C18   A    
C71   O39   A    
O23   Zn12  S    
C77   H19   S    
C34   C99   A    
O16   Zn3   S    
C36   C45   A    
H61   N15   S    
C51   C58   A    
C17   C23   A    
C72   O36   A    
O6    Zn9   S    
C93   N2    S    
C115  H6    S    
C82   C114  S    
O29   Zn7   S    
C30   C66   A    
C3    C14   A    
C93   C111  D    
C39   C46   A    
C1    O45   A    
C79   C115  S    
C72   O20   A    
O1    Zn10  S    
C109  H80   S    
C75   O43   A    
O34   Zn8   S    
O23   Zn5   S    
C70   C106  S    
C14   C22   A    
C9    C119  A    
O34   Zn13  S    
C73   O37   A    
C98   N7    S    
H53   N12   S    
C4    C10   A    
O11   Zn14  S    
C11   C44   S    
C90   N14   S    
O5    Zn1   S    
C8    C120  A    
C4    H14   S    
C21   C46   A    
O50   Zn16  S    
C62   O8    A    
C5    H15   S    
C6    C17   A    
O27   Zn5   S    
C81   O44   A    
O2    Zn8   S    
H73   N6    S    
C83   C101  D    
H50   N10   S    
C86   C87   S    
C50   C57   A    
H57   N13   S    
H48   N9    S    
C99   H21   S    
H60   N15   S    
C80   C116  S    
C68   C104  S    
C79   O47   A    
H77   N8    S    
O34   Zn6   S    
C103  H23   S    
C108  H78   S    
C6    C10   A    
C16   C99   A    
C57   C61   S    
C55   O4    A    
C100  C117  D    
C69   C101  S    
O12   Zn9   S    
C54   H42   S    
C17   C110  A    
C83   C91   S    
H68   N3    S    
C59   C63   S    
C61   O7    A    
C15   C118  A    
O40   Zn14  S    
C60   C64   S    
C27   C36   A    
C80   O48   A    
O25   Zn7   S    
O31   Zn10  S    
C76   C113  S    
C76   O25   A    
C95   N4    S    
O10   Zn13  S    
O26   Zn8   S    
C74   C111  S    
C118  H9    S    
O12   Zn2   S    
C94   C112  D    
H63   N16   S    
O42   Zn12  S    
C37   C50   A    
O38   Zn10  S    
H70   N4    S    
C96   N5    S    
C113  H4    S    
C28   C37   A    
C95   C113  D    
O34   Zn15  S    
O1    Zn1   S    
C10   C55   S    
H59   N14   S    
C51   H39   S    
H79   N8    S    
C78   O41   A    
C105  H45   S    
C30   C39   A    
C22   C47   A    
C78   C109  S    
C53   H41   S    
C8    C33   S    
C62   O6    A    
H76   N7    S    
C72   C108  S    
C26   H27   S    
C76   O40   A    
C117  H8    S    
O12   Zn11  S    
C41   C54   A    
O45   Zn3   S    
O18   Zn16  S    
H44   N1    S    
C32   H33   S    
C80   O28   A    
C26   C35   A    
C15   C21   A    
C67   C103  S    
H75   N7    S    
C40   C53   A    
H66   N3    S    
O28   Zn8   S    
C13   C19   A    
O36   Zn1   S    
C107  H67   S    
C24   H26   S    
C94   N3    S    
C104  H34   S    
C93   C98   S    
H49   N10   S    
O41   Zn15  S    
C36   C49   A    
C68   O16   A    
C15   C88   A    
C67   O35   A    
