data_mof_unit_23530.cif
_audit_creation_date              2012-12-10T17:46:26-0500
_audit_creation_method            fapswitch 2.2
_symmetry_space_group_name_H-M    P1
_symmetry_Int_Tables_number       1
_space_group_crystal_system       triclinic
_cell_length_a                    20.813154
_cell_length_b                    21.157535
_cell_length_c                    14.74962
_cell_angle_alpha                 90.000518
_cell_angle_beta                  127.960603
_cell_angle_gamma                 89.999949
_cell_volume                      5120.93291733

loop_
_atom_site_label
_atom_site_type_symbol
_atom_type_description
_atom_site_fract_x
_atom_site_fract_y
_atom_site_fract_z
_atom_type_partial_charge
C1    C     C_R   0.601645 0.912724 0.630065 0.814619
C2    C     C_R   0.700851 0.201428 0.113851 -0.225992
C3    C     C_R   0.694169 0.751044 0.928709 0.070123
C4    C     C_R   0.194154 0.748947 0.928716 0.070103
C5    C     C_R   0.805908 0.251077 0.071263 0.070054
C6    C     C_R   0.752712 0.704368 0.003061 0.066079
C7    C     C_R   0.247198 0.295604 0.996886 0.066109
C8    C     C_R   0.301808 0.821864 0.976287 -0.206507
C9    C     C_R   0.698572 0.177913 0.024088 -0.206467
C10   C     C_R   0.635796 0.769308 0.943747 -0.187107
C11   C     C_R   0.364292 0.230826 0.056444 -0.187093
C12   C     C_R   0.864060 0.269554 0.055908 -0.187165
C13   C     C_R   0.639435 0.746863 0.035169 -0.208113
C14   C     C_R   0.135826 0.730639 0.943823 -0.187148
C15   C     C_R   0.197878 0.321687 0.023414 -0.206479
C16   C     C_R   0.801899 0.678187 0.976377 -0.206450
C17   C     C_R   0.360698 0.253308 0.965077 -0.208093
C18   C     C_R   0.860298 0.247211 0.964333 -0.208118
C19   C     C_R   0.139495 0.753060 0.035282 -0.208129
C20   C     C_R   0.200018 0.298060 0.112993 -0.225955
C21   C     C_R   0.799709 0.701772 0.886732 -0.225977
C22   C     C_R   0.323908 0.984490 0.666468 -0.304071
C23   C     C_R   0.676102 0.015520 0.333554 -0.304159
C24   C     C_R   0.823916 0.515617 0.666455 -0.304126
C25   C     C_R   0.398350 0.087271 0.369930 0.814626
C26   C     C_R   0.176072 0.484396 0.333518 -0.304050
C27   C     C_R   0.353245 0.988348 0.603694 0.070165
C28   C     C_R   0.646758 0.011646 0.396319 0.070144
C29   C     C_R   0.853255 0.511706 0.603689 0.070205
C30   C     C_R   0.146741 0.488291 0.396296 0.070215
C31   C     C_R   0.486903 0.006669 0.774743 0.042638
C32   C     C_R   0.513100 0.993349 0.225253 0.042583
C33   C     C_R   0.986889 0.493314 0.774740 0.042465
C34   C     C_R   0.013105 0.506703 0.225264 0.042487
C35   C     C_R   0.462449 0.997081 0.845096 -0.011781
C36   C     C_R   0.395683 0.914951 0.366513 0.807966
C37   C     C_R   0.537563 0.002949 0.154914 -0.011746
C38   C     C_R   0.962438 0.502950 0.845086 -0.011784
C39   C     C_R   0.037545 0.497082 0.154901 -0.011815
C40   C     C_R   0.377899 0.990039 0.786661 0.118133
C41   C     C_R   0.622114 0.009990 0.213358 0.118158
C42   C     C_R   0.877897 0.510062 0.786646 0.118128
C43   C     C_R   0.122086 0.489968 0.213329 0.118124
C44   C     C_R   0.516896 0.998005 0.969300 -0.001117
C45   C     C_R   0.483122 0.002040 0.030712 -0.001174
C46   C     C_R   0.016878 0.502014 0.969287 -0.001229
C47   C     C_R   0.604318 0.085049 0.633489 0.807983
C48   C     C_R   0.983098 0.498034 0.030696 -0.001197
C49   C     C_R   0.396564 0.005596 0.964412 0.095250
C50   C     C_R   0.603457 0.994464 0.035606 0.095146
C51   C     C_R   0.896529 0.494572 0.964386 0.095146
C52   C     C_R   0.103442 0.505493 0.035589 0.095242
C53   C     C_R   0.346513 0.993853 0.846732 -0.203531
C54   C     C_R   0.653503 0.006198 0.153289 -0.203673
C55   C     C_R   0.846502 0.506324 0.846710 -0.203504
C56   C     C_R   0.153476 0.493730 0.153259 -0.203430
C57   C     C_R   0.669650 0.128729 0.716324 -0.052083
C58   C     C_R   0.104318 0.414951 0.633489 0.807969
C59   C     C_R   0.330335 0.871292 0.283647 -0.052056
C60   C     C_R   0.345826 0.141582 0.303570 -0.054126
C61   C     C_R   0.654135 0.858392 0.696393 -0.054153
C62   C     C_R   0.154121 0.641615 0.696380 -0.054160
C63   C     C_R   0.845955 0.358333 0.303697 -0.054197
C64   C     C_R   0.830327 0.628700 0.283634 -0.052053
C65   C     C_R   0.169685 0.371315 0.716389 -0.052042
C66   C     C_R   0.791773 0.187959 0.787552 -0.186277
C67   C     C_R   0.207969 0.812320 0.212054 -0.186257
C68   C     C_R   0.246668 0.220407 0.261780 -0.192948
C69   C     C_R   0.895683 0.585049 0.366512 0.808005
C70   C     C_R   0.753093 0.779428 0.737956 -0.192977
C71   C     C_R   0.253010 0.720624 0.737864 -0.192987
C72   C     C_R   0.747381 0.279108 0.262573 -0.193011
C73   C     C_R   0.707888 0.687595 0.211928 -0.186240
C74   C     C_R   0.292253 0.312556 0.788295 -0.186217
C75   C     C_R   0.728326 0.148824 0.704619 -0.192356
C76   C     C_R   0.271470 0.851384 0.295092 -0.192291
C77   C     C_R   0.294188 0.167899 0.324271 -0.189061
C78   C     C_R   0.705645 0.831978 0.675534 -0.189090
C79   C     C_R   0.205590 0.668058 0.675472 -0.189112
C80   C     C_R   0.898368 0.412714 0.369949 0.814650
C81   C     C_R   0.794678 0.331747 0.324841 -0.189149
C82   C     C_R   0.771403 0.648551 0.294996 -0.192267
C83   C     C_R   0.228704 0.351554 0.705161 -0.192231
C84   C     C_R   0.675486 0.147646 0.811972 -0.227984
C85   C     C_R   0.324650 0.852245 0.188177 -0.228054
C86   C     C_R   0.350474 0.168953 0.221572 -0.218220
C87   C     C_R   0.649554 0.831083 0.778493 -0.218221
C88   C     C_R   0.149557 0.668907 0.778509 -0.218235
C89   C     C_R   0.850435 0.331122 0.221437 -0.218235
C90   C     C_R   0.824686 0.647785 0.188216 -0.227974
C91   C     C_R   0.101644 0.587276 0.630064 0.814640
C92   C     C_R   0.175254 0.352172 0.811723 -0.228016
C93   C     C_R   0.740334 0.185291 0.898692 0.092175
C94   C     C_R   0.259736 0.814700 0.101326 0.092227
C95   C     C_R   0.303631 0.222058 0.157814 0.091270
C96   C     C_R   0.696314 0.777932 0.842167 0.091238
C97   C     C_R   0.196285 0.722076 0.842150 0.091208
C98   C     C_R   0.803839 0.277880 0.157929 0.091156
C99   C     C_R   0.759752 0.685300 0.101326 0.092272
C100  C     C_R   0.240220 0.314709 0.898685 0.092288
C101  C     C_R   0.797799 0.206782 0.883731 0.159544
C102  C     C_R   0.299605 0.798288 0.886624 -0.225970
C103  C     C_R   0.202071 0.793396 0.116018 0.159539
C104  C     C_R   0.250104 0.247086 0.177760 0.160810
C105  C     C_R   0.749709 0.752801 0.822057 0.160798
C106  C     C_R   0.249636 0.747239 0.821984 0.160812
C107  C     C_R   0.750687 0.252563 0.178346 0.160798
C108  C     C_R   0.702030 0.706550 0.115939 0.159519
C109  C     C_R   0.298051 0.293559 0.884220 0.159509
C110  C     C_R   0.747507 0.204275 0.997101 0.066017
C111  C     C_R   0.252669 0.795649 0.003030 0.066060
C112  C     C_R   0.305814 0.248990 0.071334 0.070146
Cu1   Cu    Cu3+1 0.526640 0.000000 0.436960 0.947149
Cu2   Cu    Cu3+1 0.473360 0.000000 0.563040 0.947166
Cu3   Cu    Cu3+1 0.026640 0.500000 0.436960 0.947165
Cu4   Cu    Cu3+1 0.973360 0.500000 0.563040 0.947152
H1    H     H_    0.338884 0.819180 0.869747 0.148715
H2    H     H_    0.725256 0.134336 0.631610 0.151442
H3    H     H_    0.709427 0.851935 0.611335 0.157803
H4    H     H_    0.290349 0.147890 0.388385 0.157804
H5    H     H_    0.790981 0.351624 0.389169 0.157806
H6    H     H_    0.209359 0.648112 0.611253 0.157808
H7    H     H_    0.225847 0.366227 0.632405 0.151362
H8    H     H_    0.774316 0.633923 0.367817 0.151380
H9    H     H_    0.341547 0.861730 0.021662 0.154275
H10   H     H_    0.658935 0.137982 0.978824 0.154418
H11   H     H_    0.585139 0.799957 0.884801 0.152814
H12   H     H_    0.661732 0.180419 0.130921 0.148774
H13   H     H_    0.414995 0.200232 0.115466 0.152756
H14   H     H_    0.914630 0.300307 0.114705 0.152919
H15   H     H_    0.085187 0.699968 0.884907 0.152829
H16   H     H_    0.158038 0.361490 0.977931 0.154210
H17   H     H_    0.841664 0.638338 0.021784 0.154338
H18   H     H_    0.280975 0.993827 0.799338 0.173496
H19   H     H_    0.719041 0.006235 0.200689 0.173522
H20   H     H_    0.780963 0.506422 0.799308 0.173528
H21   H     H_    0.219013 0.493644 0.200654 0.173503
H22   H     H_    0.452863 0.977547 0.189248 0.157069
H23   H     H_    0.593922 0.762389 0.044083 0.147233
H24   H     H_    0.547131 0.022480 0.810731 0.157033
H25   H     H_    0.952900 0.522564 0.189294 0.157122
H26   H     H_    0.047103 0.477461 0.810730 0.157114
H27   H     H_    0.688242 0.016825 0.488822 0.125739
H28   H     H_    0.311759 0.983157 0.511194 0.125671
H29   H     H_    0.188222 0.483076 0.488792 0.125659
H30   H     H_    0.811779 0.516911 0.511192 0.125713
H31   H     H_    0.259112 0.978065 0.621109 0.143145
H32   H     H_    0.740899 0.021944 0.378922 0.143148
H33   H     H_    0.759127 0.522095 0.621091 0.143152
H34   H     H_    0.406294 0.237861 0.956279 0.147247
H35   H     H_    0.240860 0.477918 0.378870 0.143148
H36   H     H_    0.372898 0.866066 0.184779 0.150194
H37   H     H_    0.627391 0.133655 0.815600 0.150248
H38   H     H_    0.610336 0.853286 0.793281 0.176471
H39   H     H_    0.389803 0.146826 0.206921 0.176402
H40   H     H_    0.889455 0.353463 0.206411 0.176561
H41   H     H_    0.110376 0.646678 0.793341 0.176480
H42   H     H_    0.126882 0.365861 0.814933 0.150145
H43   H     H_    0.872983 0.634018 0.184890 0.150178
H44   H     H_    0.293109 0.740039 0.721342 0.135801
H45   H     H_    0.905626 0.262914 0.955159 0.147240
H46   H     H_    0.707437 0.259575 0.279289 0.135774
H47   H     H_    0.663412 0.703146 0.222860 0.137013
H48   H     H_    0.336810 0.297080 0.777474 0.137036
H49   H     H_    0.836047 0.203705 0.776344 0.136971
H50   H     H_    0.163540 0.796724 0.223051 0.137000
H51   H     H_    0.206433 0.239719 0.278131 0.135833
H52   H     H_    0.793223 0.760036 0.721474 0.135810
H53   H     H_    0.094022 0.737496 0.044254 0.147229
H54   H     H_    0.160600 0.318849 0.129703 0.148677
H55   H     H_    0.839020 0.680904 0.869894 0.148724
H56   H     H_    0.274420 0.865979 0.367958 0.151403
I1    I     I_    0.328956 0.045322 0.015792 -0.464668
I2    I     I_    0.671101 0.954794 0.984243 -0.465004
I3    I     I_    0.828805 0.455020 0.015706 -0.465032
I4    I     I_    0.171117 0.545123 0.984247 -0.464701
N1    N     N_R   0.433280 0.000000 0.657760 -0.182894
N2    N     N_R   0.566720 0.000000 0.342240 -0.182906
N3    N     N_R   0.933280 0.500000 0.657760 -0.182913
N4    N     N_R   0.066720 0.500000 0.342240 -0.182903
O1    O     O_R   0.600040 0.935040 0.546740 -0.588730
O2    O     O_R   0.444990 0.064930 0.346780 -0.568585
O3    O     O_R   0.444990 0.935070 0.346780 -0.587174
O4    O     O_R   0.555010 0.064930 0.653220 -0.587172
O5    O     O_R   0.055010 0.435070 0.653220 -0.587185
O6    O     O_R   0.944990 0.564930 0.346780 -0.587173
O7    O     O_R   0.944990 0.435070 0.346780 -0.568597
O8    O     O_R   0.055010 0.564930 0.653220 -0.568570
O9    O     O_R   0.399960 0.064960 0.453260 -0.588724
O10   O     O_R   0.399960 0.935040 0.453260 -0.593404
O11   O     O_R   0.600040 0.064960 0.546740 -0.593412
O12   O     O_R   0.100040 0.435040 0.546740 -0.593399
O13   O     O_R   0.899960 0.564960 0.453260 -0.593408
O14   O     O_R   0.899960 0.435040 0.453260 -0.588737
O15   O     O_R   0.100040 0.564960 0.546740 -0.588736
O16   O     O_R   0.555010 0.935070 0.653220 -0.568604

loop_
_geom_bond_atom_site_label_1
_geom_bond_atom_site_label_2
_ccdc_geom_bond_type
C65   C92   A    
C20   H54   S    
C96   C105  A    
C34   H25   S    
C16   C21   A    
Cu2   O10   S    
C70   C78   A    
C24   C42   A    
C94   C111  A    
C34   N4    A    
C17   H34   S    
C64   C90   A    
C74   C83   A    
C91   O8    A    
C3    C6    A    
C74   C109  A    
C49   I1    S    
C67   C103  A    
C95   C104  A    
C71   H44   S    
Cu4   O8    S    
C50   C54   A    
C12   H14   S    
C31   N1    A    
C36   O10   A    
C13   H23   S    
C26   H35   S    
C38   C42   A    
C72   C81   A    
C95   C112  A    
C18   H45   S    
Cu2   O4    S    
C65   C83   A    
C33   N3    A    
C5    C110  A    
C54   H19   S    
C1    C61   S    
Cu3   Cu4   S    
C46   C52   A    
C2    C107  A    
C68   C77   A    
Cu3   O7    S    
C7    C112  A    
C92   H42   S    
C84   H37   S    
C90   H43   S    
C76   H56   S    
C24   C29   A    
C61   C87   A    
C36   C59   S    
C19   C103  A    
C48   C51   A    
Cu1   O1    S    
C15   H16   S    
C3    C96   A    
C25   C60   S    
C88   H41   S    
C52   I4    S    
C88   C97   A    
C93   C110  A    
C14   H15   S    
Cu4   O14   S    
C77   H4    S    
C7    C15   A    
Cu1   N2    S    
C100  C109  A    
Cu2   O9    S    
C4    C97   A    
C87   C96   A    
C58   O5    A    
C37   C41   A    
C66   C101  A    
C32   N2    A    
C75   H2    S    
C13   C108  A    
C16   H17   S    
C11   H13   S    
C82   H8    S    
C26   C43   A    
C63   C80   S    
C15   C20   A    
Cu1   O11   S    
C79   H6    S    
C46   C48   A    
C60   C77   A    
C87   H38   S    
Cu4   O13   S    
C7    C100  A    
C53   H18   S    
C35   C40   A    
C34   C39   A    
C27   N1    A    
C62   C79   A    
C1    O16   A    
C5    C12   A    
C86   C95   A    
C8    C111  A    
C93   C101  A    
C29   H30   S    
C36   O3    A    
Cu3   O6    S    
C60   C86   A    
C73   C108  A    
C39   C43   A    
C21   H55   S    
C62   C88   A    
C10   C13   A    
C71   C79   A    
C81   H5    S    
C18   C101  A    
C86   H39   S    
C59   C85   A    
C32   H22   S    
C99   C108  A    
C70   H52   S    
C42   C55   A    
C47   C57   S    
C91   O15   A    
C85   C94   A    
C43   C56   A    
C58   C65   S    
Cu1   O2    S    
C72   C107  A    
C45   C49   A    
C61   C78   A    
Cu2   N1    S    
C22   C40   A    
C62   C91   S    
C63   C89   A    
C69   O13   A    
C27   H28   S    
C57   C84   A    
C28   H27   S    
C30   N4    A    
C32   C37   A    
C5    C98   A    
C51   I3    S    
C35   C44   A    
C64   C82   A    
C102  H1    S    
Cu2   O16   S    
Cu3   O12   S    
C67   H50   S    
C4    C111  A    
C63   C81   A    
C94   C103  A    
C26   C30   A    
C22   C27   A    
C58   O12   A    
C9    H10   S    
C31   C35   A    
Cu4   N3    S    
C23   C28   A    
C97   C106  A    
C37   C45   A    
C10   H11   S    
C90   C99   A    
C80   O14   A    
C25   O2    A    
C92   C100  A    
C30   H29   S    
Cu1   Cu2   S    
C23   H32   S    
C44   C50   A    
C9    C110  A    
Cu3   O15   S    
C11   C17   A    
C1    O1    A    
C66   H49   S    
C11   C112  A    
C14   C19   A    
C44   C45   A    
Cu3   N4    S    
C47   O4    A    
C89   H40   S    
C70   C105  A    
C17   C109  A    
C47   O11   A    
C20   C104  A    
C33   H26   S    
C64   C69   S    
Cu4   O5    S    
C33   C38   A    
C23   C41   A    
C89   C98   A    
C50   I2    S    
C6    C99   A    
C57   C75   A    
C68   C104  A    
C78   H3    S    
C85   H36   S    
C73   H47   S    
C3    C10   A    
C25   O9    A    
C74   H48   S    
C56   H21   S    
C19   H53   S    
Cu1   O3    S    
C28   N2    A    
C49   C53   A    
C66   C75   A    
C59   C76   A    
C80   O7    A    
C73   C82   A    
C102  C106  A    
C51   C55   A    
C84   C93   A    
C4    C14   A    
C41   C54   A    
C38   C46   A    
C24   H33   S    
C98   C107  A    
C6    C16   A    
C68   H51   S    
C52   C56   A    
C8    H9    S    
C22   H31   S    
C40   C53   A    
C29   N3    A    
C71   C106  A    
C12   C18   A    
C72   H46   S    
C67   C76   A    
C83   H7    S    
C31   H24   S    
C2    C9    A    
C8    C102  A    
C69   O6    A    
C21   C105  A    
C55   H20   S    
C39   C48   A    
C2    H12   S    
