data_mof_unit_47454.cif
_audit_creation_date              2012-12-11T17:16:04-0500
_audit_creation_method            fapswitch 2.2
_symmetry_space_group_name_H-M    P1
_symmetry_Int_Tables_number       1
_space_group_crystal_system       triclinic
_cell_length_a                    14.616955
_cell_length_b                    7.228983
_cell_length_c                    13.468773
_cell_angle_alpha                 90.00024
_cell_angle_beta                  99.431369
_cell_angle_gamma                 90.000034
_cell_volume                      1403.94978151

loop_
_atom_site_label
_atom_site_type_symbol
_atom_type_description
_atom_site_fract_x
_atom_site_fract_y
_atom_site_fract_z
_atom_type_partial_charge
O1    O     O_R   0.398210 0.494340 0.401550 -0.531462
O2    O     O_R   0.601790 0.994340 0.598450 -0.531470
O3    O     O_R   0.586310 0.821730 0.403360 -0.543865
O4    O     O_R   0.413690 0.321730 0.596640 -0.543860
C1    C     C_R   0.615212 0.655290 0.381687 0.682768
C2    C     C_R   0.384798 0.155289 0.618325 0.682761
O5    O     O_R   0.397970 0.823900 0.389580 -0.533950
O6    O     O_R   0.602030 0.323900 0.610420 -0.533944
O7    O     O_R   0.412100 0.996500 0.584560 -0.541077
O8    O     O_R   0.587900 0.496500 0.415440 -0.541077
C3    C     C_R   0.365024 0.655231 0.363036 0.718647
C4    C     C_R   0.634976 0.155231 0.636963 0.718631
O9    O     O_3   0.504860 0.661550 0.563990 -0.374886
O10   O     O_3   0.495140 0.161550 0.436010 -0.374887
V1    V     V_3+5 0.499100 0.935510 0.488130 1.404841
V2    V     V_3+5 0.500900 0.435510 0.511870 1.404869
C5    C     C_1   0.716044 0.144654 0.716840 -0.177807
C6    C     C_1   0.283956 0.644654 0.283160 -0.177824
C7    C     C_1   0.783938 0.134143 0.783195 -0.167075
C8    C     C_1   0.216062 0.634143 0.216805 -0.167066
C9    C     C_3   0.277300 0.232547 0.862943 0.229118
C10   C     C_3   0.722607 0.732024 0.136962 0.229120
H1    H     H_    0.259841 0.378100 0.879135 0.156685
H2    H     H_    0.739909 0.877565 0.120550 0.156613
C11   C     C_3   0.351223 0.238229 0.791371 -0.377728
C12   C     C_3   0.648700 0.737765 0.208552 -0.377791
H3    H     H_    0.416223 0.167432 0.826138 0.143634
H4    H     H_    0.583752 0.666667 0.173883 0.143635
H5    H     H_    0.369974 0.384846 0.779398 0.138197
H6    H     H_    0.629832 0.884373 0.220363 0.138152
H7    H     H_    0.239795 0.395828 0.626017 0.161937
H8    H     H_    0.759984 0.896283 0.373733 0.161986
C13   C     C_3   0.148555 0.242342 0.712423 0.163011
C14   C     C_3   0.851355 0.742853 0.287463 0.163110
C15   C     C_3   0.211965 0.935981 0.777965 -0.405024
C16   C     C_3   0.788273 0.436017 0.222314 -0.404846
C17   C     C_3   0.186582 0.133997 0.810998 0.041619
C18   C     C_3   0.813435 0.634004 0.189024 0.041573
H9    H     H_    0.148936 0.867206 0.736443 0.161724
H10   H     H_    0.851379 0.367652 0.263932 0.161420
H11   H     H_    0.236795 0.847427 0.844413 0.171808
H12   H     H_    0.763546 0.347096 0.155985 0.172081
C19   C     C_3   0.313192 0.146520 0.688619 0.044425
C20   C     C_3   0.686827 0.646523 0.311405 0.044460
C21   C     C_3   0.223095 0.249512 0.641646 -0.359930
C22   C     C_3   0.776827 0.749973 0.358254 -0.359922
C23   C     C_3   0.286784 0.943364 0.709392 -0.340131
C24   C     C_3   0.713435 0.443383 0.290864 -0.340142
H13   H     H_    0.349348 0.866558 0.745930 0.157273
H14   H     H_    0.650950 0.366253 0.254400 0.157327
H15   H     H_    0.260163 0.871817 0.637238 0.152300
H16   H     H_    0.740113 0.372162 0.363103 0.152179
H17   H     H_    0.086055 0.168016 0.672963 0.060778
H18   H     H_    0.913947 0.668925 0.326998 0.060723
H19   H     H_    0.194281 0.185440 0.568022 0.101922
H20   H     H_    0.805720 0.686228 0.431944 0.101904
O11   O     O_R   0.912140 0.786650 0.084610 -0.513614
O12   O     O_R   0.087860 0.286650 0.915390 -0.513617
O13   O     O_R   0.102040 0.454810 0.110430 -0.536428
O14   O     O_R   0.897960 0.954810 0.889570 -0.536444
C25   C     C_R   0.134988 0.623569 0.136939 0.713261
C26   C     C_R   0.865012 0.123569 0.863061 0.713345
O15   O     O_R   0.913690 0.457060 0.096650 -0.551799
O16   O     O_R   0.086310 0.957060 0.903350 -0.551871
O17   O     O_R   0.898200 0.284560 0.901540 -0.530975
O18   O     O_R   0.101800 0.784560 0.098460 -0.531039
C27   C     C_R   0.885282 0.625427 0.118512 0.711859
C28   C     C_R   0.114728 0.125424 0.881500 0.711951
O19   O     O_3   0.995160 0.617270 0.936040 -0.371023
O20   O     O_3   0.004840 0.117270 0.063960 -0.371023
V3    V     V_3+5 0.000900 0.343280 0.011870 1.479316
V4    V     V_3+5 0.999100 0.843280 0.988130 1.479168
O21   O     O_3   0.312963 0.151246 0.956323 -0.656522
H21   H     H_    0.340380 0.029875 0.943519 0.293632
O22   O     O_3   0.687008 0.650180 0.043706 -0.656512
H22   H     H_    0.659700 0.528799 0.056695 0.293656
O23   O     O_3   0.122821 0.423039 0.735051 -0.650878
H23   H     H_    0.083738 0.472183 0.673428 0.275452
O24   O     O_3   0.876869 0.923572 0.264609 -0.650823
H24   H     H_    0.915886 0.973106 0.326167 0.275460

loop_
_geom_bond_atom_site_label_1
_geom_bond_atom_site_label_2
_ccdc_geom_bond_type
C3    C6    S    
C13   C21   S    
O21   H21   S    
C16   H12   S    
O1    C3    A    
C15   C23   S    
C11   C19   S    
C2    O7    A    
C12   C20   S    
C23   H13   S    
O23   H23   S    
O5    C3    A    
O16   C28   A    
C15   C17   S    
O12   V3    S    
O14   V4    S    
C7    C26   S    
C10   C18   S    
C17   C28   S    
C9    O21   S    
O14   C26   A    
C8    C25   S    
C25   O18   A    
O18   V4    S    
C4    C5    S    
O20   V3    S    
C14   C22   S    
C24   H14   S    
O2    C4    A    
O6    V2    S    
C11   H5    S    
C10   O22   S    
O11   C27   A    
C20   C22   S    
C13   H17   S    
O15   C27   A    
O13   C25   A    
C16   H10   S    
O4    C2    A    
C23   H15   S    
O17   V3    S    
C13   C17   S    
O4    V2    S    
O19   V4    S    
C15   H9    S    
O22   H22   S    
C14   O24   S    
O6    C4    A    
O1    V2    S    
O2    V1    S    
C19   C21   S    
O12   C28   A    
C1    C20   S    
O15   V3    S    
C12   H6    S    
C2    C19   S    
C9    H1    S    
H7    C21   S    
C10   H2    S    
O3    V1    S    
C9    C11   S    
C26   O17   A    
C14   C18   S    
H8    C22   S    
O3    C1    A    
C14   H18   S    
C11   H3    S    
C12   H4    S    
C16   C18   S    
O7    V1    S    
C1    O8    A    
O8    V2    S    
C13   O23   S    
O5    V1    S    
C5    C7    T    
C16   C24   S    
C6    C8    T    
O16   V4    S    
O11   V4    S    
C15   H11   S    
O24   H24   S    
C24   H16   S    
C9    C17   S    
C18   C27   S    
C21   H19   S    
C10   C12   S    
O9    V2    S    
C22   H20   S    
O10   V1    S    
C19   C23   S    
C20   C24   S    
O13   V3    S    
