data_mof_unit_45170.cif
_audit_creation_date              2012-12-10T18:42:41-0500
_audit_creation_method            fapswitch 2.2
_symmetry_space_group_name_H-M    P1
_symmetry_Int_Tables_number       1
_space_group_crystal_system       triclinic
_cell_length_a                    10.874058
_cell_length_b                    15.105032
_cell_length_c                    13.835721
_cell_angle_alpha                 89.865732
_cell_angle_beta                  91.634106
_cell_angle_gamma                 89.03022
_cell_volume                      2271.29992251

loop_
_atom_site_label
_atom_site_type_symbol
_atom_type_description
_atom_site_fract_x
_atom_site_fract_y
_atom_site_fract_z
_atom_type_partial_charge
C1    C     C_R   0.500666 0.329963 0.500085 0.794828
C2    C     C_R   0.502795 0.670300 0.500115 0.797158
C3    C     C_R   0.871518 0.499699 0.503008 -0.101797
C4    C     C_R   0.127939 0.501765 0.495951 -0.100583
C5    C     C_R   0.943607 0.467020 0.581967 0.043736
C6    C     C_R   0.055629 0.529700 0.414446 0.025231
C7    C     C_R   0.437994 0.093955 0.561465 -0.137711
C8    C     C_R   0.487210 0.908071 0.420017 -0.154231
C9    C     C_R   0.431639 0.185907 0.561237 -0.122172
C10   C     C_R   0.483970 0.816319 0.417550 -0.168947
C11   C     C_R   0.506424 0.233750 0.500310 -0.061629
C12   C     C_R   0.511303 0.766932 0.501237 -0.095014
C13   C     C_R   0.589567 0.189613 0.441081 -0.177757
C14   C     C_R   0.548846 0.810238 0.586387 -0.155488
C15   C     C_R   0.601499 0.097292 0.444412 0.186649
C16   C     C_R   0.557807 0.902485 0.588731 0.122238
C17   C     C_R   0.523257 0.049084 0.504306 0.090029
C18   C     C_R   0.524366 0.951819 0.504824 0.072317
C19   C     C_R   0.587905 0.549567 0.109571 0.399172
C20   C     C_R   0.525001 0.420338 0.893494 0.351986
C21   C     C_R   0.584784 0.548161 0.211537 0.052231
C22   C     C_R   0.528197 0.423872 0.791436 -0.014299
C23   C     C_R   0.261931 0.501389 0.498414 0.803603
C24   C     C_R   0.737896 0.498787 0.501318 0.808811
C25   C     C_R   0.414110 0.453667 0.207429 0.081043
C26   C     C_R   0.468365 0.574756 0.790787 0.070954
C27   C     C_R   0.411218 0.454670 0.105886 -0.245887
C28   C     C_R   0.467346 0.575426 0.892421 -0.245481
C29   C     C_R   0.499503 0.501255 0.054800 0.038812
C30   C     C_R   0.497104 0.498390 0.945793 0.036906
C31   C     C_R   0.193153 0.657750 0.204924 0.483025
C32   C     C_R   0.847371 0.278506 0.744374 0.468042
C33   C     C_R   0.157289 0.637798 0.300747 0.076627
C34   C     C_R   0.868128 0.326612 0.658301 0.065917
C35   C     C_R   0.105702 0.553883 0.319522 0.081079
C36   C     C_R   0.893751 0.418387 0.664690 0.060182
C37   C     C_R   0.087253 0.493716 0.243584 -0.162737
C38   C     C_R   0.896223 0.460206 0.755076 -0.165541
C39   C     C_R   0.119818 0.514843 0.150094 -0.213209
C40   C     C_R   0.876854 0.412035 0.838939 -0.188956
C41   C     C_R   0.173539 0.595653 0.131125 -0.221519
C42   C     C_R   0.853633 0.321910 0.833773 -0.173917
C43   C     C_R   0.928453 0.530790 0.420485 -0.220766
C44   C     C_R   0.070689 0.471178 0.578542 -0.221750
Cu1   Cu    Cu3+1 0.500000 0.499990 0.596430 0.965867
Cu2   Cu    Cu3+1 0.500000 0.500010 0.403570 0.969114
H1    H     H_    0.200989 0.609521 0.058080 0.183869
H2    H     H_    0.841011 0.285919 0.900316 0.228187
H3    H     H_    0.650578 0.586006 0.253617 0.170564
H4    H     H_    0.553070 0.364906 0.752218 0.184251
H5    H     H_    0.346317 0.416440 0.245325 0.146405
H6    H     H_    0.443337 0.634824 0.752037 0.144809
H7    H     H_    0.339217 0.419649 0.067262 0.184075
H8    H     H_    0.442982 0.636078 0.929409 0.201549
H9    H     H_    0.045344 0.430405 0.256811 0.158510
H10   H     H_    0.919045 0.529571 0.760903 0.175967
H11   H     H_    0.104599 0.467916 0.092144 0.173830
H12   H     H_    0.883366 0.443964 0.908687 0.224805
H13   H     H_    0.873535 0.554511 0.358704 0.187268
H14   H     H_    0.125421 0.445668 0.639579 0.169240
H15   H     H_    0.376152 0.057532 0.606257 0.154884
H16   H     H_    0.460269 0.945223 0.355530 0.175456
H17   H     H_    0.366674 0.219677 0.606949 0.151757
H18   H     H_    0.457708 0.784138 0.350716 0.218293
H19   H     H_    0.648311 0.227613 0.395116 0.147588
H20   H     H_    0.573409 0.771971 0.650646 0.158682
N1    N     N_R   0.500000 0.500020 0.258690 -0.212615
N2    N     N_R   0.500000 0.499980 0.741310 -0.202501
O1    O     O_R   0.500010 0.371450 0.581430 -0.584729
O2    O     O_R   0.499990 0.628550 0.418570 -0.571341
O3    O     O_R   0.500010 0.371460 0.418560 -0.578472
O4    O     O_R   0.499990 0.628540 0.581440 -0.595255
O5    O     O_R   0.319640 0.500000 0.581430 -0.582520
O6    O     O_R   0.680360 0.500000 0.418570 -0.596559
O7    O     O_R   0.319640 0.500010 0.418560 -0.582399
O8    O     O_R   0.680360 0.499990 0.581440 -0.562272
C45   C     C_3   0.699984 0.052074 0.386930 -0.831422
H21   H     H_    0.758794 0.009522 0.435504 0.236435
H22   H     H_    0.657841 0.010936 0.329038 0.245799
H23   H     H_    0.760214 0.100748 0.352124 0.237060
C46   C     C_3   0.607261 0.946177 0.679195 -0.697202
H24   H     H_    0.690518 0.983753 0.661875 0.263796
H25   H     H_    0.537091 0.991451 0.709557 0.255260
H26   H     H_    0.633866 0.896862 0.736025 0.234444
S1    S     S_3+6 0.702687 0.613006 0.055327 -0.001765
O9    O     O_2   0.742801 0.571141 0.962817 -0.312064
O10   O     O_2   0.651165 0.704125 0.034037 -0.268544
O11   O     O_3   0.825059 0.621111 0.131816 -0.557009
H27   H     H_    0.885312 0.656414 0.096499 0.389876
S2    S     S_3+6 0.556457 0.317952 0.952670 -0.006657
O12   O     O_2   0.441309 0.285013 0.997061 -0.289258
O13   O     O_2   0.600260 0.249875 0.882058 -0.249223
O14   O     O_3   0.664894 0.332235 0.040082 -0.547125
H28   H     H_    0.675747 0.273415 0.071241 0.381981
S3    S     S_3+6 0.267594 0.756619 0.172032 -0.015380
O15   O     O_2   0.227434 0.782300 0.070777 -0.263749
O16   O     O_2   0.239823 0.832296 0.238664 -0.304082
O17   O     O_3   0.420003 0.735980 0.174193 -0.560636
H29   H     H_    0.457056 0.791755 0.152312 0.395686
S4    S     S_3+6 0.812098 0.164389 0.742695 0.021669
O18   O     O_2   0.812618 0.127039 0.843499 -0.206196
O19   O     O_2   0.685788 0.154533 0.697428 -0.317895
O20   O     O_3   0.915643 0.107327 0.678202 -0.530947
H30   H     H_    0.868621 0.082061 0.622753 0.351034
C47   C     C_3   0.169812 0.705492 0.380401 -0.742896
H31   H     H_    0.142631 0.680762 0.451919 0.203046
H32   H     H_    0.266725 0.725546 0.388373 0.241319
H33   H     H_    0.109852 0.763872 0.363187 0.263628
C48   C     C_3   0.870155 0.278933 0.562300 -0.811284
H34   H     H_    0.873074 0.323879 0.499258 0.212766
H35   H     H_    0.952432 0.234672 0.560272 0.258629
H36   H     H_    0.786088 0.239441 0.552385 0.253414

loop_
_geom_bond_atom_site_label_1
_geom_bond_atom_site_label_2
_ccdc_geom_bond_type
O14   H28   S    
C27   C29   A    
S3    O15   D    
C1    C11   S    
C2    C12   S    
C21   H3    S    
C46   H24   S    
S3    O17   S    
C39   C41   A    
C20   C30   A    
C45   H21   S    
C47   H32   S    
C3    C43   A    
C1    O3    A    
Cu1   O8    S    
C35   C37   A    
C48   H35   S    
C45   H23   S    
C39   H11   S    
C5    C36   S    
C6    C35   S    
Cu1   O5    S    
C7    H15   S    
C7    C17   A    
C25   N1    A    
C31   C33   A    
C43   H13   S    
C22   H4    S    
C40   C42   A    
C21   N1    A    
Cu1   O4    S    
C3    C24   S    
C23   O5    A    
C2    O4    A    
Cu2   O7    S    
C46   H25   S    
C45   H22   S    
C14   H20   S    
C47   H33   S    
C40   H12   S    
S1    O10   D    
Cu1   O1    S    
C33   C47   S    
C4    C6    A    
C48   H36   S    
C23   O7    A    
C4    C23   S    
C28   H8    S    
C24   O8    A    
C13   H19   S    
C4    C44   A    
C3    C5    A    
S1    O9    D    
C20   S2    S    
S4    O20   S    
C1    O1    A    
C32   S4    S    
C32   C34   A    
C25   H5    S    
C29   C30   S    
C26   H6    S    
S2    O13   D    
Cu1   N2    S    
S4    O19   D    
C17   C18   S    
C41   H1    S    
C42   H2    S    
C9    C11   A    
C22   N2    A    
Cu2   O3    S    
C10   C12   A    
C16   C18   A    
C5    C44   A    
C12   C14   A    
C6    C43   A    
C13   C15   A    
C14   C16   A    
C19   C29   A    
Cu2   O6    S    
C46   H26   S    
S2    O14   S    
S1    O11   S    
C7    C9    A    
S3    O16   D    
C31   C41   A    
C19   C21   A    
C9    H17   S    
C10   H18   S    
C20   C22   A    
C19   S1    S    
C27   H7    S    
C15   C17   A    
C25   C27   A    
C47   H31   S    
C26   C28   A    
C26   N2    A    
C28   C30   A    
Cu2   N1    S    
C37   C39   A    
C48   H34   S    
C38   C40   A    
C11   C13   A    
C24   O6    A    
S2    O12   D    
C15   C45   S    
C44   H14   S    
C31   S3    S    
C36   C38   A    
C16   C46   S    
C33   C35   A    
C34   C36   A    
C8    C18   A    
Cu2   O2    S    
C37   H9    S    
Cu1   Cu2   S    
C38   H10   S    
O11   H27   S    
C8    C10   A    
O17   H29   S    
O20   H30   S    
C34   C48   S    
C32   C42   A    
S4    O18   D    
C2    O2    A    
C8    H16   S    
