data_mof_unit_34988.cif
_audit_creation_date              2013-03-05T15:53:42-0500
_audit_creation_method            fapswitch 2.2
_symmetry_space_group_name_H-M    P1
_symmetry_Int_Tables_number       1
_space_group_crystal_system       triclinic
_cell_length_a                    12.973102
_cell_length_b                    13.305832
_cell_length_c                    27.73803
_cell_angle_alpha                 94.576168
_cell_angle_beta                  90.453784
_cell_angle_gamma                 119.081543
_cell_volume                      4165.10505744

loop_
_atom_site_label
_atom_site_type_symbol
_atom_site_description
_atom_site_fract_x
_atom_site_fract_y
_atom_site_fract_z
_atom_type_partial_charge
O1    O     O_R   0.296680 0.802170 0.437540 -0.520100
O2    O     O_R   0.525380 0.838530 0.443500 -0.498802
C1    C     C_R   0.626636 0.898001 0.426546 0.552023
O3    O     O_R   0.702130 0.995190 0.446810 -0.497521
O4    O     O_R   0.661770 0.181390 0.458760 -0.507560
C2    C     C_R   0.600350 0.221004 0.440252 0.559279
O5    O     O_R   0.499820 0.198480 0.455280 -0.436606
O6    O     O_R   0.311660 0.976250 0.449080 -0.444897
C3    C     C_R   0.266189 0.875321 0.426372 0.551453
O7    O     O_R   0.297580 0.804960 0.544440 -0.478166
O8    O     O_R   0.526220 0.841130 0.542590 -0.470681
C4    C     C_R   0.627129 0.898933 0.565027 0.554917
O9    O     O_R   0.703030 0.997990 0.553710 -0.499503
O10   O     O_R   0.662610 0.183990 0.557860 -0.514764
C5    C     C_R   0.603809 0.227064 0.578087 0.575363
O11   O     O_R   0.500730 0.201280 0.562180 -0.449924
O12   O     O_R   0.312500 0.978850 0.548170 -0.489651
C6    C     C_R   0.272277 0.879614 0.563447 0.552529
Cr1   Cr    Cr6+3 0.416430 0.829200 0.492370 1.107901
Cr2   Cr    Cr6+3 0.674630 0.087020 0.504170 1.084091
Cr3   Cr    Cr6+3 0.408920 0.083740 0.503490 1.179707
O13   O     O_3   0.499990 0.999990 0.500010 -0.301384
C7    C     C_1   0.630229 0.264683 0.393774 0.063113
C8    C     C_R   0.761394 0.328986 0.280034 -0.123460
C9    C     C_R   0.773981 0.345418 0.230842 -0.074632
C10   C     C_R   0.574826 0.315461 0.223816 -0.075473
C11   C     C_R   0.561392 0.301008 0.273422 0.210184
C12   C     C_R   0.656902 0.309179 0.301919 0.004173
C13   C     C_R   0.680335 0.338018 0.202643 -0.007720
C14   C     C_1   0.694147 0.363468 0.152931 0.002357
C15   C     C_1   0.646264 0.288947 0.352492 0.026903
C16   C     C_1   0.703987 0.392728 0.112476 0.047434
H1    H     H_    0.833007 0.330943 0.301048 0.198421
H2    H     H_    0.503630 0.311854 0.201690 0.190447
C17   C     C_R   0.160242 0.742803 0.354520 -0.120193
C18   C     C_R   0.126703 0.725985 0.305613 0.000638
C19   C     C_R   0.116699 0.719001 0.204860 -0.032427
C20   C     C_R   0.107136 0.624298 0.226955 -0.107324
C21   C     C_R   0.107070 0.624376 0.277260 0.206070
C22   C     C_R   0.115661 0.716009 0.154789 -0.149978
H3    H     H_    0.109657 0.640450 0.134128 0.165962
H4    H     H_    0.177555 0.680271 0.370103 0.213632
H5    H     H_    0.096648 0.548721 0.204769 0.168182
C23   C     C_R   0.109497 0.802221 0.131119 0.000620
C24   C     C_R   0.164910 0.928244 0.362597 0.202001
C25   C     C_R   0.132795 0.914514 0.312412 -0.004060
C26   C     C_R   0.125319 0.817743 0.283615 -0.037855
C27   C     C_R   0.115389 0.996900 0.289171 0.224757
C28   C     C_R   0.115704 0.994447 0.238600 -0.067238
C29   C     C_R   0.119559 0.904582 0.209873 -0.035815
C30   C     C_R   0.119462 0.813487 0.232762 0.009017
C31   C     C_R   0.117665 0.900519 0.158704 0.197762
C32   C     C_R   0.190693 0.847194 0.381766 -0.033659
H6    H     H_    0.108445 0.061724 0.222075 0.231396
C33   C     C_R   0.731969 0.959024 0.352275 -0.077601
C34   C     C_R   0.731553 0.948085 0.302240 -0.017335
C35   C     C_R   0.730081 0.928893 0.201273 -0.003123
C36   C     C_R   0.805687 0.035949 0.227837 0.210212
C37   C     C_R   0.807224 0.043507 0.278212 -0.082943
C38   C     C_R   0.739639 0.912890 0.151704 -0.110772
H7    H     H_    0.807525 0.981922 0.133535 0.230676
H8    H     H_    0.792865 0.041604 0.371689 0.180443
H9    H     H_    0.865814 0.125347 0.298701 0.186775
C39   C     C_R   0.673318 0.804420 0.126103 -0.022843
C40   C     C_R   0.566993 0.764778 0.351234 -0.092479
C41   C     C_R   0.570956 0.748051 0.300830 0.006097
C42   C     C_R   0.650924 0.842797 0.276122 0.017022
C43   C     C_R   0.492868 0.641842 0.274201 0.174961
C44   C     C_R   0.491834 0.634052 0.223591 -0.082994
C45   C     C_R   0.572431 0.726790 0.198896 -0.035900
C46   C     C_R   0.650729 0.832895 0.225406 -0.020856
C47   C     C_R   0.580968 0.713733 0.148487 0.196893
C48   C     C_R   0.646560 0.869850 0.376803 -0.006230
H10   H     H_    0.498026 0.699865 0.370656 0.193265
C49   C     C_R   0.703334 0.242487 0.655133 -0.154661
C50   C     C_R   0.716117 0.267143 0.704883 -0.026676
C51   C     C_R   0.728846 0.305054 0.806169 0.034453
C52   C     C_R   0.767610 0.230947 0.783744 0.234031
C53   C     C_R   0.762772 0.214697 0.733201 -0.070981
C54   C     C_R   0.738700 0.330589 0.856645 -0.074415
H11   H     H_    0.729561 0.181846 0.639047 0.150340
C55   C     C_R   0.695716 0.400910 0.877328 0.012529
C56   C     C_R   0.610980 0.362816 0.647227 0.197791
C57   C     C_R   0.626845 0.391404 0.697665 0.014581
C58   C     C_R   0.675422 0.339358 0.726521 0.034176
C59   C     C_R   0.593372 0.468723 0.720142 -0.077537
C60   C     C_R   0.600043 0.487862 0.770216 -0.119791
C61   C     C_R   0.642138 0.431834 0.798577 0.039235
C62   C     C_R   0.682095 0.358529 0.777091 0.065144
C63   C     C_R   0.647159 0.450492 0.848332 -0.087645
C64   C     C_R   0.645215 0.284229 0.626693 0.001356
H12   H     H_    0.618117 0.508846 0.864573 0.133197
H13   H     H_    0.571730 0.546285 0.786828 0.119129
H14   H     H_    0.560951 0.514176 0.699476 0.187460
C65   C     C_1   0.222174 0.862675 0.609969 0.051890
C66   C     C_R   0.085933 0.737532 0.717075 -0.014837
C67   C     C_R   0.067762 0.724961 0.766644 0.248376
C68   C     C_R   0.213694 0.928415 0.784887 -0.108341
C69   C     C_R   0.230239 0.939437 0.735473 -0.052167
C70   C     C_R   0.166652 0.844003 0.701514 0.057279
C71   C     C_R   0.133716 0.821770 0.800892 0.026899
C72   C     C_1   0.120378 0.812478 0.852261 0.018500
C73   C     C_1   0.192240 0.853047 0.651139 0.026520
C74   C     C_1   0.099184 0.796991 0.894153 0.049100
H15   H     H_    0.037624 0.663952 0.690530 0.165490
H16   H     H_    0.264409 0.002934 0.810713 0.132597
H17   H     H_    0.294229 0.021943 0.723796 0.132815
C75   C     C_1   0.643370 0.863696 0.610707 0.080116
C76   C     C_R   0.759881 0.840470 0.724860 0.193353
C77   C     C_R   0.764165 0.835450 0.775141 -0.061165
C78   C     C_R   0.556152 0.775336 0.777758 -0.098140
C79   C     C_R   0.548459 0.779182 0.727434 0.179232
C80   C     C_R   0.651738 0.814305 0.700857 -0.006126
C81   C     C_R   0.663441 0.804391 0.801509 -0.035423
C82   C     C_1   0.670781 0.796988 0.852799 -0.007306
C83   C     C_1   0.649657 0.838844 0.651095 0.085626
C84   C     C_1   0.685437 0.789091 0.894991 0.025064
H18   H     H_    0.846417 0.855016 0.793857 0.175222
H19   H     H_    0.478063 0.748616 0.798467 0.173164
O14   O     O_R   0.820790 0.857990 0.068830 -0.487552
O15   O     O_R   0.016700 0.827330 0.062850 -0.440244
C85   C     C_R   0.062216 0.771139 0.080299 0.562346
O16   O     O_R   0.041970 0.673520 0.060040 -0.520296
O17   O     O_R   0.817980 0.483660 0.048840 -0.505005
C86   C     C_R   0.717230 0.441080 0.067126 0.552096
O18   O     O_R   0.637200 0.461990 0.052510 -0.444713
O19   O     O_R   0.664790 0.681920 0.057970 -0.440268
C87   C     C_R   0.718867 0.782401 0.080470 0.551798
O20   O     O_R   0.815840 0.852920 0.961840 -0.486967
O21   O     O_R   0.012100 0.822630 0.963670 -0.493381
C88   C     C_R   0.056482 0.766309 0.941280 0.556790
O22   O     O_R   0.037010 0.668460 0.953040 -0.479761
O23   O     O_R   0.813390 0.478970 0.949660 -0.483998
C89   C     C_R   0.711121 0.437177 0.928622 0.542133
O24   O     O_R   0.632250 0.456930 0.945520 -0.514849
O25   O     O_R   0.660200 0.677230 0.958780 -0.503549
C90   C     C_R   0.716517 0.776101 0.942886 0.543913
Cr4   Cr    Cr6+3 0.914010 0.832750 0.013970 1.134724
Cr5   Cr    Cr6+3 0.922310 0.578600 0.003000 1.083455
Cr6   Cr    Cr6+3 0.656280 0.574630 0.003870 1.127881
O26   O     O_3   0.830870 0.661990 0.006950 -0.293779
N1    N     N_R   0.088610 0.078014 0.315562 0.118784
O27   O     O_R   0.005420 0.041547 0.346161 -0.313136
O28   O     O_R   0.129604 0.181915 0.302536 -0.165859
N2    N     N_R   0.183184 0.028448 0.392984 0.124566
O29   O     O_R   0.123024 0.016493 0.431473 -0.266989
O30   O     O_R   0.271003 0.129277 0.386330 -0.213200
N3    N     N_R   0.881053 0.137401 0.204418 0.072146
O31   O     O_R   0.838640 0.167419 0.169028 -0.352596
O32   O     O_R   0.986922 0.208683 0.222810 -0.227854
N4    N     N_R   0.501145 0.607071 0.120795 0.082296
O33   O     O_R   0.504725 0.512900 0.127049 -0.320665
O34   O     O_R   0.431592 0.606227 0.086532 -0.302248
H20   H     H_    0.430704 0.552525 0.203852 0.216153
N5    N     N_R   0.419293 0.539418 0.297583 0.087991
O35   O     O_R   0.322228 0.457868 0.275502 -0.190297
O36   O     O_R   0.460282 0.516618 0.335693 -0.261532
H21   H     H_    0.856825 0.364625 0.214952 0.193360
H22   H     H_    0.780572 0.298231 0.880094 0.178816
N6    N     N_R   0.807695 0.168248 0.811285 0.070787
O37   O     O_R   0.744083 0.108210 0.845162 -0.349814
O38   O     O_R   0.894079 0.152411 0.796407 -0.287961
H23   H     H_    0.791213 0.156904 0.715945 0.154924
N7    N     N_R   0.557149 0.409489 0.617120 0.081902
O39   O     O_R   0.608797 0.458439 0.578921 -0.283493
O40   O     O_R   0.450366 0.390348 0.624316 -0.286863
N8    N     N_R   0.984340 0.613566 0.781235 0.079657
O41   O     O_R   0.961648 0.519942 0.754154 -0.324076
O42   O     O_R   0.923255 0.604906 0.819159 -0.361444
N9    N     N_R   0.866043 0.873704 0.699106 0.083210
O43   O     O_R   0.969040 0.938194 0.721472 -0.319531
O44   O     O_R   0.861152 0.830705 0.654793 -0.314503
N10   N     N_R   0.435891 0.748838 0.704257 0.078835
O45   O     O_R   0.355469 0.757560 0.729120 -0.347074
O46   O     O_R   0.407916 0.700224 0.660028 -0.297585
N11   N     N_R   0.450585 0.277178 0.293535 0.106325
O47   O     O_R   0.444681 0.302777 0.339274 -0.204463
O48   O     O_R   0.356020 0.238253 0.265219 -0.270888
N12   N     N_R   0.084999 0.520800 0.298639 0.068160
O49   O     O_R   0.028765 0.494531 0.338346 -0.347881
O50   O     O_R   0.100475 0.442203 0.274069 -0.227236
N13   N     N_R   0.122973 0.994614 0.134781 0.087008
O51   O     O_R   0.206364 0.046748 0.105356 -0.290805
O52   O     O_R   0.036490 0.017784 0.137173 -0.311363

loop_
_geom_bond_atom_site_label_1
_geom_bond_atom_site_label_2
_geom_bond_distance
_ccdc_geom_bond_type
O15   Cr4   1.923189 S    
C41   C43   1.413806 A    
C56   N7    1.437313 S    
O11   Cr3   2.065676 S    
C17   C32   1.396746 A    
C60   H13   1.083800 S    
O17   Cr5   1.914666 S    
Cr6   O26   1.977447 S    
C50   C53   1.400294 A    
O25   Cr6   1.906972 S    
C43   N5    1.440616 S    
C77   H18   1.084219 S    
C81   C82   1.439471 S    
N8    O42   1.300636 A    
O4    Cr2   1.908871 S    
N10   O45   1.301521 A    
O22   Cr5   2.032666 S    
C51   C62   1.424084 A    
C10   C11   1.405027 A    
C71   C72   1.444546 S    
C86   O18   1.269586 A    
C24   N2    1.433375 S    
C11   C12   1.418348 A    
N7    O39   1.301133 A    
C19   C20   1.396922 A    
C31   N13   1.436001 S    
C19   C22   1.386019 A    
O4    C2    1.273296 A    
C19   C30   1.407609 A    
C36   N3    1.437755 S    
N5    O36   1.300500 A    
N9    O43   1.301517 A    
C28   H6    1.080295 S    
C33   H8    1.084643 S    
O16   Cr5   2.060231 S    
C40   C48   1.396579 A    
C18   C26   1.415373 A    
C78   H19   1.083668 S    
C28   C29   1.404972 A    
C17   H4    1.080314 S    
N13   O51   1.300970 A    
C59   H14   1.081691 S    
O21   C88   1.276577 A    
C10   H2    1.084113 S    
O20   Cr4   2.037129 S    
C17   C18   1.388275 A    
O6    C3    1.279553 A    
C82   C84   1.205156 T    
C74   C88   1.434983 S    
C29   C31   1.415599 A    
N4    O33   1.301326 A    
O19   C87   1.271737 A    
C45   C46   1.412147 A    
C14   C16   1.204471 T    
C77   C81   1.397001 A    
C76   C80   1.416390 A    
C80   C83   1.446524 S    
C61   C62   1.406745 A    
C23   C31   1.418343 A    
N11   O48   1.300904 A    
C79   N10   1.442048 S    
C24   C32   1.413160 A    
Cr3   O13   1.977744 S    
N4    O34   1.300928 A    
C6    C65   1.433815 S    
C44   C45   1.406115 A    
C79   C80   1.420905 A    
N2    O30   1.299594 A    
C65   C73   1.205533 T    
N2    O29   1.301464 A    
N10   O46   1.301267 A    
C9    C13   1.397780 A    
O24   Cr6   2.069386 S    
C25   C27   1.421057 A    
C49   C64   1.402459 A    
O1    Cr1   2.046464 S    
C78   C79   1.405423 A    
O10   Cr2   1.949263 S    
Cr1   O13   1.977136 S    
O1    C3    1.272892 A    
C8    C9    1.397411 A    
C54   C55   1.393634 A    
C53   H23   1.084657 S    
N8    O41   1.301345 A    
C4    C75   1.433968 S    
C58   C62   1.399880 A    
C52   C53   1.397559 A    
C43   C44   1.398832 A    
C35   C38   1.390267 A    
C26   C30   1.407122 A    
C39   C87   1.469071 S    
C36   C37   1.392193 A    
C51   C52   1.414669 A    
C70   C73   1.439601 S    
C35   C46   1.417233 A    
C40   H10   1.080459 S    
C38   H7    1.080639 S    
N6    O38   1.301396 A    
C16   C86   1.432081 S    
C55   C89   1.445460 S    
C49   C50   1.382273 A    
C13   C14   1.437923 S    
C8    H1    1.081234 S    
C63   H12   1.085830 S    
C56   C57   1.406704 A    
C34   C37   1.397747 A    
O7    Cr1   2.047821 S    
C47   N4    1.435737 S    
O8    Cr1   1.925572 S    
C66   C67   1.406251 A    
C33   C34   1.383583 A    
O12   C6    1.272143 A    
C27   N1    1.436614 S    
C29   C30   1.411948 A    
C55   C63   1.399851 A    
C57   C58   1.422002 A    
C72   C74   1.206835 T    
O15   C85   1.274494 A    
C2    O5    1.270068 A    
C10   C13   1.396443 A    
C34   C42   1.408244 A    
C52   N6    1.437775 S    
C22   H3    1.084672 S    
C61   C63   1.377954 A    
O23   Cr5   1.943204 S    
C12   C15   1.444489 S    
O23   C89   1.276236 A    
N1    O28   1.301023 A    
C3    C32   1.476742 S    
O19   Cr6   1.950485 S    
Cr2   O13   1.977737 S    
O14   Cr4   2.057508 S    
C1    O3    1.261563 A    
O21   Cr4   1.936188 S    
C9    H21   1.083108 S    
C56   C64   1.405527 A    
C76   N9    1.441052 S    
C66   H15   1.083816 S    
C51   C54   1.403961 A    
C25   C26   1.420805 A    
N11   O47   1.299779 A    
O9    Cr2   2.025670 S    
O2    Cr1   1.933218 S    
C59   C60   1.386289 A    
C18   C21   1.415508 A    
C84   C90   1.432913 S    
C8    C12   1.402445 A    
N3    O32   1.300600 A    
O25   C90   1.273643 A    
C54   H22   1.081647 S    
Cr4   O26   1.976737 S    
O6    Cr3   1.945894 S    
C11   N11   1.440846 S    
C21   N12   1.443065 S    
O8    C4    1.274587 A    
O14   C87   1.276701 A    
C89   O24   1.258992 A    
O3    Cr2   2.067425 S    
C49   H11   1.085245 S    
C68   C71   1.401350 A    
C69   H17   1.083662 S    
C37   H9    1.084576 S    
C44   H20   1.080519 S    
C68   H16   1.083606 S    
C69   C70   1.399570 A    
C38   C39   1.395433 A    
N6    O37   1.301307 A    
C75   C83   1.206210 T    
N7    O40   1.301271 A    
O2    C1    1.277327 A    
C20   H5    1.084161 S    
C67   N8    1.440576 S    
C76   C77   1.403553 A    
O5    Cr3   2.027390 S    
Cr5   O26   1.978020 S    
C35   C36   1.413136 A    
C20   C21   1.395284 A    
N9    O44   1.301323 A    
O7    C6    1.268290 A    
C27   C28   1.400587 A    
C2    C7    1.434751 S    
C66   C70   1.397319 A    
C23   C85   1.476845 S    
O18   Cr6   2.023654 S    
C41   C42   1.418810 A    
C78   C81   1.393765 A    
C42   C46   1.402271 A    
N3    O31   1.301371 A    
C40   C41   1.403392 A    
C88   O22   1.270702 A    
C1    C48   1.458835 S    
N13   O52   1.300916 A    
C5    C64   1.453442 S    
N12   O49   1.301455 A    
C33   C48   1.400422 A    
C24   C25   1.421586 A    
C22   C23   1.400668 A    
O20   C90   1.266764 A    
C4    O9    1.270683 A    
C60   C61   1.398344 A    
C68   C69   1.397278 A    
N5    O35   1.300656 A    
N1    O27   1.300673 A    
O10   C5    1.267146 A    
C57   C59   1.404261 A    
C45   C47   1.407097 A    
C85   O16   1.273364 A    
C50   C58   1.402993 A    
C67   C71   1.419245 A    
C5    O11   1.273251 A    
C39   C47   1.415231 A    
C7    C15   1.206751 T    
O17   C86   1.274019 A    
N12   O50   1.300391 A    
O12   Cr3   1.911005 S    
