data_mof_unit_36161.cif
_audit_creation_date              2012-10-26T21:01:31-0400
_audit_creation_method            fapswitch 2.2
_symmetry_space_group_name_H-M    P1
_symmetry_Int_Tables_number       1
_space_group_crystal_system       triclinic
_cell_length_a                    15.867638
_cell_length_b                    12.999856
_cell_length_c                    11.839238
_cell_angle_alpha                 101.18934
_cell_angle_beta                  93.923684
_cell_angle_gamma                 93.160887
_cell_volume                      2384.27720062

loop_
_atom_site_label
_atom_site_type_symbol
_atom_type_description
_atom_site_fract_x
_atom_site_fract_y
_atom_site_fract_z
_atom_type_partial_charge
C1    C     C_R   0.507078 0.299864 0.476928 0.544542
C2    C     C_R   0.483375 0.968989 0.447067 -0.008580
C3    C     C_R   0.407233 0.412253 0.023263 0.075276
C4    C     C_R   0.596850 0.576274 0.975950 0.119537
C5    C     C_R   0.419377 0.418357 0.144040 0.166155
C6    C     C_R   0.583895 0.575459 0.855877 0.178603
C7    C     C_R   0.538775 0.539269 0.157276 0.135382
C8    C     C_R   0.458449 0.463066 0.842055 0.180697
C9    C     C_R   0.534428 0.527899 0.033326 -0.019178
C10   C     C_R   0.465791 0.466877 0.965219 -0.020418
C11   C     C_R   0.340092 0.499540 0.499862 0.577484
C12   C     C_R   0.496059 0.701059 0.523337 0.562868
C13   C     C_R   0.659906 0.500513 0.500131 0.526540
C14   C     C_3   0.972508 0.432294 0.563202 0.010309
C15   C     C_3   0.027398 0.567309 0.436776 -0.001188
C16   C     C_3   0.022196 0.402171 0.454649 -0.171418
C17   C     C_3   0.977735 0.597429 0.545342 -0.165026
C18   C     C_1   0.250566 0.499464 0.499731 0.080243
C19   C     C_1   0.749405 0.500455 0.500216 0.048125
C20   C     C_3   0.034479 0.529178 0.608171 0.007598
C21   C     C_3   0.965442 0.470414 0.391821 0.006265
C22   C     C_3   0.083566 0.500301 0.500180 0.045067
C23   C     C_R   0.473058 0.012709 0.345474 0.138893
C24   C     C_3   0.916368 0.499311 0.499806 0.051911
C25   C     C_1   0.175135 0.499638 0.499813 0.073437
C26   C     C_1   0.824820 0.500128 0.500148 0.069117
C27   C     C_R   0.489756 0.816739 0.540691 0.000674
C28   C     C_R   0.517858 0.185452 0.459555 -0.093606
C29   C     C_2   0.944313 0.355563 0.634813 0.228163
C30   C     C_2   0.055461 0.644047 0.365112 0.229393
C31   C     C_2   0.929226 0.436818 0.269072 0.212639
C32   C     C_2   0.070583 0.562623 0.730990 0.239750
C33   C     C_2   0.402979 0.794469 0.354655 0.299135
C34   C     C_R   0.534697 0.991049 0.652530 0.099439
C35   C     C_2   0.612615 0.200359 0.637628 0.294519
C36   C     C_2   0.517648 0.845309 0.758337 0.235540
C37   C     C_2   0.520060 0.158640 0.244345 0.298737
C38   C     C_3   0.353270 0.962112 0.203220 -0.249546
C39   C     C_3   0.493096 0.102472 0.825319 -0.241938
C40   C     C_2   0.390917 0.395363 0.767604 0.350316
C41   C     C_2   0.594808 0.623935 0.231039 0.329571
C42   C     C_2   0.646363 0.634628 0.801240 0.276655
C43   C     C_2   0.354308 0.364067 0.198775 0.309294
C44   C     C_3   0.329217 0.241989 0.946675 -0.287308
C45   C     C_R   0.498983 0.119221 0.350421 0.018714
C46   C     C_3   0.737481 0.548284 0.052357 -0.248692
C47   C     C_R   0.516324 0.883457 0.647839 -0.008645
C48   C     C_R   0.544551 0.141107 0.553568 -0.014209
C49   C     C_R   0.461713 0.861148 0.446388 0.021773
C50   C     C_R   0.522782 0.033560 0.551090 -0.009469
Cu1   Cu    Cu3+1 0.506200 0.507730 0.615930 1.058462
Cu2   Cu    Cu3+1 0.493800 0.492270 0.384070 0.995698
H1    H     H_    0.040607 0.322211 0.417502 0.117190
H2    H     H_    0.569130 0.221603 0.251298 0.128752
H3    H     H_    0.480987 0.942424 0.172641 0.304170
H4    H     H_    0.332364 0.903769 0.123242 0.164756
H5    H     H_    0.345583 0.042239 0.186430 0.214281
H6    H     H_    0.311859 0.949147 0.271827 0.176434
H7    H     H_    0.607170 0.030536 0.811028 0.243922
H8    H     H_    0.520354 0.160744 0.902246 0.181266
H9    H     H_    0.454473 0.040158 0.854453 0.168474
H10   H     H_    0.451998 0.143357 0.771077 0.156323
H11   H     H_    0.404019 0.318395 0.721018 0.102421
H12   H     H_    0.959320 0.677386 0.582495 0.122648
H13   H     H_    0.651381 0.606393 0.277799 0.128486
H14   H     H_    0.626228 0.688856 0.748477 0.116020
H15   H     H_    0.292940 0.396243 0.208497 0.090569
H16   H     H_    0.276948 0.387909 0.986241 0.272593
H17   H     H_    0.316513 0.207344 0.853376 0.150236
H18   H     H_    0.277128 0.213567 0.993435 0.158627
H19   H     H_    0.389316 0.214141 0.979281 0.184880
H20   H     H_    0.698433 0.691237 0.018069 0.285472
H21   H     H_    0.758646 0.511251 0.967396 0.211884
H22   H     H_    0.711276 0.485815 0.094771 0.168385
H23   H     H_    0.990993 0.313212 0.674955 0.114801
H24   H     H_    0.793054 0.590034 0.107802 0.163417
H25   H     H_    0.008706 0.686310 0.324981 0.106689
H26   H     H_    0.971439 0.419675 0.200608 0.115115
H27   H     H_    0.028312 0.580901 0.799217 0.115543
H28   H     H_    0.422115 0.769106 0.268061 0.177992
H29   H     H_    0.677843 0.181979 0.627284 0.127275
H30   H     H_    0.572830 0.862345 0.819886 0.077126
N1    N     N_R   0.515540 0.519350 0.790140 -0.275871
N2    N     N_R   0.484460 0.480650 0.209860 -0.288115
N3    N     N_2   0.440742 0.948820 0.237985 -0.519262
N4    N     N_2   0.561068 0.057897 0.761137 -0.498738
N5    N     N_2   0.332696 0.355642 0.962891 -0.507811
N6    N     N_2   0.674499 0.622225 0.038037 -0.514562
O1    O     O_R   0.504400 0.354460 0.582000 -0.484700
O2    O     O_2   0.130278 0.659355 0.351396 -0.453899
O3    O     O_2   0.852800 0.428543 0.245438 -0.528710
O4    O     O_2   0.146952 0.569391 0.754971 -0.442255
O5    O     O_2   0.333435 0.763374 0.377697 -0.462435
O6    O     O_2   0.596438 0.266374 0.720169 -0.474330
O7    O     O_2   0.454981 0.798746 0.783812 -0.457638
O8    O     O_2   0.484890 0.122335 0.148954 -0.532552
O9    O     O_2   0.318997 0.423978 0.761018 -0.455508
O10   O     O_2   0.580383 0.715697 0.234363 -0.532609
O11   O     O_2   0.721768 0.620911 0.811753 -0.530351
O12   O     O_R   0.495600 0.645540 0.418000 -0.494868
O13   O     O_2   0.366199 0.280170 0.226280 -0.497792
O14   O     O_R   0.493920 0.341410 0.386200 -0.477981
O15   O     O_R   0.506080 0.658590 0.613800 -0.499029
O16   O     O_R   0.384320 0.506520 0.597880 -0.453236
O17   O     O_R   0.615680 0.493480 0.402120 -0.547126
O18   O     O_R   0.373840 0.493460 0.402080 -0.506056
O19   O     O_R   0.626160 0.506540 0.597920 -0.477346
O20   O     O_2   0.869467 0.340348 0.648458 -0.490270

loop_
_geom_bond_atom_site_label_1
_geom_bond_atom_site_label_2
_ccdc_geom_bond_type
C11   C18   S    
C16   C21   S    
C23   C45   A    
C8    N1    A    
C30   O2    D    
C46   H24   S    
C35   H29   S    
C21   C31   S    
Cu2   O14   S    
C40   H11   S    
C31   H26   S    
C24   C26   S    
C17   H12   S    
Cu1   O15   S    
C17   C20   S    
C44   H19   S    
C15   C17   S    
C34   N4    S    
C14   C24   S    
Cu2   N2    S    
C19   C26   T    
C16   H1    S    
C2    C50   A    
C38   H6    S    
C30   H25   S    
C15   C22   S    
C36   H30   S    
C22   C25   S    
C1    C28   S    
C16   C22   S    
C29   O20   D    
C44   H18   S    
C11   O16   A    
C44   N5    S    
C9    C10   A    
C13   O19   A    
C48   C50   A    
C7    N2    A    
C5    C43   S    
Cu2   O18   S    
C18   C25   T    
C35   C48   S    
H20   N6    S    
C46   N6    S    
C39   H9    S    
C28   C45   A    
C34   C50   A    
C17   C24   S    
C13   C19   S    
C12   C27   S    
C3    N5    S    
Cu1   Cu2   S    
C14   C20   S    
C12   O15   A    
C4    C6    A    
C40   O9    D    
C5    N2    A    
C41   H13   S    
C38   N3    S    
Cu1   O16   S    
Cu2   O12   S    
C37   O8    D    
H3    N3    S    
C43   O13   D    
C43   H15   S    
C2    C49   A    
C38   H5    S    
C11   O18   A    
C44   H17   S    
C4    N6    S    
C37   H2    S    
C8    C10   A    
C20   C22   S    
Cu2   O17   S    
C31   O3    D    
C23   N3    S    
C14   C16   S    
C36   C47   S    
C14   C29   S    
C37   C45   S    
Cu1   N1    S    
C46   H22   S    
C15   C30   S    
C20   C32   S    
C35   O6    D    
C27   C47   A    
C7    C9    A    
C39   H10   S    
C28   C48   A    
C1    O1    A    
C6    N1    A    
C3    C5    A    
C33   O5    D    
C33   H28   S    
C29   H23   S    
H7    N4    S    
C3    C10   A    
C42   O11   D    
Cu1   O1    S    
C32   H27   S    
C36   O7    D    
C32   O4    D    
C39   H8    S    
C7    C41   S    
C12   O12   A    
C15   C21   S    
C38   H4    S    
Cu1   O19   S    
C6    C42   S    
C21   C24   S    
C2    C23   A    
C42   H14   S    
H16   N5    S    
C41   O10   D    
C34   C47   A    
C8    C40   S    
C39   N4    S    
C4    C9    A    
C33   C49   S    
C1    O14   A    
C46   H21   S    
C27   C49   A    
C13   O17   A    
