data_mof_unit_65575.cif
_audit_creation_date              2012-12-10T19:46:54-0500
_audit_creation_method            fapswitch 2.2
_symmetry_space_group_name_H-M    P1
_symmetry_Int_Tables_number       1
_space_group_crystal_system       triclinic
_cell_length_a                    28.363178
_cell_length_b                    18.267058
_cell_length_c                    21.727343
_cell_angle_alpha                 90.00003
_cell_angle_beta                  139.91893
_cell_angle_gamma                 90.000019
_cell_volume                      7248.17878011

loop_
_atom_site_label
_atom_site_type_symbol
_atom_type_description
_atom_site_fract_x
_atom_site_fract_y
_atom_site_fract_z
_atom_type_partial_charge
C1    C     C_R   0.858736 0.499994 0.858670 0.931090
C2    C     C_R   0.141264 0.499994 0.141330 0.931094
C3    C     C_R   0.358736 0.999994 0.858670 0.931093
C4    C     C_R   0.641264 0.999994 0.141330 0.931090
C5    C     C_R   0.048364 0.543532 0.830585 0.311235
C6    C     C_R   0.951639 0.543536 0.169418 0.311241
C7    C     C_R   0.548361 0.043536 0.830582 0.311242
C8    C     C_R   0.451636 0.043532 0.169414 0.311236
C9    C     C_R   0.047564 0.544748 0.765831 -0.131401
C10   C     C_R   0.952439 0.544753 0.234173 -0.131407
C11   C     C_R   0.547560 0.044753 0.765827 -0.131407
C12   C     C_R   0.452435 0.044748 0.234169 -0.131400
C13   C     C_R   0.999811 0.497104 0.686373 -0.237177
C14   C     C_R   0.000189 0.497105 0.313628 -0.237174
C15   C     C_R   0.499811 0.997105 0.686372 -0.237174
C16   C     C_R   0.500189 0.997104 0.313627 -0.237177
C17   C     C_1   0.782246 0.499967 0.782115 -0.123382
C18   C     C_1   0.217754 0.499967 0.217885 -0.123383
C19   C     C_1   0.282246 0.999967 0.782115 -0.123383
C20   C     C_1   0.717754 0.999967 0.217885 -0.123383
C21   C     C_1   0.717443 0.499950 0.717322 -0.133019
C22   C     C_1   0.282557 0.499951 0.282678 -0.133022
C23   C     C_1   0.217443 0.999950 0.717322 -0.133022
C24   C     C_1   0.782557 0.999950 0.282678 -0.133019
C25   C     C_R   1.000000 0.641283 0.500000 1.012271
C26   C     C_R   1.000000 0.358715 0.500000 0.896596
C27   C     C_R   0.500000 0.141283 0.500000 1.012275
C28   C     C_R   0.500000 0.858715 0.500000 0.896596
C29   C     C_R   0.999968 0.498290 0.620247 0.918719
C30   C     C_R   0.000031 0.498290 0.379753 0.918742
C31   C     C_R   0.499968 0.998291 0.620247 0.918741
C32   C     C_R   0.500031 0.998290 0.379753 0.918725
C33   C     C_R   0.500000 0.640935 0.500000 0.914471
C34   C     C_R   0.500000 0.359063 0.500000 0.922532
C35   C     C_R   1.000000 0.140935 0.500000 0.914471
C36   C     C_R   0.000000 0.859063 0.500000 0.922531
C37   C     C_R   0.640937 0.499964 0.640913 0.916651
C38   C     C_R   0.359063 0.499964 0.359087 0.916652
C39   C     C_R   0.140937 0.999964 0.640913 0.916650
C40   C     C_R   0.859062 0.999964 0.359087 0.916652
C41   C     C_1   0.000000 0.717770 0.500000 -0.145342
C42   C     C_1   1.000000 0.282230 0.500000 -0.170927
C43   C     C_1   0.500000 0.217770 0.500000 -0.145344
C44   C     C_1   0.500000 0.782230 0.500000 -0.170927
C45   C     C_R   0.999048 0.500067 0.878871 0.926228
C46   C     C_R   0.000952 0.500067 0.121129 0.926226
C47   C     C_R   0.499048 0.000067 0.878871 0.926226
C48   C     C_R   0.500952 0.000067 0.121129 0.926229
C49   C     C_1   0.500000 0.282563 0.500000 -0.148447
C50   C     C_1   0.500000 0.717435 0.500000 -0.160092
C51   C     C_1   0.000000 0.782563 0.500000 -0.148447
C52   C     C_1   1.000000 0.217435 0.500000 -0.160092
C53   C     C_R   0.890061 0.416579 0.703777 -0.197663
C54   C     C_R   0.109935 0.416574 0.296219 -0.197661
C55   C     C_R   0.390065 0.916574 0.703781 -0.197661
C56   C     C_R   0.609940 0.916580 0.296223 -0.197663
C57   C     C_R   0.844546 0.367137 0.627063 0.014407
C58   C     C_R   0.155447 0.367129 0.372930 0.014404
C59   C     C_R   0.344552 0.867129 0.627069 0.014405
C60   C     C_R   0.655455 0.867138 0.372937 0.014407
C61   C     C_R   0.855402 0.356267 0.574924 -0.176908
C62   C     C_R   0.144590 0.356260 0.425068 -0.176905
C63   C     C_R   0.355409 0.856261 0.574931 -0.176904
C64   C     C_R   0.644599 0.856269 0.425077 -0.176908
C65   C     C_R   0.907892 0.396802 0.595679 -0.160918
C66   C     C_R   0.092102 0.396798 0.404316 -0.160920
C67   C     C_R   0.407897 0.896798 0.595684 -0.160921
C68   C     C_R   0.592109 0.896803 0.404322 -0.160918
C69   C     C_R   0.951256 0.449830 0.669567 0.105799
C70   C     C_R   0.048741 0.449828 0.330430 0.105792
C71   C     C_R   0.451258 0.949828 0.669570 0.105792
C72   C     C_R   0.548745 0.949830 0.330433 0.105797
C73   C     C_R   0.946120 0.455503 0.728625 0.033365
C74   C     C_R   0.053877 0.455501 0.271373 0.033368
C75   C     C_R   0.446123 0.955501 0.728626 0.033368
C76   C     C_R   0.553880 0.955504 0.271376 0.033365
C77   C     C_R   0.997024 0.500218 0.810862 -0.198067
C78   C     C_R   0.002976 0.500218 0.189138 -0.198073
C79   C     C_R   0.497024 0.000218 0.810862 -0.198073
C80   C     C_R   0.502976 0.000218 0.189138 -0.198067
H1    H     H_    0.880569 0.424942 0.742889 0.173067
H2    H     H_    0.119428 0.424936 0.257108 0.173071
H3    H     H_    0.380572 0.924936 0.742892 0.173070
H4    H     H_    0.619431 0.924942 0.257110 0.173068
H5    H     H_    0.822684 0.316961 0.517027 0.191324
H6    H     H_    0.177305 0.316952 0.482963 0.191323
H7    H     H_    0.322694 0.816953 0.517035 0.191323
H8    H     H_    0.677317 0.816963 0.482974 0.191323
H9    H     H_    0.914324 0.385178 0.553648 0.156957
H10   H     H_    0.085670 0.385174 0.446346 0.156953
H11   H     H_    0.414329 0.885175 0.553653 0.156953
H12   H     H_    0.585677 0.885178 0.446353 0.156957
O1    O     O_R   0.892670 0.439420 0.892670 -0.612862
O2    O     O_R   0.107330 0.560580 0.107330 -0.602679
O3    O     O_R   0.107330 0.439420 0.107330 -0.612862
O4    O     O_R   0.892670 0.560580 0.892670 -0.602680
O5    O     O_R   0.392670 0.939420 0.892670 -0.612861
O6    O     O_R   0.607330 0.060580 0.107330 -0.602680
O7    O     O_R   0.607330 0.939420 0.107330 -0.612861
O8    O     O_R   0.392670 0.060580 0.892670 -0.602679
O9    O     O_R   0.999990 0.439420 0.908380 -0.629688
O10   O     O_R   0.000010 0.560580 0.091620 -0.576308
O11   O     O_R   0.000010 0.439420 0.091620 -0.629689
O12   O     O_R   0.999990 0.560580 0.908380 -0.576311
O13   O     O_R   0.499990 0.939420 0.908380 -0.629690
O14   O     O_R   0.500010 0.060580 0.091620 -0.576312
O15   O     O_R   0.500010 0.939420 0.091620 -0.629687
O16   O     O_R   0.499990 0.060580 0.908380 -0.576309
O17   O     O_R   0.060590 0.607350 0.560620 -0.608704
O18   O     O_R   0.939410 0.392650 0.439380 -0.624555
O19   O     O_R   0.939410 0.607350 0.439380 -0.608706
O20   O     O_R   0.060590 0.392650 0.560620 -0.624554
O21   O     O_R   0.560590 0.107350 0.560620 -0.608705
O22   O     O_R   0.439410 0.892650 0.439380 -0.624554
O23   O     O_R   0.439410 0.107350 0.439380 -0.608704
O24   O     O_R   0.560590 0.892650 0.560620 -0.624555
O25   O     O_R   0.060610 0.500000 0.652240 -0.611606
O26   O     O_R   0.939390 0.500000 0.347760 -0.611605
O27   O     O_R   0.560610 0.000000 0.652240 -0.611605
O28   O     O_R   0.439390 0.000000 0.347760 -0.611606
O29   O     O_R   0.939430 0.500000 0.531050 -0.622240
O30   O     O_R   0.060570 0.500000 0.468950 -0.622237
O31   O     O_R   0.439430 1.000000 0.531050 -0.622237
O32   O     O_R   0.560570 0.000000 0.468950 -0.622241
O33   O     O_R   0.500010 0.607330 0.448300 -0.614611
O34   O     O_R   0.499990 0.392670 0.551700 -0.608450
O35   O     O_R   0.499990 0.607330 0.551700 -0.614611
O36   O     O_R   0.500010 0.392670 0.448300 -0.608449
O37   O     O_R   0.000010 0.107330 0.448300 -0.614611
O38   O     O_R   0.999990 0.892670 0.551700 -0.608449
O39   O     O_R   0.999990 0.107330 0.551700 -0.614611
O40   O     O_R   0.000010 0.892670 0.448300 -0.608451
O41   O     O_R   0.607330 0.500000 0.555630 -0.613669
O42   O     O_R   0.392670 0.500000 0.444370 -0.613670
O43   O     O_R   0.107330 1.000000 0.555630 -0.613671
O44   O     O_R   0.892670 0.000000 0.444370 -0.613669
O45   O     O_R   0.607340 0.500000 0.659080 -0.605661
O46   O     O_R   0.392660 0.500000 0.340920 -0.605659
O47   O     O_R   0.107340 0.000000 0.659080 -0.605659
O48   O     O_R   0.892660 0.000000 0.340920 -0.605661
Zn1   Zn    Zn3+2 1.000000 0.419100 0.000000 1.033634
Zn2   Zn    Zn3+2 0.000000 0.580900 0.000000 1.082459
Zn3   Zn    Zn3+2 0.500000 0.919100 0.000000 1.033635
Zn4   Zn    Zn3+2 0.500000 0.080900 0.000000 1.082458
Zn5   Zn    Zn3+2 0.080920 0.500000 0.580940 1.025589
Zn6   Zn    Zn3+2 0.919080 0.500000 0.419060 1.025581
Zn7   Zn    Zn3+2 0.580920 1.000000 0.580940 1.025581
Zn8   Zn    Zn3+2 0.419080 0.000000 0.419060 1.025587
Zn9   Zn    Zn3+2 0.500000 0.500000 0.430940 1.034854
Zn10  Zn    Zn3+2 0.500000 0.500000 0.569060 1.034852
Zn11  Zn    Zn3+2 0.000000 1.000000 0.430940 1.034851
Zn12  Zn    Zn3+2 1.000000 0.000000 0.569060 1.034855
Cl1   Cl    Cl    0.113841 0.597106 0.936573 -0.531588
Cl2   Cl    Cl    0.886165 0.597113 0.063433 -0.531578
Cl3   Cl    Cl    0.613835 0.097113 0.936567 -0.531578
Cl4   Cl    Cl    0.386158 0.097105 0.063426 -0.531587
C81   C     C_2   0.786360 0.326201 0.602029 0.918079
O49   O     O_2   0.776912 0.335575 0.647782 -0.625334
O50   O     O_R   0.741918 0.276728 0.525703 -0.797895
H13   H     H_    0.704308 0.252326 0.515664 0.359998
C82   C     C_2   0.213629 0.326189 0.397961 0.918079
O51   O     O_2   0.223079 0.335563 0.352209 -0.625331
O52   O     O_R   0.258067 0.276712 0.474283 -0.797896
H14   H     H_    0.295676 0.252307 0.484320 0.359998
C83   C     C_2   0.286370 0.826190 0.602038 0.918079
O53   O     O_2   0.276921 0.835562 0.647791 -0.625331
O54   O     O_R   0.241930 0.776715 0.525713 -0.797895
H15   H     H_    0.204321 0.752310 0.515677 0.359998
C84   C     C_2   0.713640 0.826202 0.397971 0.918078
O55   O     O_2   0.723087 0.835574 0.352215 -0.625332
O56   O     O_R   0.758083 0.776730 0.474298 -0.797895
H16   H     H_    0.795693 0.752327 0.484335 0.359998
C85   C     C_2   0.094346 0.598315 0.779209 1.030595
O57   O     O_2   0.160763 0.597891 0.852705 -0.553381
O58   O     O_R   0.062014 0.648700 0.706834 -0.814846
H17   H     H_    0.099247 0.682028 0.723706 0.346079
C86   C     C_2   0.905663 0.598325 0.220801 1.030579
O59   O     O_2   0.839247 0.597916 0.147299 -0.553373
O60   O     O_R   0.938000 0.648697 0.293190 -0.814852
H18   H     H_    0.900772 0.682029 0.276323 0.346075
C87   C     C_2   0.594337 0.098325 0.779199 1.030578
O61   O     O_2   0.660753 0.097917 0.852701 -0.553373
O62   O     O_R   0.561999 0.148697 0.706810 -0.814853
H19   H     H_    0.599228 0.182030 0.723678 0.346075
C88   C     C_2   0.405652 0.098314 0.220790 1.030593
O63   O     O_2   0.339236 0.097891 0.147292 -0.553381
O64   O     O_R   0.437985 0.148696 0.293168 -0.814846
H20   H     H_    0.400751 0.182022 0.276298 0.346077

loop_
_geom_bond_atom_site_label_1
_geom_bond_atom_site_label_2
_ccdc_geom_bond_type
C58   C62   A    
C71   C75   A    
O56   H16   S    
C83   O53   D    
C56   C76   A    
C4    O6    A    
C2    C18   S    
C14   C70   A    
C84   O55   D    
C32   O32   A    
O6    Zn4   S    
O52   H14   S    
C11   C87   S    
C47   C79   S    
C72   C76   A    
C16   C72   A    
C82   O51   D    
C66   H10   S    
C39   O43   A    
C87   O61   D    
C65   H9    S    
C46   O10   A    
C5    C77   A    
C81   O49   D    
C60   C84   S    
C64   C68   A    
C13   C29   S    
C2    O3    A    
C32   O28   A    
O37   Zn11  S    
C55   C59   A    
C36   O40   A    
O35   Zn10  S    
C61   H5    S    
O43   Zn11  S    
C6    C78   A    
C48   O15   A    
O27   Zn7   S    
O42   Zn10  S    
O47   Zn12  S    
C33   O35   A    
O20   Zn5   S    
C15   C31   S    
O25   Zn5   S    
O30   Zn5   S    
C57   C61   A    
C9    C13   A    
O5    Zn3   S    
C57   C81   S    
C28   O24   A    
O44   Zn12  S    
C54   C74   A    
O9    Zn1   S    
C3    O8    A    
C48   O14   A    
C12   C16   A    
C47   O13   A    
C29   O29   A    
C70   C74   A    
C9    C85   S    
C8    C12   A    
C26   O18   A    
C67   C71   A    
C59   C83   S    
C68   C72   A    
C55   C75   A    
C85   O58   S    
C81   O50   S    
C37   O45   A    
C84   O56   S    
O39   Zn12  S    
C11   C15   A    
C14   C30   S    
C8    Cl4   S    
O11   Zn1   S    
C67   H11   S    
C82   O52   S    
C56   H4    S    
C63   C67   A    
C87   O62   S    
O46   Zn9   S    
O32   Zn7   S    
C39   O47   A    
C62   C66   A    
O2    Zn2   S    
C30   O30   A    
C2    O2    A    
O41   Zn9   S    
C54   H2    S    
O13   Zn3   S    
O8    Zn4   S    
O19   Zn6   S    
C25   C41   S    
O54   H15   S    
C46   C78   S    
C53   C57   A    
C43   C49   T    
C30   O26   A    
C86   O60   S    
C33   C50   S    
C85   O57   D    
C29   O25   A    
O23   Zn8   S    
C28   C44   S    
C1    O1    A    
C17   C21   T    
C56   C60   A    
C4    C20   S    
C19   C23   T    
O62   H19   S    
C5    C9    A    
C45   O12   A    
C36   O38   A    
C62   H6    S    
C3    O5    A    
C47   O16   A    
C7    C11   A    
O50   H13   S    
O26   Zn6   S    
C34   O34   A    
C3    C19   S    
C33   O33   A    
C38   O46   A    
C7    Cl3   S    
O31   Zn8   S    
C69   C73   A    
O48   Zn11  S    
C31   O27   A    
C6    Cl2   S    
C36   C51   S    
C28   O22   A    
C27   O21   A    
C34   O36   A    
C41   C51   T    
O3    Zn1   S    
C45   O9    A    
C10   C14   A    
O10   Zn2   S    
C37   O41   A    
O45   Zn10  S    
C55   H3    S    
C26   O20   A    
O16   Zn4   S    
O1    Zn1   S    
C26   C42   S    
C7    C79   A    
C54   C58   A    
C44   C50   T    
C65   C69   A    
C27   C43   S    
C35   O37   A    
C24   C40   S    
C34   C49   S    
O28   Zn8   S    
C63   H7    S    
C18   C22   T    
C10   C86   S    
C53   C73   A    
O17   Zn5   S    
C76   C80   A    
C6    C10   A    
O24   Zn7   S    
O14   Zn4   S    
C25   O17   A    
C16   C32   S    
C15   C71   A    
C46   O11   A    
C59   C63   A    
C60   C64   A    
C48   C80   S    
C35   O39   A    
C31   O31   A    
O64   H20   S    
O58   H17   S    
O38   Zn12  S    
O34   Zn10  S    
O21   Zn7   S    
C88   O63   D    
C66   C70   A    
C13   C69   A    
C1    O4    A    
C23   C39   S    
C12   C88   S    
C40   O48   A    
C53   H1    S    
C68   H12   S    
C64   H8    S    
O12   Zn2   S    
C38   O42   A    
O33   Zn9   S    
O15   Zn3   S    
O22   Zn8   S    
C88   O64   S    
C25   O19   A    
O7    Zn3   S    
O4    Zn2   S    
O60   H18   S    
C5    Cl1   S    
C61   C65   A    
O36   Zn9   S    
C21   C37   S    
C1    C17   S    
C83   O54   S    
C86   O59   D    
C74   C78   A    
C4    O7    A    
C35   C52   S    
C8    C80   A    
O40   Zn11  S    
C73   C77   A    
O29   Zn6   S    
C45   C77   S    
C40   O44   A    
O18   Zn6   S    
C58   C82   S    
C75   C79   A    
C20   C24   T    
C42   C52   T    
C22   C38   S    
C27   O23   A    
