data_mof_unit_27928.cif
_audit_creation_date              2013-03-05T15:55:20-0500
_audit_creation_method            fapswitch 2.2
_symmetry_space_group_name_H-M    P1
_symmetry_Int_Tables_number       1
_space_group_crystal_system       triclinic
_cell_length_a                    14.743377
_cell_length_b                    14.740948
_cell_length_c                    33.197068
_cell_angle_alpha                 96.066894
_cell_angle_beta                  96.133294
_cell_angle_gamma                 61.102251
_cell_volume                      6268.12951227

loop_
_atom_site_label
_atom_site_type_symbol
_atom_site_description
_atom_site_fract_x
_atom_site_fract_y
_atom_site_fract_z
_atom_type_partial_charge
O1    O     O_R   0.679450 0.499830 0.463150 -0.500910
O2    O     O_R   0.480650 0.664000 0.464630 -0.503403
C1    C     C_R   0.390921 0.700391 0.446160 0.838893
O3    O     O_R   0.323930 0.675950 0.455370 -0.520998
O4    O     O_R   0.354700 0.475360 0.451930 -0.519361
C2    C     C_R   0.403083 0.384714 0.434774 0.934791
O5    O     O_R   0.494470 0.320860 0.448390 -0.474374
O6    O     O_R   0.662580 0.357570 0.460050 -0.507746
C3    C     C_R   0.703034 0.408770 0.447963 0.861752
O7    O     O_R   0.680900 0.502040 0.551870 -0.512537
O8    O     O_R   0.481990 0.666040 0.546870 -0.530974
C4    C     C_R   0.392456 0.703061 0.560696 0.806725
O9    O     O_R   0.325370 0.678160 0.544080 -0.522854
O10   O     O_R   0.356040 0.477400 0.534170 -0.534738
C5    C     C_R   0.406225 0.388321 0.548812 0.888529
O11   O     O_R   0.495910 0.323070 0.537100 -0.482869
O12   O     O_R   0.663920 0.359620 0.542290 -0.510764
C6    C     C_R   0.703034 0.412640 0.562636 0.875016
Cr1   Cr    Cr6+3 0.576280 0.580550 0.506370 1.112778
Cr2   Cr    Cr6+3 0.346780 0.572400 0.496520 1.083327
Cr3   Cr    Cr6+3 0.576960 0.347070 0.497150 1.176944
O13   O     O_3   0.500010 0.500010 0.500010 -0.397193
H1    H     H_    0.446497 0.162274 0.109058 0.189339
H2    H     H_    0.465939 0.191659 0.182044 0.181932
C7    C     C_R   0.359893 0.362013 0.394488 -0.337583
C8    C     C_R   0.279767 0.445170 0.372936 0.227863
C9    C     C_R   0.271376 0.436121 0.330354 0.300995
C10   C     C_R   0.334073 0.341174 0.309714 -0.196356
C11   C     C_R   0.397980 0.252464 0.331370 0.116486
C12   C     C_R   0.410635 0.262422 0.374123 0.349528
C13   C     C_R   0.396772 0.246740 0.165495 -0.058986
C14   C     C_R   0.385568 0.230626 0.123682 -0.159034
C15   C     C_R   0.217277 0.386550 0.121956 0.319361
C16   C     C_R   0.227931 0.400980 0.164524 0.127599
C17   C     C_R   0.316574 0.328495 0.186145 -0.026227
C18   C     C_1   0.324030 0.332768 0.229649 0.100923
C19   C     C_1   0.329247 0.335335 0.266088 0.171843
C20   C     C_R   0.293910 0.296651 0.101610 -0.199716
N1    N     N_R   0.773863 0.392722 0.226997 -0.228423
N2    N     N_R   0.767417 0.400549 0.266948 -0.229652
C21   C     C_R   0.765627 0.368905 0.411711 -0.301789
C22   C     C_R   0.835478 0.405084 0.404427 0.166408
C23   C     C_R   0.869321 0.392280 0.365025 0.127910
C24   C     C_R   0.837678 0.339017 0.334019 -0.191851
C25   C     C_R   0.782222 0.289489 0.342778 0.111803
C26   C     C_R   0.745569 0.304798 0.381308 0.311110
N3    N     N_R   0.942799 0.276949 0.274983 -0.231330
N4    N     N_R   0.949333 0.269365 0.234979 -0.232747
C27   C     C_R   0.864641 0.326176 0.210354 0.577472
C28   C     C_R   0.851579 0.342748 0.291523 0.595035
C29   C     C_R   0.850963 0.397663 0.144270 0.175172
C30   C     C_R   0.870201 0.381802 0.103372 -0.151997
C31   C     C_R   0.919761 0.198968 0.104698 0.331046
C32   C     C_R   0.899859 0.214762 0.146107 0.096277
C33   C     C_R   0.870687 0.313088 0.166298 -0.159082
C34   C     C_R   0.911261 0.282017 0.083821 -0.237870
H3    H     H_    0.860055 0.447085 0.087605 0.219625
N5    N     N_R   0.401417 0.739383 0.219819 -0.211603
N6    N     N_R   0.407496 0.731772 0.259679 -0.221810
C35   C     C_R   0.371224 0.755832 0.408850 -0.215108
C36   C     C_R   0.274085 0.790336 0.387431 -0.105926
C37   C     C_R   0.261708 0.812382 0.346926 -0.090730
C38   C     C_R   0.345851 0.801685 0.327291 -0.117090
C39   C     C_R   0.439870 0.780898 0.349610 0.119482
C40   C     C_R   0.452595 0.758807 0.390650 0.328282
N7    N     N_R   0.255228 0.890595 0.265682 -0.236691
N8    N     N_R   0.249321 0.898401 0.225845 -0.213958
C41   C     C_R   0.322456 0.823162 0.202372 0.620038
C42   C     C_R   0.335692 0.808172 0.283313 0.577977
C43   C     C_R   0.293894 0.789507 0.128159 0.123816
C44   C     C_R   0.279169 0.821622 0.088317 0.195393
C45   C     C_R   0.333221 0.950712 0.113191 -0.238115
C46   C     C_R   0.348427 0.919539 0.152533 0.392872
C47   C     C_R   0.324836 0.841352 0.160265 -0.186619
C48   C     C_R   0.295298 0.905471 0.081378 -0.171691
H4    H     H_    0.209074 0.793909 0.401227 0.220209
H5    H     H_    0.187986 0.831783 0.330241 0.194001
H6    H     H_    0.346420 0.014556 0.107793 0.177805
N9    N     N_R   0.410379 0.339038 0.774002 -0.182535
N10   N     N_R   0.416783 0.341466 0.734488 -0.183550
C49   C     C_R   0.368672 0.365173 0.584269 -0.294632
C50   C     C_R   0.306559 0.445978 0.612177 0.059692
C51   C     C_R   0.307054 0.423939 0.652285 0.335368
C52   C     C_R   0.361417 0.320748 0.663692 -0.237011
C53   C     C_R   0.407610 0.238529 0.634348 0.109322
C54   C     C_R   0.411071 0.260607 0.594411 0.361610
N11   N     N_R   0.315103 0.258505 0.719516 -0.215347
N12   N     N_R   0.308604 0.256184 0.759002 -0.210733
C55   C     C_R   0.355262 0.297219 0.786870 0.682476
C56   C     C_R   0.369000 0.301558 0.706633 0.636312
C57   C     C_R   0.232775 0.357702 0.841188 0.268581
C58   C     C_R   0.211184 0.359271 0.881467 0.229184
C59   C     C_R   0.397185 0.265761 0.900305 0.273333
C60   C     C_R   0.418592 0.266211 0.859865 0.269197
C61   C     C_R   0.336054 0.306166 0.829973 -0.328398
C62   C     C_R   0.293107 0.303873 0.910175 -0.355938
H7    H     H_    0.894553 0.176526 0.797799 0.184999
C63   C     C_R   0.758046 0.379621 0.603356 -0.370550
C64   C     C_R   0.805520 0.435376 0.625403 0.246946
C65   C     C_R   0.825106 0.429748 0.667944 0.269865
C66   C     C_R   0.796647 0.369037 0.688284 -0.258584
C67   C     C_R   0.761828 0.303953 0.666103 0.273242
C68   C     C_R   0.745636 0.306570 0.623633 0.235520
C69   C     C_R   0.879463 0.238387 0.821210 -0.126336
C70   C     C_R   0.908068 0.213862 0.861541 0.142377
C71   C     C_R   0.836088 0.398448 0.881724 0.362503
C72   C     C_R   0.807520 0.421892 0.840625 0.176169
C73   C     C_R   0.835093 0.340572 0.810448 -0.056250
C74   C     C_1   0.819907 0.358169 0.767955 0.151025
C75   C     C_1   0.809951 0.365929 0.731849 0.234231
C76   C     C_R   0.895792 0.293180 0.892005 -0.227388
H8    H     H_    0.535110 0.647634 0.622472 0.162074
C77   C     C_R   0.376623 0.751536 0.602071 -0.122856
C78   C     C_R   0.277760 0.826683 0.614477 0.181952
C79   C     C_R   0.261810 0.850901 0.655896 -0.126997
C80   C     C_R   0.343172 0.800620 0.684847 0.024701
C81   C     C_R   0.442624 0.730003 0.672519 0.216916
C82   C     C_R   0.459062 0.706626 0.631384 -0.186832
C83   C     C_R   0.370752 0.898663 0.827012 0.137985
C84   C     C_R   0.367315 0.918908 0.869307 0.102410
C85   C     C_R   0.253910 0.841383 0.870338 0.127476
C86   C     C_R   0.260620 0.817914 0.828129 0.142277
C87   C     C_R   0.313878 0.852327 0.806500 -0.097122
C88   C     C_1   0.316558 0.835014 0.763173 0.109735
C89   C     C_1   0.325037 0.820633 0.727166 0.089823
C90   C     C_R   0.297660 0.902514 0.890271 -0.232871
H9    H     H_    0.185482 0.907165 0.665472 0.170312
O14   O     O_R   0.170070 0.978950 0.027680 -0.493374
O15   O     O_R   0.001760 0.175230 0.026640 -0.502254
C91   C     C_R   0.963708 0.264188 0.045890 0.855017
O16   O     O_R   0.984760 0.333570 0.037150 -0.519410
O17   O     O_R   0.183410 0.309240 0.041890 -0.502218
C92   C     C_R   0.273224 0.260433 0.059933 0.845451
O18   O     O_R   0.340240 0.172500 0.045430 -0.543047
O19   O     O_R   0.309670 0.000990 0.032050 -0.546439
C93   C     C_R   0.259805 0.958484 0.043350 0.837689
O20   O     O_R   0.168330 0.982130 0.939200 -0.518439
O21   O     O_R   0.000140 0.178170 0.944610 -0.529793
C94   C     C_R   0.959431 0.268947 0.931309 0.874232
O22   O     O_R   0.983010 0.336750 0.948660 -0.483216
O23   O     O_R   0.181800 0.312190 0.959860 -0.502213
C95   C     C_R   0.271617 0.265030 0.945645 0.915734
O24   O     O_R   0.338500 0.175680 0.956950 -0.515946
O25   O     O_R   0.308050 0.003930 0.950020 -0.529567
C96   C     C_R   0.258489 0.961539 0.929569 0.825604
Cr4   Cr    Cr6+3 0.087320 0.083240 0.984860 1.102095
Cr5   Cr    Cr6+3 0.087720 0.316210 0.996740 1.155453
Cr6   Cr    Cr6+3 0.317350 0.090340 0.995890 1.036377
O26   O     O_3   0.164130 0.163270 0.992500 -0.388296
N13   N     N_R   0.680734 0.261567 0.388093 0.139038
O27   O     O_R   0.588793 0.297295 0.369727 -0.385838
O28   O     O_R   0.718005 0.178987 0.408518 -0.279992
I1    I     I_    0.963157 0.457341 0.350865 -0.058892
I2    I     I_    0.750397 0.192297 0.297209 -0.093796
I3    I     I_    0.803986 0.549584 0.171551 -0.105613
N14   N     N_R   0.951387 0.098300 0.084581 0.138299
O29   O     O_R   0.894041 0.085958 0.054203 -0.305766
O30   O     O_R   0.036580 0.018525 0.096906 -0.347718
I4    I     I_    0.909153 0.090651 0.177500 -0.084885
N15   N     N_R   0.548446 0.737807 0.413228 0.141142
O31   O     O_R   0.635062 0.658381 0.402496 -0.340843
O32   O     O_R   0.549180 0.798176 0.444680 -0.292821
I5    I     I_    0.234117 0.743831 0.038674 -0.064149
I6    I     I_    0.560638 0.789570 0.322527 0.019623
I7    I     I_    0.263227 0.668046 0.140982 -0.127283
N16   N     N_R   0.383721 0.970936 0.184640 0.114933
O33   O     O_R   0.451063 0.918425 0.213174 -0.328969
O34   O     O_R   0.355035 0.069171 0.183677 -0.379307
I8    I     I_    0.200833 0.600659 0.595437 -0.042911
N17   N     N_R   0.456016 0.177486 0.563836 0.165209
O35   O     O_R   0.550609 0.102939 0.569298 -0.246117
O36   O     O_R   0.406016 0.181886 0.528711 -0.313995
N18   N     N_R   0.106138 0.417776 0.893016 0.168505
O37   O     O_R   0.033174 0.403107 0.873002 -0.342768
O38   O     O_R   0.081739 0.492971 0.921062 -0.277307
N19   N     N_R   0.252659 0.506965 0.681765 0.153204
O39   O     O_R   0.278913 0.579637 0.690591 -0.339186
O40   O     O_R   0.182351 0.505897 0.702007 -0.263030
I9    I     I_    0.473323 0.081521 0.650708 -0.008664
I10   I     I_    0.471983 0.104342 0.298874 -0.020686
N20   N     N_R   0.149630 0.412212 0.811796 0.194724
O41   O     O_R   0.093018 0.370864 0.795253 -0.299583
O42   O     O_R   0.141725 0.494008 0.796850 -0.269702
N21   N     N_R   0.480631 0.224970 0.931229 0.178773
O43   O     O_R   0.470192 0.271852 0.967261 -0.329713
O44   O     O_R   0.566623 0.140530 0.923869 -0.268553
N22   N     N_R   0.523757 0.224994 0.849145 0.181318
O45   O     O_R   0.582071 0.262805 0.867252 -0.293724
O46   O     O_R   0.561248 0.150321 0.821034 -0.301257
I11   I     I_    0.968457 0.054413 0.871255 -0.135212
N23   N     N_R   0.744448 0.233187 0.686688 0.156530
O47   O     O_R   0.678034 0.267888 0.714691 -0.331859
O48   O     O_R   0.793655 0.133988 0.676919 -0.276970
N24   N     N_R   0.712084 0.237727 0.601708 0.182659
O49   O     O_R   0.768832 0.170314 0.574133 -0.285197
O50   O     O_R   0.632154 0.233545 0.612634 -0.323060
N25   N     N_R   0.831794 0.499738 0.604855 0.187002
O51   O     O_R   0.885565 0.462454 0.572868 -0.315284
O52   O     O_R   0.801533 0.595855 0.617848 -0.275383
I12   I     I_    0.721423 0.578898 0.824077 0.013535
N26   N     N_R   0.805218 0.480967 0.912999 0.144261
O53   O     O_R   0.830770 0.553872 0.912585 -0.259560
O54   O     O_R   0.761146 0.477216 0.944262 -0.341234
N27   N     N_R   0.473227 0.172408 0.396953 0.177420
O55   O     O_R   0.566805 0.105923 0.387160 -0.249104
O56   O     O_R   0.438595 0.159808 0.429223 -0.300240
N28   N     N_R   0.877095 0.482775 0.690010 0.198135
O57   O     O_R   0.842297 0.537822 0.723584 -0.290218
O58   O     O_R   0.961827 0.473319 0.677201 -0.254665
I13   I     I_    0.478509 0.960917 0.900088 -0.070916
I14   I     I_    0.458783 0.941494 0.792827 -0.131564
I15   I     I_    0.569487 0.650111 0.714416 -0.196631
I16   I     I_    0.149942 0.906396 0.572643 -0.136249
I17   I     I_    0.189165 0.732547 0.796064 -0.005639
I18   I     I_    0.190142 0.772704 0.904680 -0.082187
N29   N     N_R   0.207565 0.538802 0.394041 0.171664
O59   O     O_R   0.188066 0.629162 0.383375 -0.327793
O60   O     O_R   0.155537 0.533807 0.422254 -0.312622
I19   I     I_    0.109745 0.531443 0.196042 -0.012747
N30   N     N_R   0.128630 0.462272 0.099780 0.134911
O61   O     O_R   0.035789 0.479281 0.105758 -0.346383
O62   O     O_R   0.141140 0.510481 0.071974 -0.309291
N31   N     N_R   0.200095 0.524083 0.307972 0.155541
O63   O     O_R   0.235098 0.566839 0.285914 -0.344514
O64   O     O_R   0.100704 0.565367 0.311531 -0.282661
I20   I     I_    0.893924 0.474644 0.452948 0.011055

loop_
_geom_bond_atom_site_label_1
_geom_bond_atom_site_label_2
_geom_bond_distance
_ccdc_geom_bond_type
N24   O50   1.300138 A    
N11   N12   1.329674 A    
C66   C67   1.404287 A    
C92   O18   1.272838 A    
C81   C82   1.390226 A    
C21   C22   1.419420 A    
C37   H5    1.083677 S    
N31   O63   1.300926 A    
C39   I6    2.140393 S    
N30   O62   1.301084 A    
C49   C50   1.417580 A    
C76   C94   1.491084 S    
O19   C93   1.275783 A    
C5    C49   1.488345 S    
O4    Cr2   1.918056 S    
C31   C32   1.408000 A    
C80   C81   1.401422 A    
C4    O9    1.268374 A    
O8    Cr1   1.917373 S    
C8    C9    1.403591 A    
O11   Cr3   2.039199 S    
C44   I5    2.138869 S    
C85   I18   2.145119 S    
O20   C96   1.281255 A    
C10   C11   1.406322 A    
Cr5   O26   1.970716 S    
N29   O60   1.301402 A    
C77   C78   1.411575 A    
O2    C1    1.274410 A    
O14   C93   1.269759 A    
C53   C54   1.409928 A    
O4    C2    1.274119 A    
C59   N21   1.440350 S    
C84   C90   1.423201 A    
C15   N30   1.433222 S    
N7    C42   1.354624 A    
N17   O35   1.300886 A    
C41   C47   1.458022 S    
C63   C68   1.419906 A    
C58   C62   1.413917 A    
C79   H9    1.083499 S    
C73   C74   1.435640 S    
C8    N29   1.436668 S    
C16   C17   1.406008 A    
N26   O53   1.300987 A    
C20   C92   1.484384 S    
N25   O52   1.301369 A    
N30   O61   1.300642 A    
C45   H6    1.084346 S    
C67   C68   1.406031 A    
C32   I4    2.140617 S    
C90   C96   1.492621 S    
C51   C52   1.406485 A    
N21   O44   1.301184 A    
O17   C92   1.276966 A    
C11   I10   2.138403 S    
C43   C47   1.410332 A    
C21   C26   1.415578 A    
O16   Cr5   2.038744 S    
C43   C44   1.411477 A    
C68   N24   1.434037 S    
C14   C20   1.406510 A    
C9    N31   1.434424 S    
C29   C33   1.403736 A    
C49   C54   1.418982 A    
O25   Cr6   1.916827 S    
C45   C46   1.389944 A    
C1    C35   1.481234 S    
C22   I20   2.143980 S    
N7    N8    1.329493 A    
C70   C76   1.416767 A    
C50   I8    2.141318 S    
N18   O37   1.298888 A    
Cr3   O13   1.970925 S    
N16   O34   1.300691 A    
N26   O54   1.301253 A    
C78   I16   2.122774 S    
N25   O51   1.301368 A    
C52   C56   1.464650 S    
C45   C48   1.399286 A    
C4    C77   1.466816 S    
O22   Cr5   2.036264 S    
C69   C70   1.391223 A    
C65   N28   1.439856 S    
C67   N23   1.437797 S    
N3    C28   1.354804 A    
C71   C76   1.423673 A    
N20   O42   1.300726 A    
C36   H4    1.082185 S    
C84   I13   2.145829 S    
O24   Cr6   2.039566 S    
O7    C6    1.276690 A    
O1    Cr1   2.035755 S    
N9    C55   1.355302 A    
C38   C39   1.407941 A    
C30   C34   1.404588 A    
C29   C30   1.389106 A    
N3    N4    1.330777 A    
C38   C42   1.460121 S    
O20   Cr4   2.033305 S    
C87   C88   1.435368 S    
Cr1   O13   1.976141 S    
O1    C3    1.272866 A    
C52   C53   1.405763 A    
C30   H3    1.083058 S    
C43   I7    2.139167 S    
C57   C58   1.402540 A    
C48   C93   1.466421 S    
O6    C3    1.279281 A    
C7    C8    1.419590 A    
N20   O41   1.301028 A    
C57   C61   1.406287 A    
O12   Cr3   1.919275 S    
N23   O47   1.301716 A    
C35   C36   1.403619 A    
C17   C18   1.433662 S    
N15   O32   1.301052 A    
C55   C61   1.468210 S    
C23   C24   1.405054 A    
N23   O48   1.301738 A    
C11   C12   1.412983 A    
O10   Cr2   1.921103 S    
Cr4   O26   1.976122 S    
C13   C14   1.389116 A    
O10   C5    1.275551 A    
O7    Cr1   2.036271 S    
C53   I9    2.139232 S    
N29   O59   1.300038 A    
C29   I3    2.126338 S    
C64   N25   1.436644 S    
C37   C38   1.396680 A    
O12   C6    1.280776 A    
O15   Cr4   1.917500 S    
C60   C61   1.408979 A    
C59   C60   1.412948 A    
N27   O55   1.300501 A    
C83   C84   1.405384 A    
C66   C75   1.441144 S    
C40   N15   1.433372 S    
C85   C86   1.409586 A    
N18   O38   1.301154 A    
N6    C42   1.357593 A    
N5    C41   1.354061 A    
N8    C41   1.356839 A    
C26   N13   1.426768 S    
N27   O56   1.301316 A    
C35   C40   1.420400 A    
C50   C51   1.401982 A    
C59   C62   1.418751 A    
C80   C89   1.431303 S    
C57   N20   1.434767 S    
N16   O33   1.301319 A    
C13   C17   1.393456 A    
N9    N10   1.330608 A    
C25   C26   1.395623 A    
C22   C23   1.411328 A    
C72   C73   1.402875 A    
C1    O3    1.276922 A    
C46   C47   1.408644 A    
C69   C73   1.391384 A    
C12   N27   1.437467 S    
C24   C25   1.399523 A    
O15   C91   1.277167 A    
C31   C34   1.416778 A    
C24   C28   1.457487 S    
C7    C12   1.417307 A    
C32   C33   1.410250 A    
N4    C27   1.358170 A    
O9    Cr2   2.033094 S    
N1    C27   1.354002 A    
O2    Cr1   1.920328 S    
C54   N17   1.437632 S    
O17   Cr5   1.920431 S    
C83   I14   2.151535 S    
C70   I11   2.120733 S    
C81   I15   2.116897 S    
C44   C48   1.411844 A    
Cr2   O13   1.973838 S    
C46   N16   1.439656 S    
O6    Cr3   1.922407 S    
C94   O22   1.273939 A    
N31   O64   1.300570 A    
C78   C79   1.399116 A    
C2    O5    1.280520 A    
O3    Cr2   2.038387 S    
C83   C87   1.402322 A    
C58   N18   1.433670 S    
O18   Cr6   2.034887 S    
C3    C21   1.486264 S    
C15   C20   1.419727 A    
N13   O27   1.299175 A    
C64   C65   1.413907 A    
O25   C96   1.277080 A    
N15   O31   1.300960 A    
N19   O39   1.301307 A    
C91   O16   1.270945 A    
N5    N6    1.329617 A    
H2    C13   1.084122 S    
N22   O45   1.301176 A    
C27   C33   1.461422 S    
O23   C95   1.278260 A    
H1    C14   1.082991 S    
C71   N26   1.436567 S    
H8    C82   1.083977 S    
C2    C7    1.495123 S    
O14   Cr4   2.037428 S    
C79   C80   1.398887 A    
C72   I12   2.133061 S    
N17   O36   1.301298 A    
C10   C19   1.437865 S    
O21   Cr4   1.919774 S    
N2    C28   1.356466 A    
O5    Cr3   2.037109 S    
C39   C40   1.406226 A    
N14   O30   1.300862 A    
C65   C66   1.408571 A    
C15   C16   1.410041 A    
N24   O49   1.301260 A    
N13   O28   1.300715 A    
C60   N22   1.435790 S    
O19   Cr6   1.922486 S    
N10   C56   1.357881 A    
C36   C37   1.389119 A    
N22   O46   1.301186 A    
H7    C69   1.084469 S    
O21   C94   1.279787 A    
O23   Cr5   1.922097 S    
C62   C95   1.487402 S    
C77   C82   1.402926 A    
N1    N2    1.328652 A    
C86   I17   2.141267 S    
C85   C90   1.417909 A    
N14   O29   1.300997 A    
N12   C55   1.357523 A    
C31   N14   1.433117 S    
C18   C19   1.201611 T    
C63   C64   1.421412 A    
C71   C72   1.412253 A    
N11   C56   1.354446 A    
C74   C75   1.202687 T    
C9    C10   1.401818 A    
N28   O58   1.301356 A    
N28   O57   1.300984 A    
C95   O24   1.272051 A    
C88   C89   1.200883 T    
N21   O43   1.301496 A    
C25   I2    2.145044 S    
C6    C63   1.498440 S    
C86   C87   1.404227 A    
C51   N19   1.436902 S    
C23   I1    2.138056 S    
Cr6   O26   1.973698 S    
C34   C91   1.481317 S    
C5    O11   1.275269 A    
O8    C4    1.277209 A    
N19   O40   1.301192 A    
C16   I19   2.134232 S    
