data_mof_unit_34761.cif
_audit_creation_date              2012-12-10T19:08:08-0500
_audit_creation_method            fapswitch 2.2
_symmetry_space_group_name_H-M    P1
_symmetry_Int_Tables_number       1
_space_group_crystal_system       triclinic
_cell_length_a                    9.074321
_cell_length_b                    10.830792
_cell_length_c                    9.566606
_cell_angle_alpha                 90.168862
_cell_angle_beta                  89.975903
_cell_angle_gamma                 89.994495
_cell_volume                      940.221796723

loop_
_atom_site_label
_atom_site_type_symbol
_atom_type_description
_atom_site_fract_x
_atom_site_fract_y
_atom_site_fract_z
_atom_type_partial_charge
C1    C     C_R   0.497492 0.262502 0.499843 0.794322
C2    C     C_R   0.452656 0.935117 0.377075 -0.199165
C3    C     C_R   0.488573 0.870805 0.500080 -0.040497
C4    C     C_R   0.506697 0.937678 0.623774 0.062447
C5    C     C_3   0.620623 0.935161 0.737833 -0.205787
C6    C     C_3   0.611533 0.075842 0.738972 -0.481229
C7    C     C_R   0.628972 0.508283 0.073616 0.251971
C8    C     C_R   0.373871 0.480512 0.074085 -0.081088
C9    C     C_R   0.373858 0.480576 0.925805 -0.072521
C10   C     C_R   0.629060 0.507849 0.926408 0.237802
C11   C     C_3   0.738086 0.610570 0.921032 -0.453550
C12   C     C_R   0.220734 0.500166 0.500000 0.843867
C13   C     C_3   0.737734 0.611282 0.079671 -0.475365
C14   C     C_R   0.498575 0.737554 0.500051 0.844875
C15   C     C_R   0.779245 0.500284 0.500014 0.872812
C16   C     C_1   0.065544 0.500404 0.500036 -0.192394
C17   C     C_1   0.934405 0.500454 0.500020 -0.192764
C18   C     C_R   0.500383 0.064275 0.624594 0.092679
C19   C     C_R   0.484878 0.129511 0.500130 -0.075428
C20   C     C_R   0.451776 0.064083 0.376860 -0.201031
Cu1   Cu    Cu3+1 0.499990 0.499980 0.640670 0.951971
Cu2   Cu    Cu3+1 0.500010 0.500020 0.359330 0.949671
H1    H     H_    0.430535 0.111958 0.279685 0.165588
H2    H     H_    0.690598 0.695403 0.874895 0.211436
H3    H     H_    0.844608 0.581646 0.125387 0.201433
H4    H     H_    0.690581 0.697093 0.125602 0.220021
H5    H     H_    0.430912 0.886424 0.280195 0.163102
H6    H     H_    0.577151 0.892694 0.835129 0.129606
H7    H     H_    0.561966 0.113393 0.836520 0.195990
H8    H     H_    0.713246 0.124295 0.704069 0.198585
H9    H     H_    0.270989 0.465869 0.128251 0.149898
H10   H     H_    0.270964 0.466034 0.871606 0.150955
H11   H     H_    0.845132 0.580817 0.875499 0.205487
N1    N     N_R   0.500920 0.500930 0.147930 -0.187217
N2    N     N_R   0.500930 0.500890 0.852020 -0.188095
O1    O     O_R   0.500000 0.319640 0.618810 -0.577416
O2    O     O_R   0.500020 0.319680 0.381230 -0.584885
O3    O     O_R   0.288380 0.499980 0.618770 -0.588158
O4    O     O_R   0.288400 0.500020 0.381190 -0.591420
O5    O     O_R   0.499980 0.680320 0.618770 -0.584672
O6    O     O_R   0.500000 0.680360 0.381190 -0.585037
O7    O     O_R   0.711600 0.499980 0.618810 -0.579617
O8    O     O_R   0.711620 0.500020 0.381230 -0.577826
C21   C     C_2   0.772276 0.889408 0.697370 0.869005
O9    O     O_2   0.871370 0.894007 0.783741 -0.598526
O10   O     O_R   0.800645 0.842812 0.563593 -0.775616
H12   H     H_    0.906476 0.814615 0.551658 0.325783

loop_
_geom_bond_atom_site_label_1
_geom_bond_atom_site_label_2
_ccdc_geom_bond_type
C7    C10   A    
C10   N2    A    
Cu1   N2    S    
C5    H6    S    
C19   C20   A    
C20   H1    S    
C1    O2    A    
C4    C18   A    
C12   O4    A    
C7    C13   S    
C2    C3    A    
C15   O8    A    
Cu1   O1    S    
C8    N1    A    
Cu1   Cu2   S    
C11   C13   S    
C13   H3    S    
C2    H5    S    
C3    C14   S    
C14   O6    A    
Cu2   N1    S    
Cu2   O4    S    
C6    H8    S    
C5    C21   S    
C21   O10   S    
C12   O3    A    
C5    C6    S    
C6    C18   S    
C7    N1    A    
C13   H4    S    
C1    C19   S    
Cu2   O6    S    
C16   C17   T    
C10   C11   S    
Cu1   O3    S    
C2    C20   A    
C3    C4    A    
C11   H2    S    
C11   H11   S    
C6    H7    S    
C21   O9    D    
C15   O7    A    
C15   C17   S    
C18   C19   A    
C9    N2    A    
O10   H12   S    
C8    C9    A    
Cu1   O7    S    
C9    H10   S    
Cu2   O2    S    
C14   O5    A    
Cu2   O8    S    
C8    H9    S    
C12   C16   S    
C1    O1    A    
C4    C5    S    
Cu1   O5    S    
