data_mof_unit_12830.cif
_audit_creation_date              2012-12-10T16:47:56-0500
_audit_creation_method            fapswitch 2.2
_symmetry_space_group_name_H-M    P1
_symmetry_Int_Tables_number       1
_space_group_crystal_system       triclinic
_cell_length_a                    7.772776
_cell_length_b                    8.576882
_cell_length_c                    10.635781
_cell_angle_alpha                 90.648382
_cell_angle_beta                  86.538432
_cell_angle_gamma                 93.499419
_cell_volume                      706.412893886

loop_
_atom_site_label
_atom_site_type_symbol
_atom_type_description
_atom_site_fract_x
_atom_site_fract_y
_atom_site_fract_z
_atom_type_partial_charge
C1    C     C_R   0.545642 0.794659 0.496632 0.969134
C2    C     C_2   0.569669 0.958095 0.494408 -0.403804
C3    C     C_3   0.677568 0.240481 0.862701 -0.381274
C4    C     C_3   0.605531 0.084802 0.920343 -0.364433
C5    C     C_3   0.688995 0.946546 0.855025 -0.873328
C6    C     C_2   0.430316 0.041931 0.505386 -0.373293
C7    C     C_R   0.502378 0.493884 0.737237 0.911595
C8    C     C_R   0.454360 0.205337 0.503376 0.947837
C9    C     C_R   0.495028 0.490996 0.262693 0.947626
C10   C     C_2   0.607915 0.397816 0.062782 -0.185421
C11   C     C_2   0.478741 0.456962 0.132595 -0.382813
C12   C     C_2   0.593814 0.378170 0.927856 0.133913
C13   C     C_2   0.510776 0.487612 0.869532 -0.351645
H1    H     H_    0.725001 0.364850 0.103919 0.172559
H2    H     H_    0.636881 0.836267 0.900370 0.248700
H3    H     H_    0.630454 0.082143 0.022094 0.228500
H4    H     H_    0.463636 0.071988 0.910982 0.227520
H5    H     H_    0.656488 0.234474 0.760675 0.223746
H6    H     H_    0.819141 0.253941 0.873205 0.196957
H7    H     H_    0.354424 0.473880 0.094783 0.157656
H8    H     H_    0.452474 0.583621 0.920037 0.126919
H9    H     H_    0.701403 0.008908 0.484192 0.182427
H10   H     H_    0.298600 0.991131 0.515844 0.181564
H11   H     H_    0.013012 0.382257 0.406558 0.190361
H12   H     H_    0.986959 0.617683 0.593487 0.194555
H13   H     H_    0.660368 0.941591 0.754050 0.261667
H14   H     H_    0.831098 0.956683 0.862910 0.261843
N1    N     N_2   0.950320 0.457950 0.466680 -0.176936
N2    N     N_2   0.049680 0.542050 0.533320 -0.174160
O1    O     O_R   0.389250 0.738570 0.508180 -0.609229
O2    O     O_R   0.678390 0.711630 0.486820 -0.626588
O3    O     O_R   0.355470 0.513470 0.691600 -0.611402
O4    O     O_R   0.644610 0.486520 0.670240 -0.626007
O5    O     O_R   0.321610 0.288370 0.513180 -0.631331
O6    O     O_R   0.610750 0.261430 0.491820 -0.622969
O7    O     O_R   0.355390 0.513480 0.329760 -0.626877
O8    O     O_R   0.644530 0.486530 0.308400 -0.612330
Zn1   Zn    Zn3+2 0.306940 0.517990 0.514260 0.938136
Zn2   Zn    Zn3+2 0.693060 0.482010 0.485740 0.930623

loop_
_geom_bond_atom_site_label_1
_geom_bond_atom_site_label_2
_ccdc_geom_bond_type
N2    Zn1   S    
C4    H3    S    
C9    O7    A    
O6    Zn2   S    
C2    H9    S    
C3    C12   S    
O3    Zn1   S    
C7    O4    A    
C7    C13   S    
C9    O8    A    
C13   H8    S    
O8    Zn2   S    
C8    O5    A    
C3    H6    S    
C9    C11   S    
C2    C6    D    
C10   C12   S    
C6    H10   S    
O7    Zn1   S    
N1    N2    D    
O2    Zn2   S    
H12   N2    S    
C11   H7    S    
C5    H2    S    
C10   C11   D    
C4    H4    S    
C5    H13   S    
H11   N1    S    
C1    O2    A    
C12   C13   D    
O1    Zn1   S    
C3    H5    S    
C1    C2    S    
C10   H1    S    
C1    O1    A    
C6    C8    S    
C7    O3    A    
N1    Zn2   S    
C5    H14   S    
O4    Zn2   S    
C3    C4    S    
C4    C5    S    
C8    O6    A    
O5    Zn1   S    
