data_mof_unit_42005.cif
_audit_creation_date              2012-12-10T17:11:30-0500
_audit_creation_method            fapswitch 2.2
_symmetry_space_group_name_H-M    P1
_symmetry_Int_Tables_number       1
_space_group_crystal_system       triclinic
_cell_length_a                    15.089569
_cell_length_b                    13.000166
_cell_length_c                    11.746164
_cell_angle_alpha                 100.477381
_cell_angle_beta                  94.687471
_cell_angle_gamma                 91.833796
_cell_volume                      2255.62860146

loop_
_atom_site_label
_atom_site_type_symbol
_atom_type_description
_atom_site_fract_x
_atom_site_fract_y
_atom_site_fract_z
_atom_type_partial_charge
C1    C     C_R   0.498503 0.299013 0.478100 0.801543
C2    C     C_R   0.500451 0.700954 0.521718 0.801234
C3    C     C_R   0.059359 0.464680 0.696397 -0.249923
C4    C     C_R   0.941109 0.554657 0.312086 -0.255113
C5    C     C_R   0.497911 0.814469 0.533619 -0.046782
C6    C     C_R   0.498634 0.185334 0.465242 -0.049663
C7    C     C_R   0.517385 0.014965 0.348754 -0.214385
C8    C     C_R   0.476082 0.984503 0.648801 -0.218103
C9    C     C_R   0.513355 0.122948 0.358418 -0.202081
C10   C     C_R   0.479683 0.876526 0.638960 -0.195660
C11   C     C_R   0.485934 0.138912 0.561766 -0.264759
C12   C     C_R   0.510715 0.860887 0.437042 -0.266775
C13   C     C_R   0.489263 0.031010 0.552626 0.175002
C14   C     C_R   0.505932 0.968635 0.445569 0.174427
C15   C     C_R   0.418157 0.398812 0.015741 -0.317590
C16   C     C_R   0.586580 0.595646 0.983647 -0.316888
C17   C     C_R   0.422944 0.408816 0.137964 0.365066
C18   C     C_R   0.577790 0.590385 0.861968 0.368011
C19   C     C_R   0.537800 0.541616 0.158836 -0.007227
C20   C     C_R   0.464485 0.455712 0.840879 -0.010219
C21   C     C_R   0.532259 0.533632 0.035864 0.025749
C22   C     C_R   0.471226 0.462309 0.963691 0.025135
C23   C     C_R   0.328600 0.500696 0.499743 0.808063
C24   C     C_R   0.671366 0.501093 0.500668 0.808358
C25   C     C_R   0.808964 0.527594 0.407070 -0.230360
C26   C     C_R   0.191138 0.483044 0.597015 -0.231967
C27   C     C_R   0.768256 0.504097 0.502385 -0.072857
C28   C     C_R   0.231797 0.503426 0.500172 -0.069372
C29   C     C_R   0.819981 0.484303 0.599722 -0.266475
C30   C     C_R   0.180302 0.528465 0.405327 -0.259287
C31   C     C_R   0.913210 0.486101 0.602731 0.086618
C32   C     C_R   0.087322 0.531540 0.404614 0.085962
C33   C     C_R   0.953805 0.508674 0.504619 0.030097
C34   C     C_R   0.046739 0.508831 0.502763 0.028208
C35   C     C_R   0.901259 0.530450 0.407709 0.092882
C36   C     C_R   0.099141 0.485567 0.599053 0.091572
C37   C     C_R   0.966893 0.465103 0.700183 0.085975
C38   C     C_R   0.033605 0.555937 0.308847 0.092323
Cu1   Cu    Cu3+1 0.506660 0.507730 0.615930 0.927012
Cu2   Cu    Cu3+1 0.493340 0.492270 0.384070 0.927683
H1    H     H_    0.768731 0.544247 0.332305 0.147171
H2    H     H_    0.231143 0.464165 0.670783 0.148062
H3    H     H_    0.371945 0.341415 0.960974 0.141100
H4    H     H_    0.635791 0.649459 0.038030 0.142926
H5    H     H_    0.786344 0.466375 0.671978 0.168538
H6    H     H_    0.213919 0.546915 0.333518 0.166739
H7    H     H_    0.100835 0.448164 0.770192 0.137680
H8    H     H_    0.899573 0.572982 0.239382 0.142218
H9    H     H_    0.524293 0.813297 0.355019 0.148841
H10   H     H_    0.473509 0.186635 0.644218 0.146822
H11   H     H_    0.466402 0.841460 0.712814 0.158252
H12   H     H_    0.523204 0.157715 0.283028 0.155511
H13   H     H_    0.529764 0.967867 0.266023 0.134629
H14   H     H_    0.462221 0.031393 0.731001 0.134224
H15   H     H_    0.417150 0.399947 0.786042 0.121522
H16   H     H_    0.585474 0.596975 0.213638 0.121179
N1    N     N_R   0.516670 0.519360 0.790130 -0.196259
N2    N     N_R   0.483330 0.480640 0.209870 -0.196142
O1    O     O_R   0.504720 0.354460 0.582000 -0.584356
O2    O     O_R   0.495280 0.645540 0.418000 -0.586701
O3    O     O_R   0.493480 0.341410 0.386200 -0.610919
O4    O     O_R   0.506520 0.658590 0.613800 -0.591686
O5    O     O_R   0.375880 0.506510 0.597910 -0.586259
O6    O     O_R   0.624120 0.493490 0.402090 -0.583488
O7    O     O_R   0.364640 0.493450 0.402110 -0.590755
O8    O     O_R   0.635360 0.506550 0.597890 -0.610891
C39   C     C_3   0.928247 0.442260 0.808755 -0.401105
C40   C     C_3   0.898955 0.542815 0.883542 -0.341488
C41   C     C_3   0.841612 0.517921 0.977131 -0.888801
H17   H     H_    0.778533 0.475541 0.936415 0.261443
H18   H     H_    0.877798 0.468861 0.031928 0.256638
H19   H     H_    0.825077 0.591896 0.033231 0.235950
H20   H     H_    0.958939 0.591145 0.925550 0.215143
H21   H     H_    0.860358 0.590308 0.829302 0.218120
H22   H     H_    0.872278 0.382639 0.784309 0.197050
H23   H     H_    0.978391 0.406681 0.862659 0.187890
C42   C     C_3   0.071434 0.581947 0.201240 -0.420776
C43   C     C_3   0.111955 0.694279 0.223365 -0.339419
C44   C     C_3   0.155522 0.717027 0.117255 -0.846704
H24   H     H_    0.210394 0.663431 0.097428 0.255392
H25   H     H_    0.105687 0.706926 0.040557 0.249248
H26   H     H_    0.183524 0.798972 0.135056 0.244723
H27   H     H_    0.058648 0.750224 0.243076 0.222086
H28   H     H_    0.162764 0.707453 0.299065 0.222377
H29   H     H_    0.120625 0.524290 0.170392 0.192835
H30   H     H_    0.018292 0.574304 0.128521 0.203241
C45   C     C_3   0.639739 0.666303 0.818967 -0.370227
C46   C     C_3   0.622109 0.780372 0.868393 -0.881095
H31   H     H_    0.549596 0.792461 0.864210 0.256302
H32   H     H_    0.650120 0.802292 0.960341 0.241539
H33   H     H_    0.654282 0.833166 0.817802 0.249169
H34   H     H_    0.709557 0.651212 0.846418 0.174794
H35   H     H_    0.636537 0.658478 0.725021 0.255974
C47   C     C_3   0.358285 0.336148 0.181360 -0.362921
C48   C     C_3   0.261709 0.359286 0.149016 -0.891615
H36   H     H_    0.253929 0.444969 0.165082 0.254633
H37   H     H_    0.241779 0.327368 0.055903 0.241500
H38   H     H_    0.216567 0.322698 0.202015 0.250480
H39   H     H_    0.369971 0.253802 0.141998 0.167707
H40   H     H_    0.365485 0.339291 0.274727 0.256530

loop_
_geom_bond_atom_site_label_1
_geom_bond_atom_site_label_2
_ccdc_geom_bond_type
C19   H16   S    
C45   C46   S    
C8    C13   A    
Cu2   O2    S    
C27   C29   A    
C48   H36   S    
C24   C27   S    
C6    C9    A    
C12   H9    S    
C48   H38   S    
C42   C43   S    
C16   C21   A    
C47   H39   S    
C19   C21   A    
C1    O1    A    
C2    O2    A    
C40   H21   S    
Cu1   N1    S    
C45   H35   S    
C7    C9    A    
C41   H18   S    
C43   H27   S    
C15   C22   A    
C40   C41   S    
C31   C33   A    
C32   C38   A    
C16   H4    S    
C24   O8    A    
C17   N2    A    
C23   O5    A    
C4    C35   A    
C42   H29   S    
C24   O6    A    
C21   C22   A    
C41   H17   S    
C9    H12   S    
C20   H15   S    
C10   H11   S    
C7    C14   A    
C19   N2    A    
Cu2   N2    S    
C39   C40   S    
C5    C12   A    
C8    H14   S    
C6    C11   A    
C44   H25   S    
C43   C44   S    
C40   H20   S    
Cu2   O3    S    
C1    C6    S    
C29   H5    S    
C32   C34   A    
C41   H19   S    
C43   H28   S    
C18   N1    A    
C46   H33   S    
C47   H40   S    
Cu1   O1    S    
C33   C34   A    
C16   C18   A    
C23   C28   S    
C25   C35   A    
C26   C36   A    
C20   C22   A    
C42   H30   S    
Cu2   O7    S    
Cu1   O8    S    
C2    C5    S    
C39   H22   S    
C7    H13   S    
C25   H1    S    
Cu1   Cu2   S    
C45   H34   S    
C26   H2    S    
C4    H8    S    
C15   C17   A    
Cu1   O4    S    
C30   H6    S    
C46   H32   S    
C1    O3    A    
C44   H26   S    
C48   H37   S    
C39   H23   S    
C38   C42   S    
C25   C27   A    
Cu1   O5    S    
C26   C28   A    
C18   C45   S    
Cu2   O6    S    
C23   O7    A    
C28   C30   A    
C12   C14   A    
C15   H3    S    
C5    C10   A    
C29   C31   A    
C11   H10   S    
C30   C32   A    
C11   C13   A    
C3    C36   A    
C37   C39   S    
C3    H7    S    
C33   C35   A    
C34   C36   A    
C47   C48   S    
C44   H24   S    
C31   C37   A    
C46   H31   S    
C3    C37   A    
C8    C10   A    
C4    C38   A    
C17   C47   S    
C20   N1    A    
C13   C14   A    
C2    O4    A    
