data_mof_unit_43170.cif
_audit_creation_date              2013-03-05T15:52:18-0500
_audit_creation_method            fapswitch 2.2
_symmetry_space_group_name_H-M    P1
_symmetry_Int_Tables_number       1
_space_group_crystal_system       triclinic
_cell_length_a                    21.460702
_cell_length_b                    7.254186
_cell_length_c                    14.77801
_cell_angle_alpha                 89.874486
_cell_angle_beta                  74.204063
_cell_angle_gamma                 89.988337
_cell_volume                      2213.75561747

loop_
_atom_site_label
_atom_site_type_symbol
_atom_site_description
_atom_site_fract_x
_atom_site_fract_y
_atom_site_fract_z
_atom_type_partial_charge
O1    O     O_R   0.464160 0.506670 0.130070 -0.603275
O2    O     O_R   0.535840 0.006670 0.869930 -0.559787
O3    O     O_R   0.589710 0.179080 0.006710 -0.597467
O4    O     O_R   0.410290 0.679080 0.993290 -0.598437
C1    C     C_R   0.616399 0.344903 0.001166 0.981745
C2    C     C_R   0.383863 0.844671 0.996818 0.944811
O5    O     O_R   0.467940 0.177220 0.138010 -0.570461
O6    O     O_R   0.532060 0.677220 0.861990 -0.568638
O7    O     O_R   0.413200 0.002810 0.002170 -0.512778
O8    O     O_R   0.586800 0.502810 0.997830 -0.556623
C3    C     C_R   0.456176 0.345448 0.174421 0.934325
C4    C     C_R   0.543911 0.845799 0.825741 0.953515
O9    O     O_3   0.482180 0.337850 0.955280 -0.241542
O10   O     O_3   0.517820 0.837850 0.044720 -0.294083
V1    V     V_3+5 0.503310 0.064600 0.008300 1.281953
V2    V     V_3+5 0.496690 0.564600 0.991700 1.268997
C5    C     C_R   0.572375 0.855734 0.724365 -0.101082
C6    C     C_R   0.428137 0.353017 0.276160 -0.089127
C7    C     C_R   0.929303 0.863864 0.276465 -0.179452
C8    C     C_R   0.071434 0.365709 0.723672 -0.168149
C9    C     C_R   0.560878 0.893486 0.567698 -0.156689
C10   C     C_R   0.439835 0.335627 0.433727 -0.147755
C11   C     C_R   0.533004 0.878407 0.664111 -0.170060
C12   C     C_R   0.467369 0.332564 0.336847 -0.194584
C13   C     C_R   0.639682 0.848849 0.688617 -0.115490
C14   C     C_R   0.361226 0.374644 0.312231 -0.128697
C15   C     C_R   0.669497 0.865001 0.590950 0.087951
C16   C     C_R   0.331471 0.365848 0.410147 0.083306
C17   C     C_R   0.628470 0.887020 0.530767 0.170785
C18   C     C_R   0.372447 0.351693 0.470770 0.157888
C19   C     C_R   0.738258 0.859988 0.551227 0.054303
C20   C     C_R   0.262717 0.367204 0.449566 0.062105
C21   C     C_R   0.764675 0.874762 0.451618 0.089724
C22   C     C_R   0.236270 0.367817 0.549395 0.086311
C23   C     C_R   0.721410 0.896757 0.395151 -0.139609
C24   C     C_R   0.279474 0.360500 0.606592 -0.088918
C25   C     C_R   0.654954 0.902908 0.434142 -0.221536
C26   C     C_R   0.345975 0.350880 0.567837 -0.220377
C27   C     C_R   0.781418 0.840898 0.607737 -0.127119
C28   C     C_R   0.219638 0.359692 0.392489 -0.182694
C29   C     C_R   0.847892 0.833450 0.568802 -0.085731
C30   C     C_R   0.153129 0.350782 0.431116 -0.102361
C31   C     C_R   0.874917 0.844572 0.471612 -0.002099
C32   C     C_R   0.126032 0.353246 0.528469 0.002437
C33   C     C_R   0.833421 0.866295 0.411740 0.051565
C34   C     C_R   0.167464 0.368019 0.588779 0.056084
C35   C     C_R   0.942906 0.834138 0.432825 0.578230
C36   C     C_R   0.058091 0.340201 0.567020 0.571475
C37   C     C_R   0.969391 0.842542 0.335649 -0.241937
C38   C     C_R   0.031530 0.344364 0.664237 -0.233502
C39   C     C_R   0.862465 0.877640 0.313797 -0.175129
C40   C     C_R   0.138313 0.380967 0.686614 -0.100159
H1    H     H_    0.623877 0.920082 0.387847 0.138915
H2    H     H_    0.377016 0.340858 0.614568 0.156353
H3    H     H_    0.834848 0.896599 0.263840 0.165400
H4    H     H_    0.165969 0.404452 0.736391 0.139133
H5    H     H_    0.021386 0.833207 0.306155 0.146281
H6    H     H_    0.979566 0.332902 0.693556 0.155931
H7    H     H_    0.877972 0.817905 0.616398 0.189705
H8    H     H_    0.123088 0.341259 0.383185 0.184839
H9    H     H_    0.529542 0.910985 0.521841 0.124726
H10   H     H_    0.471165 0.322290 0.479850 0.125861
H11   H     H_    0.480826 0.885069 0.691800 0.123419
H12   H     H_    0.519255 0.315831 0.309176 0.110115
H13   H     H_    0.666936 0.831762 0.739343 0.163935
H14   H     H_    0.333977 0.396837 0.261788 0.148228
H15   H     H_    0.736889 0.910127 0.319867 0.164133
H16   H     H_    0.263577 0.354674 0.682177 0.170829
H17   H     H_    0.765644 0.831281 0.683200 0.174770
H18   H     H_    0.235736 0.353579 0.316928 0.170417
C41   C     C_3   0.214107 0.660672 0.987841 -0.295436
C42   C     C_3   0.772648 0.234306 0.077469 -0.256312
H19   H     H_    0.188462 0.577584 0.050331 0.180984
H20   H     H_    0.789586 0.091088 0.059988 0.220895
H21   H     H_    0.204695 0.591453 0.925925 0.214947
H22   H     H_    0.780532 0.264959 0.147103 0.194554
C43   C     C_3   0.287629 0.658307 0.979251 -0.419885
C44   C     C_3   0.699485 0.244135 0.082692 -0.535038
H23   H     H_    0.314336 0.608088 0.908179 0.233804
H24   H     H_    0.672516 0.309139 0.150104 0.196652
H25   H     H_    0.296806 0.557947 0.030984 0.254551
H26   H     H_    0.680554 0.101123 0.083505 0.212509
H27   H     H_    0.164151 0.862766 0.153222 0.155774
H28   H     H_    0.831389 0.158733 0.887106 0.186072
H29   H     H_    0.268416 0.797986 0.144716 0.068700
H30   H     H_    0.723733 0.116130 0.910021 0.126741
C45   C     C_3   0.196472 0.937948 0.092644 -0.559457
C46   C     C_3   0.806036 0.293395 0.903963 -0.555385
C47   C     C_3   0.228644 0.984758 0.917544 0.156787
C48   C     C_3   0.781414 0.563051 0.015053 0.183117
C49   C     C_3   0.187229 0.861715 0.998985 -0.146510
C50   C     C_3   0.812504 0.365554 0.000063 -0.146623
H31   H     H_    0.211649 0.129402 0.933286 0.131153
H32   H     H_    0.810095 0.651543 0.956744 0.131367
C51   C     C_3   0.312565 0.853829 0.996775 -0.260539
C52   C     C_3   0.688043 0.355413 0.998097 -0.198721
C53   C     C_3   0.268139 0.914469 0.095360 0.344234
C54   C     C_3   0.732990 0.267342 0.906219 0.311654
C55   C     C_3   0.301995 0.976384 0.914343 0.244845
C56   C     C_3   0.710200 0.558865 0.008939 0.223741
H33   H     H_    0.329781 0.911801 0.847270 0.111924
H34   H     H_    0.677630 0.616997 0.074509 0.124582
H35   H     H_    0.181219 0.084806 0.100857 0.217785
H36   H     H_    0.831751 0.390927 0.848321 0.214329
O11   O     O_R   0.913210 0.208550 0.002110 -0.583187
O12   O     O_R   0.086790 0.708550 0.997890 -0.602113
O13   O     O_R   0.032060 0.539960 0.861980 -0.585650
O14   O     O_R   0.967940 0.039960 0.138020 -0.591998
C57   C     C_R   0.043738 0.372848 0.825425 0.956399
C58   C     C_R   0.956682 0.872367 0.174627 0.997788
O15   O     O_R   0.910290 0.538020 0.993280 -0.569397
O16   O     O_R   0.089710 0.038020 0.006720 -0.601668
O17   O     O_R   0.964160 0.712340 0.130090 -0.567358
O18   O     O_R   0.035840 0.212340 0.869910 -0.564230
C59   C     C_R   0.883798 0.370438 0.999343 0.917622
C60   C     C_R   0.115911 0.869586 0.001415 0.950938
O19   O     O_3   0.017820 0.379210 0.044690 -0.299793
O20   O     O_3   0.982180 0.879210 0.955310 -0.268316
V3    V     V_3+5 0.996690 0.652500 0.991710 1.236753
V4    V     V_3+5 0.003310 0.152500 0.008290 1.215677
Cl1   Cl    Cl    0.997241 0.810417 0.502837 -0.613532
Cl2   Cl    Cl    0.004012 0.315346 0.496722 -0.610853
N1    N     N_R   0.218554 0.935540 0.826112 0.227382
O21   O     O_R   0.187826 0.048470 0.785021 -0.419723
O22   O     O_R   0.241355 0.782798 0.783809 -0.435596
N2    N     N_R   0.785357 0.646144 0.104107 0.221948
O23   O     O_R   0.823644 0.785604 0.102569 -0.451581
O24   O     O_R   0.748721 0.589404 0.184699 -0.456880
Cl3   Cl    Cl    0.334863 0.204787 0.907131 -0.648975
Cl4   Cl    Cl    0.701862 0.711869 0.916802 -0.684534
N3    N     N_R   0.292104 0.076526 0.134674 0.246959
O25   O     O_R   0.319135 0.054286 0.202762 -0.445088
O26   O     O_R   0.280056 0.242766 0.111088 -0.419859
N4    N     N_R   0.717947 0.333257 0.820059 0.254575
O27   O     O_R   0.665326 0.276693 0.801203 -0.400864
O28   O     O_R   0.759329 0.428874 0.756480 -0.367793

loop_
_geom_bond_atom_site_label_1
_geom_bond_atom_site_label_2
_geom_bond_distance
_ccdc_geom_bond_type
H27   C45   1.113527 S    
C3    C6    1.460622 S    
N2    O23   1.299684 A    
C45   C49   1.553623 S    
O12   V3    2.002281 S    
C15   C17   1.420347 A    
C21   C33   1.433339 A    
O14   V4    2.029595 S    
O1    C3    1.327523 A    
O16   C60   1.338428 A    
C42   H22   1.110333 S    
O2    C4    1.326645 A    
C2    O7    1.321531 A    
N1    O21   1.300128 A    
C27   C29   1.386481 A    
C24   H16   1.076199 S    
O5    C3    1.330916 A    
C5    C11   1.393810 A    
C28   H18   1.076300 S    
C47   C55   1.563111 S    
C6    C12   1.394857 A    
C23   C25   1.385907 A    
C36   Cl2   1.765223 S    
C42   C50   1.552244 S    
C51   C55   1.572091 S    
N1    O22   1.301630 A    
C33   C39   1.413720 A    
C34   C40   1.413759 A    
C37   H5    1.083976 S    
C49   C60   1.522205 S    
C18   C26   1.391679 A    
O15   V3    2.026180 S    
O13   V3    2.032846 S    
C44   H26   1.113075 S    
O20   V3    1.782731 S    
C8    C38   1.392472 A    
O17   V3    2.020960 S    
C46   C50   1.555879 S    
C44   C52   1.561219 S    
C52   C54   1.572462 S    
C4    C5    1.457411 S    
C42   C44   1.552531 S    
C19   C21   1.429936 A    
O11   V4    2.002040 S    
C22   C34   1.432228 A    
C23   H15   1.075106 S    
C47   C49   1.564736 S    
C9    H9    1.084115 S    
H29   C53   1.116110 S    
C25   H1    1.084608 S    
C11   H11   1.083650 S    
C12   H12   1.083576 S    
C29   C31   1.397061 A    
C30   C32   1.397479 A    
C48   C56   1.555648 S    
C46   H36   1.109884 S    
C32   C34   1.424204 A    
C48   H32   1.114648 S    
C43   H23   1.112749 S    
C27   H17   1.075760 S    
C55   Cl3   1.792461 S    
C15   C19   1.432475 A    
C14   H14   1.077200 S    
C16   C20   1.431318 A    
C13   H13   1.075945 S    
C29   H7    1.082127 S    
C42   H20   1.108215 S    
O19   V4    1.785021 S    
C30   H8    1.082110 S    
C41   H19   1.113556 S    
N4    O28   1.302204 A    
O5    V1    2.032832 S    
C47   N1    1.470206 S    
C39   H3    1.073752 S    
O3    C1    1.325167 A    
C9    C17   1.404743 A    
C43   C51   1.562867 S    
O12   C60   1.332754 A    
C38   H6    1.084033 S    
O4    V2    2.025840 S    
C10   H10   1.084070 S    
C7    C37   1.392136 A    
C48   C50   1.570777 S    
C26   H2    1.084517 S    
C43   H25   1.110299 S    
O6    C4    1.330499 A    
C6    C14   1.397963 A    
C56   H34   1.112770 S    
C48   N2    1.471923 S    
C44   H24   1.112577 S    
O1    V2    2.016054 S    
O2    V1    2.017864 S    
C31   C33   1.424447 A    
C58   O17   1.323755 A    
C53   N3    1.466279 S    
C57   O18   1.323892 A    
C45   H35   1.111584 S    
O4    C2    1.323333 A    
C55   H33   1.112519 S    
C9    C11   1.391112 A    
C10   C12   1.392465 A    
C13   C15   1.415221 A    
N3    O25   1.300780 A    
C41   C43   1.548203 S    
C1    C52   1.527726 S    
O3    V1    2.026105 S    
O16   V4    2.025912 S    
C7    C58   1.460180 S    
N2    O24   1.301627 A    
C10   C18   1.404963 A    
O11   C59   1.338934 A    
H28   C46   1.113287 S    
C28   C30   1.386937 A    
N3    O26   1.299891 A    
C51   C53   1.572083 S    
N4    O27   1.301275 A    
C35   C37   1.394389 A    
C54   N4    1.474829 S    
C14   C16   1.414998 A    
C5    C13   1.397385 A    
C16   C18   1.419476 A    
O7    V1    2.011146 S    
C1    O8    1.317037 A    
C8    C40   1.394274 A    
C32   C36   1.416693 A    
O8    V2    2.010878 S    
C24   C26   1.387370 A    
C41   H21   1.110338 S    
O13   C57   1.324107 A    
C52   C56   1.572514 S    
C36   C38   1.394348 A    
C21   C23   1.416010 A    
C22   C24   1.415418 A    
O14   C58   1.324827 A    
C56   Cl4   1.801074 S    
C20   C28   1.412052 A    
C47   H31   1.114830 S    
H30   C54   1.113371 S    
C50   C59   1.527593 S    
C46   C54   1.570319 S    
C35   Cl1   1.765144 S    
C8    C57   1.459732 S    
C7    C39   1.393266 A    
C41   C49   1.560697 S    
O6    V2    2.029580 S    
C2    C51   1.531699 S    
O9    V2    1.785393 S    
C17   C25   1.390238 A    
C19   C27   1.412458 A    
O10   V1    1.783100 S    
O15   C59   1.334610 A    
C31   C35   1.417056 A    
O18   V4    2.019096 S    
C40   H4    1.077361 S    
C20   C22   1.429245 A    
C45   C53   1.558736 S    
