data_mof_unit_56510.cif
_audit_creation_date              2012-12-10T19:44:41-0500
_audit_creation_method            fapswitch 2.2
_symmetry_space_group_name_H-M    P1
_symmetry_Int_Tables_number       1
_space_group_crystal_system       triclinic
_cell_length_a                    8.553718
_cell_length_b                    14.857016
_cell_length_c                    14.169081
_cell_angle_alpha                 90.47224
_cell_angle_beta                  98.826138
_cell_angle_gamma                 90.415863
_cell_volume                      1779.19644023

loop_
_atom_site_label
_atom_site_type_symbol
_atom_type_description
_atom_site_fract_x
_atom_site_fract_y
_atom_site_fract_z
_atom_type_partial_charge
C1    C     C_R   0.500194 0.327571 0.499650 0.866927
C2    C     C_R   0.376204 0.459030 0.882812 -0.287289
C3    C     C_R   0.499321 0.500279 0.053326 0.139061
C4    C     C_R   0.499440 0.500223 0.946563 0.139661
C5    C     C_R   0.200961 0.500785 0.474983 0.976258
C6    C     C_R   0.799062 0.501202 0.525029 0.959589
C7    C     C_2   0.035747 0.502600 0.461492 -0.402987
C8    C     C_2   0.964353 0.503324 0.538520 -0.391871
C9    C     C_R   0.463007 0.086751 0.561060 -0.256839
C10   C     C_R   0.507962 0.913652 0.426524 -0.266700
C11   C     C_R   0.428230 0.177412 0.553455 -0.000579
C12   C     C_R   0.500960 0.672907 0.500436 0.864485
C13   C     C_R   0.470722 0.822688 0.422055 -0.007367
C14   C     C_R   0.518032 0.231615 0.500852 -0.096615
C15   C     C_R   0.519784 0.769876 0.503263 -0.105352
C16   C     C_R   0.636360 0.195124 0.454377 -0.258430
C17   C     C_R   0.598446 0.809273 0.587886 -0.249451
C18   C     C_R   0.669136 0.103564 0.459730 0.123315
C19   C     C_R   0.628445 0.901385 0.594159 0.114325
C20   C     C_R   0.582043 0.049916 0.515433 0.078835
C21   C     C_R   0.585187 0.952957 0.511184 0.079576
C22   C     C_R   0.289024 0.211470 0.593279 0.137283
C23   C     C_R   0.428604 0.429581 0.098044 -0.283456
C24   C     C_R   0.276566 0.198628 0.689995 -0.154464
C25   C     C_R   0.141711 0.227113 0.726148 -0.171922
C26   C     C_R   0.017607 0.267356 0.665873 -0.121997
C27   C     C_R   0.028610 0.279688 0.569503 -0.132051
C28   C     C_R   0.163892 0.252365 0.533267 -0.155118
C29   C     C_R   0.371637 0.786632 0.334498 0.147899
C30   C     C_R   0.421488 0.795699 0.245052 -0.178160
C31   C     C_R   0.329350 0.760213 0.162911 -0.140707
C32   C     C_R   0.186694 0.715929 0.169361 -0.105173
C33   C     C_R   0.135132 0.707720 0.257856 -0.128248
C34   C     C_R   0.623075 0.541161 0.906532 -0.283924
C35   C     C_R   0.226605 0.743315 0.340119 -0.115000
C36   C     C_3   0.788794 0.065474 0.401142 -0.431032
C37   C     C_3   0.937149 0.029517 0.463566 -0.353884
C38   C     C_3   0.066051 0.005959 0.404200 -0.872845
C39   C     C_3   0.694567 0.942333 0.691100 -0.434848
C40   C     C_3   0.860316 0.982973 0.693707 -0.339944
C41   C     C_3   0.931489 0.012501 0.794671 -0.890572
C42   C     C_R   0.429677 0.430967 0.197392 0.014889
C43   C     C_R   0.620693 0.540595 0.807063 0.009331
C44   C     C_R   0.570086 0.569116 0.211632 0.041517
C45   C     C_R   0.379189 0.459348 0.783864 0.023427
C46   C     C_R   0.570336 0.570858 0.112447 -0.289979
H1    H     H_    0.973384 0.502256 0.388523 0.177906
H2    H     H_    0.716164 0.572459 0.777435 0.120392
H3    H     H_    0.625513 0.623606 0.255995 0.126118
H4    H     H_    0.284042 0.427214 0.735978 0.141873
H5    H     H_    0.624027 0.627971 0.082561 0.126297
H6    H     H_    0.276517 0.427705 0.908627 0.132170
H7    H     H_    0.371206 0.166690 0.737244 0.123254
H8    H     H_    0.132990 0.217461 0.800789 0.131436
H9    H     H_    0.912715 0.288696 0.693703 0.140576
H10   H     H_    0.931873 0.309964 0.522681 0.132999
H11   H     H_    0.169669 0.261338 0.458095 0.112046
H12   H     H_    0.026733 0.503663 0.611487 0.178626
H13   H     H_    0.532646 0.828969 0.239212 0.119890
H14   H     H_    0.369105 0.766504 0.094314 0.127961
H15   H     H_    0.115998 0.688117 0.105762 0.119191
H16   H     H_    0.024357 0.673693 0.262755 0.119377
H17   H     H_    0.185130 0.736609 0.408237 0.105439
H18   H     H_    0.021593 0.955041 0.348478 0.263545
H19   H     H_    0.105542 0.067190 0.369725 0.259427
H20   H     H_    0.169373 0.977570 0.451282 0.254945
H21   H     H_    0.985062 0.080944 0.517903 0.238253
H22   H     H_    0.906427 0.967629 0.500091 0.223914
H23   H     H_    0.389645 0.043132 0.597466 0.143164
H24   H     H_    0.733022 0.011186 0.352860 0.196922
H25   H     H_    0.825990 0.118544 0.354073 0.201349
H26   H     H_    0.856517 0.064676 0.821533 0.260771
H27   H     H_    0.941952 0.954074 0.843582 0.257525
H28   H     H_    0.051434 0.041328 0.794032 0.249636
H29   H     H_    0.939526 0.932495 0.667793 0.218797
H30   H     H_    0.853595 0.043103 0.647592 0.232396
H31   H     H_    0.613250 0.994518 0.711155 0.199031
H32   H     H_    0.700736 0.890074 0.747307 0.198853
H33   H     H_    0.465493 0.955740 0.365837 0.147424
H34   H     H_    0.703269 0.238611 0.413865 0.145159
H35   H     H_    0.635347 0.767958 0.649911 0.156798
H36   H     H_    0.374617 0.372606 0.057116 0.130994
H37   H     H_    0.722656 0.572431 0.951507 0.129411
H38   H     H_    0.374610 0.376355 0.230573 0.124099
N1    N     N_R   0.500000 0.499980 0.252470 -0.090472
N2    N     N_R   0.500000 0.500020 0.747530 -0.092164
O1    O     O_R   0.500010 0.369070 0.579480 -0.606043
O2    O     O_R   0.499990 0.630930 0.420520 -0.613292
O3    O     O_R   0.500010 0.369060 0.420520 -0.634415
O4    O     O_R   0.499990 0.630940 0.579480 -0.624312
O5    O     O_R   0.271750 0.500000 0.560890 -0.616611
O6    O     O_R   0.728250 0.500000 0.439110 -0.617526
O7    O     O_R   0.271750 0.499990 0.401930 -0.622934
O8    O     O_R   0.728250 0.500010 0.598070 -0.635541
Zn1   Zn    Zn3+2 0.500000 0.500010 0.606140 0.937683
Zn2   Zn    Zn3+2 0.500000 0.499990 0.393860 0.938090

loop_
_geom_bond_atom_site_label_1
_geom_bond_atom_site_label_2
_ccdc_geom_bond_type
C44   H3    S    
C1    O1    A    
O2    Zn2   S    
C23   H36   S    
C3    C23   A    
C26   H9    S    
C7    C8    D    
C28   H11   S    
C26   C27   A    
C29   C30   A    
C23   C42   A    
C39   H31   S    
C22   C24   A    
C13   C29   S    
C36   C37   S    
C19   C21   A    
C9    H23   S    
C32   H15   S    
C30   C31   A    
C33   C35   A    
C11   C14   A    
C19   C39   S    
C37   H22   S    
O6    Zn2   S    
C8    H12   S    
C41   H28   S    
C38   H20   S    
C36   H24   S    
C33   H16   S    
C6    O8    A    
O1    Zn1   S    
C12   C15   S    
C43   H2    S    
C18   C20   A    
C36   H25   S    
C2    C45   A    
C22   C28   A    
C44   C46   A    
C38   H18   S    
C10   C21   A    
C4    C34   A    
C12   O2    A    
C39   H32   S    
O4    Zn1   S    
C42   H38   S    
C25   H8    S    
C39   C40   S    
C5    C7    S    
C27   H10   S    
C17   C19   A    
C6    C8    S    
C24   H7    S    
C41   H27   S    
C46   H5    S    
C40   H30   S    
C16   H34   S    
C7    H1    S    
C31   H14   S    
C2    C4    A    
C37   C38   S    
C9    C20   A    
C31   C32   A    
C38   H19   S    
C30   H13   S    
C42   N1    A    
C24   C25   A    
C9    C11   A    
C5    O5    A    
C2    H6    S    
C41   H26   S    
C40   C41   S    
O7    Zn2   S    
C13   C15   A    
C14   C16   A    
C34   H37   S    
C3    C4    S    
C12   O4    A    
C15   C17   A    
C1    O3    A    
C3    C46   A    
C43   N2    A    
C34   C43   A    
C10   C13   A    
C5    O7    A    
C10   H33   S    
C29   C35   A    
C11   C22   S    
C40   H29   S    
C32   C33   A    
O3    Zn2   S    
C45   N2    A    
C25   C26   A    
C45   H4    S    
C6    O6    A    
C37   H21   S    
N1    Zn2   S    
C17   H35   S    
O8    Zn1   S    
N2    Zn1   S    
O5    Zn1   S    
C20   C21   S    
C16   C18   A    
C27   C28   A    
C35   H17   S    
C1    C14   S    
C18   C36   S    
C44   N1    A    
