data_mof_unit_63263.cif
_audit_creation_date              2012-12-10T20:00:58-0500
_audit_creation_method            fapswitch 2.2
_symmetry_space_group_name_H-M    P1
_symmetry_Int_Tables_number       1
_space_group_crystal_system       triclinic
_cell_length_a                    15.041258
_cell_length_b                    14.260759
_cell_length_c                    17.590272
_cell_angle_alpha                 90.000057
_cell_angle_beta                  92.226686
_cell_angle_gamma                 90.000103
_cell_volume                      3770.2600745

loop_
_atom_site_label
_atom_site_type_symbol
_atom_type_description
_atom_site_fract_x
_atom_site_fract_y
_atom_site_fract_z
_atom_type_partial_charge
Br1   Br    Br    0.372432 0.265551 0.373533 -0.520160
Br2   Br    Br    0.631600 0.734032 0.623250 -0.520588
Br3   Br    Br    0.627572 0.265552 0.626464 -0.520156
Br4   Br    Br    0.368403 0.734032 0.376747 -0.520589
C1    C     C_R   0.328512 0.499937 0.508168 0.910740
C2    C     C_R   0.443724 0.894268 0.449947 -0.290002
C3    C     C_R   0.448277 0.203892 0.447690 0.344084
C4    C     C_R   0.554732 0.796023 0.550047 0.344428
C5    C     C_R   0.551723 0.203893 0.552309 0.344088
C6    C     C_R   0.445268 0.796023 0.449953 0.344425
C7    C     C_R   0.500000 0.053356 0.500000 0.084672
C8    C     C_R   0.500000 0.946555 0.500000 0.085301
C9    C     C_R   0.500489 0.500004 0.353599 0.893181
C10   C     C_R   0.499513 0.500004 0.646401 0.893183
C11   C     C_R   0.499243 0.585180 0.847568 -0.153918
C12   C     C_R   0.671486 0.499937 0.491827 0.910752
C13   C     C_R   0.504740 0.414855 0.152583 -0.153090
C14   C     C_R   0.500799 0.585180 0.152434 -0.153921
C15   C     C_R   0.495301 0.414855 0.847419 -0.153086
C16   C     C_R   0.499226 0.585331 0.768805 -0.165510
C17   C     C_R   0.504744 0.414734 0.231347 -0.164470
C18   C     C_R   0.500797 0.585331 0.231196 -0.165517
C19   C     C_R   0.495278 0.414734 0.768654 -0.164463
C20   C     C_R   0.498005 0.500020 0.728945 -0.045534
C21   C     C_R   0.502008 0.500020 0.271056 -0.045528
C22   C     C_R   0.497689 0.500001 0.886267 0.151928
C23   C     C_R   0.233351 0.499543 0.524444 -0.091747
C24   C     C_R   0.502362 0.500001 0.113734 0.151929
C25   C     C_1   0.499263 0.499961 0.966270 -0.049805
C26   C     C_1   0.500796 0.499961 0.033733 -0.049805
C27   C     C_R   0.093890 0.583259 0.525927 -0.156898
C28   C     C_R   0.905611 0.414857 0.475389 -0.156555
C29   C     C_R   0.906102 0.583259 0.474005 -0.156903
C30   C     C_R   0.094380 0.414857 0.524539 -0.156550
C31   C     C_R   0.186133 0.584673 0.533495 0.152251
C32   C     C_R   0.813439 0.413868 0.467807 0.151415
C33   C     C_R   0.813857 0.584674 0.466465 0.152240
C34   C     C_R   0.766642 0.499543 0.475531 -0.091751
C35   C     C_R   0.186550 0.413868 0.532151 0.151426
C36   C     C_3   0.230351 0.676773 0.554486 -0.816706
C37   C     C_3   0.768926 0.321316 0.448572 -0.814844
C38   C     C_3   0.769632 0.676776 0.445493 -0.816704
C39   C     C_3   0.231056 0.321318 0.551403 -0.814846
C40   C     C_R   0.047979 0.499053 0.511551 0.052628
C41   C     C_R   0.952016 0.499053 0.488370 0.052628
C42   C     C_R   0.448398 0.105642 0.446453 -0.289545
C43   C     C_R   0.556276 0.894268 0.550053 -0.290002
C44   C     C_R   0.551602 0.105642 0.553547 -0.289545
H1    H     H_    0.500796 0.651131 0.878226 0.145208
H2    H     H_    0.939455 0.348683 0.470859 0.138996
H3    H     H_    0.940593 0.648961 0.468275 0.139761
H4    H     H_    0.060535 0.348681 0.529056 0.138998
H5    H     H_    0.407438 0.072571 0.402686 0.176526
H6    H     H_    0.602398 0.927315 0.589941 0.176279
H7    H     H_    0.592563 0.072572 0.597314 0.176526
H8    H     H_    0.397603 0.927315 0.410059 0.176279
H9    H     H_    0.258526 0.709335 0.503730 0.287020
H10   H     H_    0.182322 0.727602 0.577531 0.222030
H11   H     H_    0.283023 0.665799 0.599627 0.237459
H12   H     H_    0.506273 0.348895 0.122041 0.145043
H13   H     H_    0.740229 0.290597 0.499874 0.287152
H14   H     H_    0.716680 0.331100 0.402885 0.237843
H15   H     H_    0.816830 0.269376 0.426909 0.221243
H16   H     H_    0.741472 0.709330 0.496259 0.287020
H17   H     H_    0.817653 0.727610 0.422443 0.222027
H18   H     H_    0.716948 0.665808 0.400361 0.237465
H19   H     H_    0.259769 0.290591 0.500111 0.287153
H20   H     H_    0.283289 0.331106 0.597101 0.237838
H21   H     H_    0.183144 0.269382 0.573061 0.221246
H22   H     H_    0.499252 0.651131 0.121775 0.145208
H23   H     H_    0.493772 0.348895 0.877961 0.145043
H24   H     H_    0.500414 0.651968 0.739393 0.191924
H25   H     H_    0.506770 0.348132 0.260886 0.190496
H26   H     H_    0.499603 0.651968 0.260608 0.191922
H27   H     H_    0.493245 0.348132 0.739115 0.190496
H28   H     H_    0.059397 0.648962 0.531649 0.139763
N1    N     N_R   0.500000 0.252470 0.500000 -0.137630
N2    N     N_R   0.500000 0.747530 0.500000 -0.137113
O1    O     O_R   0.369060 0.579480 0.500010 -0.587778
O2    O     O_R   0.630940 0.420520 0.499990 -0.589860
O3    O     O_R   0.630940 0.579480 0.499990 -0.587780
O4    O     O_R   0.369060 0.420520 0.500010 -0.589859
O5    O     O_R   0.500000 0.579510 0.389120 -0.595887
O6    O     O_R   0.500000 0.420490 0.610880 -0.594601
O7    O     O_R   0.500000 0.579510 0.610880 -0.595885
O8    O     O_R   0.500000 0.420490 0.389120 -0.594603
Zn1   Zn    Zn3+2 0.500000 0.606140 0.500000 1.012641
Zn2   Zn    Zn3+2 0.500000 0.393860 0.500000 1.011830

loop_
_geom_bond_atom_site_label_1
_geom_bond_atom_site_label_2
_ccdc_geom_bond_type
N2    Zn1   S    
C14   H22   S    
C44   H7    S    
O5    Zn1   S    
C29   C41   A    
C28   C41   A    
C15   H23   S    
C37   H13   S    
O1    Zn1   S    
C7    C44   A    
C25   C26   T    
C28   C32   A    
C2    C8    A    
O8    Zn2   S    
C17   H25   S    
C10   C20   S    
C33   C38   S    
C15   C22   A    
C1    C23   S    
C16   C20   A    
N1    Zn2   S    
C23   C35   A    
C39   H20   S    
C18   C21   A    
C9    O8    A    
C38   H17   S    
C19   C20   A    
C10   O6    A    
C1    O1    A    
C3    N1    A    
C39   H21   S    
C36   H11   S    
Br1   C3    S    
C4    N2    A    
C9    C21   S    
C32   C37   S    
C37   H14   S    
C8    C43   A    
O7    Zn1   S    
C6    N2    A    
C11   C16   A    
C36   H10   S    
C27   C40   A    
C30   C35   A    
C3    C42   A    
C14   C24   A    
C19   H27   S    
C11   C22   A    
C35   C39   S    
C23   C31   A    
C29   C33   A    
C12   O2    A    
C15   C19   A    
C33   C34   A    
Br3   C5    S    
C30   C40   A    
C5    N1    A    
C28   H2    S    
O3    Zn1   S    
C22   C25   S    
C43   H6    S    
C27   C31   A    
C18   H26   S    
Br4   C6    S    
C38   H16   S    
C40   C41   S    
C17   C21   A    
C36   H9    S    
C14   C18   A    
C13   C24   A    
Br2   C4    S    
O6    Zn2   S    
C10   O7    A    
C2    H8    S    
C2    C6    A    
C7    C8    S    
C29   H3    S    
C9    O5    A    
C30   H4    S    
C24   C26   S    
C31   C36   S    
C4    C43   A    
O2    Zn2   S    
C1    O4    A    
C27   H28   S    
O4    Zn2   S    
C42   H5    S    
C32   C34   A    
C12   O3    A    
C11   H1    S    
C13   C17   A    
C13   H12   S    
C5    C44   A    
C39   H19   S    
C38   H18   S    
C37   H15   S    
C16   H24   S    
C7    C42   A    
C12   C34   S    
