data_mof_unit_40437.cif
_audit_creation_date              2012-12-10T17:23:13-0500
_audit_creation_method            fapswitch 2.2
_symmetry_space_group_name_H-M    P1
_symmetry_Int_Tables_number       1
_space_group_crystal_system       triclinic
_cell_length_a                    15.850997
_cell_length_b                    10.834682
_cell_length_c                    9.571647
_cell_angle_alpha                 90.122044
_cell_angle_beta                  90.451948
_cell_angle_gamma                 92.670613
_cell_volume                      1641.99797139

loop_
_atom_site_label
_atom_site_type_symbol
_atom_type_description
_atom_site_fract_x
_atom_site_fract_y
_atom_site_fract_z
_atom_type_partial_charge
C1    C     C_R   0.505316 0.262479 0.500650 0.791729
C2    C     C_3   0.083332 0.504282 0.494227 0.067545
C3    C     C_3   0.977329 0.598210 0.582599 -0.242848
C4    C     C_3   0.917031 0.508393 0.500598 0.065552
C5    C     C_3   0.031401 0.613398 0.449879 0.462307
C6    C     C_3   0.970432 0.525029 0.369119 0.395666
C7    C     C_1   0.174872 0.502186 0.495507 -0.032007
C8    C     C_1   0.825397 0.507438 0.502601 -0.033425
C9    C     C_R   0.547213 0.115878 0.756713 -0.167401
C10   C     C_R   0.536182 0.055916 0.884206 -0.254440
C11   C     C_R   0.489650 0.944324 0.889856 -0.182066
C12   C     C_R   0.339919 0.499363 0.499361 0.814921
C13   C     C_R   0.460624 0.886373 0.766925 0.472570
C14   C     C_R   0.485046 0.937386 0.634451 -0.035880
C15   C     C_R   0.514250 0.062103 0.631569 0.048862
C16   C     C_R   0.509053 0.127656 0.503591 -0.093033
C17   C     C_R   0.495403 0.062539 0.378352 -0.214851
C18   C     C_R   0.486956 0.935089 0.379036 -0.222478
C19   C     C_R   0.483491 0.870736 0.505725 -0.113591
C20   C     C_R   0.611698 0.665900 0.145869 -0.163300
C21   C     C_R   0.666035 0.746997 0.074204 -0.221332
C22   C     C_R   0.666306 0.746398 0.930321 -0.213002
C23   C     C_R   0.492452 0.736874 0.501089 0.789901
C24   C     C_R   0.612042 0.664988 0.857242 -0.126667
C25   C     C_R   0.554945 0.581382 0.925921 0.229644
C26   C     C_R   0.554843 0.581567 0.075675 0.200298
C27   C     C_R   0.447872 0.422373 0.073095 -0.080795
C28   C     C_R   0.447890 0.422416 0.925025 -0.069183
C29   C     C_R   0.660100 0.501433 0.500594 0.799416
C30   C     C_3   0.968431 0.397034 0.544279 -0.190459
C31   C     C_3   0.023348 0.414190 0.410824 -0.333308
C32   C     C_1   0.250332 0.500571 0.497444 -0.215361
C33   C     C_1   0.749808 0.504858 0.502085 -0.190802
C34   C     C_3   0.029800 0.486844 0.626758 -0.192799
Cu1   Cu    Cu3+1 0.499990 0.499990 0.640660 0.947514
Cu2   Cu    Cu3+1 0.500010 0.500010 0.359340 0.922945
H1    H     H_    0.043151 0.339235 0.340800 0.144462
H2    H     H_    0.475202 0.902939 0.990281 0.153073
H3    H     H_    0.483045 0.886956 0.279686 0.167581
H4    H     H_    0.405205 0.358781 0.127809 0.137905
H5    H     H_    0.617602 0.673539 0.256000 0.205020
H6    H     H_    0.708639 0.810338 0.131083 0.158763
H7    H     H_    0.708993 0.809415 0.874578 0.152245
H8    H     H_    0.617795 0.672098 0.747244 0.192373
H9    H     H_    0.405229 0.358859 0.868827 0.142060
H10   H     H_    0.941116 0.307887 0.584280 0.150363
H11   H     H_    0.958036 0.673964 0.651972 0.151268
H12   H     H_    0.055522 0.470418 0.732977 0.143876
H13   H     H_    0.492570 0.109869 0.278944 0.159567
H14   H     H_    0.583921 0.202442 0.757371 0.172258
H15   H     H_    0.560665 0.098682 0.979451 0.157897
N1    N     N_R   0.500800 0.501210 0.147910 -0.195475
N2    N     N_R   0.500830 0.501290 0.852040 -0.187000
O1    O     O_R   0.499990 0.319640 0.618810 -0.590200
O2    O     O_R   0.500000 0.319660 0.381240 -0.581951
O3    O     O_R   0.379070 0.499980 0.618770 -0.559781
O4    O     O_R   0.379080 0.500000 0.381190 -0.576200
O5    O     O_R   0.500000 0.680340 0.618760 -0.555742
O6    O     O_R   0.500010 0.680360 0.381190 -0.608500
O7    O     O_R   0.620920 0.500000 0.618810 -0.602901
O8    O     O_R   0.620930 0.500020 0.381230 -0.592804
O9    O     O_3   0.405587 0.784197 0.781667 -0.571343
C35   C     C_3   0.325908 0.805107 0.720157 0.101860
H16   H     H_    0.318801 0.901330 0.681464 0.073123
H17   H     H_    0.316163 0.742162 0.629323 0.148292
C36   C     C_3   0.256028 0.778243 0.826708 -0.375744
H18   H     H_    0.265328 0.842654 0.916576 0.201676
H19   H     H_    0.193905 0.795122 0.777369 0.178543
C37   C     C_3   0.254879 0.645286 0.879746 -0.730372
H20   H     H_    0.244521 0.579388 0.791713 0.246619
H21   H     H_    0.202625 0.630396 0.955355 0.201455
H22   H     H_    0.315277 0.626647 0.933586 0.278172
O10   O     O_3   0.936915 0.553507 0.236558 -0.608751
C38   C     C_3   0.899476 0.446074 0.173792 0.067660
H23   H     H_    0.863971 0.386596 0.250315 0.109465
H24   H     H_    0.949182 0.390875 0.125838 0.130717
C39   C     C_3   0.836351 0.482480 0.061047 -0.316348
H25   H     H_    0.803457 0.397520 0.018475 0.162768
H26   H     H_    0.788086 0.540480 0.108490 0.233447
C40   C     C_3   0.879305 0.552952 0.941123 -0.776833
H27   H     H_    0.910439 0.640638 0.979556 0.266269
H28   H     H_    0.831385 0.575300 0.860909 0.233771
H29   H     H_    0.927112 0.495580 0.891772 0.232565
O11   O     O_3   0.065738 0.729804 0.407242 -0.596919
C41   C     C_3   0.100825 0.721372 0.272425 0.100844
H30   H     H_    0.049736 0.726479 0.192775 0.152640
H31   H     H_    0.134009 0.634143 0.255551 0.125380
C42   C     C_3   0.163737 0.830491 0.248720 -0.356920
H32   H     H_    0.131992 0.918505 0.266127 0.219067
H33   H     H_    0.185346 0.828841 0.138677 0.166142
C43   C     C_3   0.240557 0.825663 0.345516 -0.785803
H34   H     H_    0.273988 0.739184 0.328029 0.241780
H35   H     H_    0.220674 0.830439 0.456238 0.260383
H36   H     H_    0.284995 0.905514 0.324078 0.228395

loop_
_geom_bond_atom_site_label_1
_geom_bond_atom_site_label_2
_ccdc_geom_bond_type
C23   O5    A    
C36   H19   S    
C35   H17   S    
Cu1   N2    S    
O10   C38   S    
Cu1   Cu2   S    
C4    C8    S    
Cu2   O6    S    
C20   H5    S    
C39   H25   S    
C23   O6    A    
C38   H24   S    
Cu1   O5    S    
C25   N2    A    
C30   C31   S    
C41   C42   S    
C36   C37   S    
C15   C16   A    
C29   C33   S    
C18   C19   A    
C37   H21   S    
C13   O9    S    
C2    C7    S    
C16   C17   A    
C38   C39   S    
C42   C43   S    
C9    C10   A    
Cu2   N1    S    
C42   H32   S    
C2    C34   S    
C39   H26   S    
C6    C31   S    
C35   C36   S    
C21   C22   A    
C12   C32   S    
Cu1   O1    S    
C40   H29   S    
C10   H15   S    
C41   H31   S    
C29   O8    A    
C28   H9    S    
C38   H23   S    
C30   C34   S    
C24   C25   A    
C40   H28   S    
Cu2   O4    S    
C17   H13   S    
C43   H34   S    
C5    O11   S    
C3    C34   S    
C25   C26   A    
C41   H30   S    
C31   H1    S    
Cu1   O7    S    
C11   H2    S    
C19   C23   S    
C18   H3    S    
O9    C35   S    
C26   N1    A    
C43   H35   S    
C22   H7    S    
C29   O7    A    
C27   H4    S    
C17   C18   A    
C1    C16   S    
O11   C41   S    
C12   O3    A    
C1    O1    A    
C12   O4    A    
C4    C6    S    
C42   H33   S    
C24   H8    S    
C22   C24   A    
C2    C5    S    
C34   H12   S    
Cu2   O8    S    
C37   H22   S    
C27   N1    A    
C6    O10   S    
C39   C40   S    
C7    C32   T    
Cu1   O3    S    
C14   C19   A    
C30   H10   S    
C9    H14   S    
C40   H27   S    
C3    C5    S    
C28   N2    A    
C1    O2    A    
Cu2   O2    S    
C43   H36   S    
C11   C13   A    
C5    C6    S    
C20   C26   A    
C3    H11   S    
C36   H18   S    
C8    C33   T    
C9    C15   A    
C37   H20   S    
C10   C11   A    
C35   H16   S    
C20   C21   A    
C27   C28   A    
C14   C15   A    
C2    C31   S    
C13   C14   A    
C21   H6    S    
C4    C30   S    
C3    C4    S    
