data_mof_unit_13912.cif
_audit_creation_date              2012-12-11T14:08:33-0500
_audit_creation_method            fapswitch 2.2
_symmetry_space_group_name_H-M    P1
_symmetry_Int_Tables_number       1
_space_group_crystal_system       triclinic
_cell_length_a                    28.172588
_cell_length_b                    7.197569
_cell_length_c                    17.183585
_cell_angle_alpha                 90.023441
_cell_angle_beta                  102.096524
_cell_angle_gamma                 89.956062
_cell_volume                      3407.0181714

loop_
_atom_site_label
_atom_site_type_symbol
_atom_type_description
_atom_site_fract_x
_atom_site_fract_y
_atom_site_fract_z
_atom_type_partial_charge
O1    O     O_R   0.000700 0.436510 0.857920 -0.539521
O2    O     O_R   0.999300 0.563490 0.142080 -0.539643
O3    O     O_R   0.999300 0.936510 0.642080 -0.538424
O4    O     O_R   0.000700 0.063490 0.357920 -0.538406
O5    O     O_R   0.930080 0.766380 0.721890 -0.545623
O6    O     O_R   0.069920 0.233620 0.278110 -0.545886
O7    O     O_R   0.069920 0.266380 0.778110 -0.549095
O8    O     O_R   0.930080 0.733620 0.221890 -0.549306
C1    C     C_R   0.910791 0.597751 0.709211 0.793244
C2    C     C_R   0.089159 0.402253 0.291205 0.793365
C3    C     C_R   0.089207 0.097615 0.792185 0.781840
C4    C     C_R   0.910841 0.902254 0.207381 0.782068
O9    O     O_R   0.996180 0.766230 0.862310 -0.539741
O10   O     O_R   0.003820 0.233770 0.137690 -0.539600
O11   O     O_R   0.003820 0.266230 0.637690 -0.539292
O12   O     O_R   0.996180 0.733770 0.362310 -0.538986
O13   O     O_R   0.065870 0.936460 0.783500 -0.511489
O14   O     O_R   0.934130 0.063540 0.216500 -0.511141
O15   O     O_R   0.934130 0.436460 0.716500 -0.523497
O16   O     O_R   0.065870 0.563540 0.283500 -0.523716
C5    C     C_R   0.998494 0.596471 0.894485 0.766408
C6    C     C_R   0.001502 0.403528 0.105514 0.767023
C7    C     C_R   0.001515 0.096436 0.605529 0.761516
C8    C     C_R   0.998491 0.903563 0.394473 0.762095
O17   O     O_3   0.022790 0.603020 0.723980 -0.379677
O18   O     O_3   0.977210 0.396980 0.276020 -0.379421
O19   O     O_3   0.977210 0.103020 0.776020 -0.383267
O20   O     O_3   0.022790 0.896980 0.223980 -0.383615
V1    V     V_3+5 0.995770 0.877900 0.754830 1.475216
V2    V     V_3+5 0.004230 0.122100 0.245170 1.475135
V3    V     V_3+5 0.004230 0.377900 0.745170 1.466842
V4    V     V_3+5 0.995770 0.622100 0.254830 1.466978
C9    C     C_2   0.001710 0.082615 0.519571 -0.319372
C10   C     C_2   0.998304 0.917382 0.480433 -0.319245
C11   C     C_2   0.998306 0.582645 0.980454 -0.322930
C12   C     C_2   0.001684 0.417353 0.019543 -0.322785
H1    H     H_    0.004501 0.211374 0.487890 0.159831
H2    H     H_    0.995515 0.788623 0.512115 0.159679
H3    H     H_    0.995544 0.711429 0.012185 0.155342
H4    H     H_    0.004445 0.288569 0.987811 0.155441
C13   C     C_R   0.682519 0.884126 0.021665 0.678307
C14   C     C_R   0.318396 0.118670 0.969574 0.678243
C15   C     C_R   0.321068 0.303465 0.435717 0.687980
C16   C     C_R   0.678423 0.701168 0.570164 0.706483
O21   O     O_2   0.710869 0.820030 0.973293 -0.483290
O22   O     O_2   0.290467 0.192169 0.016642 -0.490059
O23   O     O_2   0.295546 0.158394 0.454867 -0.505392
O24   O     O_2   0.703994 0.844832 0.549914 -0.505928
N1    N     N_R   0.703637 0.935189 0.097855 -0.523340
N2    N     N_R   0.296788 0.056386 0.895290 -0.518707
N3    N     N_R   0.296879 0.443329 0.389860 -0.519664
N4    N     N_R   0.702669 0.560915 0.615693 -0.517032
C17   C     C_R   0.676263 0.998803 0.149228 0.618209
C18   C     C_R   0.323639 0.980217 0.845670 0.614437
C19   C     C_R   0.321408 0.591805 0.368052 0.616080
C20   C     C_R   0.678093 0.413741 0.638495 0.604272
C21   C     C_R   0.776668 0.791574 0.180469 0.344944
C22   C     C_R   0.223548 0.201143 0.813735 0.342795
C23   C     C_R   0.223252 0.356189 0.291093 0.386879
C24   C     C_R   0.777123 0.646623 0.712819 0.388642
C25   C     C_R   0.827409 0.785456 0.206840 -0.388224
C26   C     C_R   0.172669 0.210447 0.789423 -0.391580
C27   C     C_R   0.172295 0.345066 0.267989 -0.381004
C28   C     C_R   0.828169 0.656574 0.734660 -0.384647
C29   C     C_R   0.836677 0.044693 0.120375 0.240025
C30   C     C_R   0.163757 0.953940 0.877460 0.242890
C31   C     C_R   0.163601 0.487957 0.392453 0.239576
C32   C     C_R   0.835438 0.512056 0.609799 0.241304
C33   C     C_R   0.785466 0.054045 0.094952 0.335498
C34   C     C_R   0.215034 0.941221 0.900671 0.327873
C35   C     C_R   0.214972 0.502195 0.415690 0.311204
C36   C     C_R   0.783984 0.499184 0.587809 0.309807
C37   C     C_R   0.755741 0.925715 0.124243 0.230119
C38   C     C_R   0.244655 0.066701 0.869643 0.236781
C39   C     C_R   0.244590 0.434788 0.365041 0.243390
C40   C     C_R   0.755041 0.567930 0.639279 0.241415
C41   C     C_R   0.602821 0.963205 0.046554 -0.114244
C42   C     C_R   0.397620 0.027313 0.946170 -0.107078
C43   C     C_R   0.397638 0.468887 0.444934 -0.119220
C44   C     C_R   0.601692 0.538213 0.562910 -0.112150
C45   C     C_R   0.631556 0.897605 0.993971 -0.153672
C46   C     C_R   0.369377 0.106069 0.996833 -0.146964
C47   C     C_R   0.372152 0.311249 0.463298 -0.159021
C48   C     C_R   0.627224 0.695119 0.543955 -0.151513
C49   C     C_R   0.608663 0.848569 0.915570 0.482229
C50   C     C_R   0.392798 0.169134 0.072945 0.482025
C51   C     C_R   0.398263 0.166795 0.508614 0.478043
C52   C     C_R   0.601049 0.840638 0.499478 0.481137
C53   C     C_R   0.625629 0.013526 0.124741 -0.017403
C54   C     C_R   0.374282 0.963251 0.870248 -0.013581
C55   C     C_R   0.371884 0.608938 0.396188 0.001350
C56   C     C_R   0.627491 0.397971 0.611471 -0.014127
C57   C     C_R   0.857495 0.911900 0.178055 -0.155814
C58   C     C_R   0.142676 0.086910 0.820067 -0.154641
C59   C     C_R   0.142535 0.412184 0.317634 -0.145896
C60   C     C_R   0.857286 0.588127 0.684173 -0.144526
C61   C     C_R   0.476933 0.934761 0.918890 0.082211
C62   C     C_R   0.523357 0.050481 0.074513 0.081988
C63   C     C_R   0.525613 0.360904 0.552554 0.071403
C64   C     C_R   0.473603 0.647501 0.456340 0.074480
C65   C     C_R   0.472235 0.073504 0.048155 -0.029418
C66   C     C_R   0.528543 0.926148 0.942916 -0.029212
C67   C     C_R   0.524555 0.666337 0.487303 -0.036102
C68   C     C_R   0.474667 0.341952 0.521535 -0.035919
C69   C     C_R   0.449091 0.011579 0.971244 0.070085
C70   C     C_R   0.551393 0.979573 0.021234 0.068350
C71   C     C_R   0.550462 0.521550 0.533893 0.068855
C72   C     C_R   0.448788 0.486411 0.474659 0.069109
C73   C     C_R   0.451879 0.866259 0.844361 -0.180453
C74   C     C_R   0.547594 0.094266 0.153105 -0.177468
C75   C     C_R   0.552664 0.226288 0.603549 -0.175924
C76   C     C_R   0.446551 0.782431 0.405520 -0.172748
C77   C     C_R   0.401754 0.880846 0.820713 -0.147498
C78   C     C_R   0.597584 0.077573 0.177208 -0.140753
C79   C     C_R   0.602374 0.244743 0.632176 -0.077942
C80   C     C_R   0.396917 0.763311 0.376350 -0.068442
O25   O     O_2   0.301287 0.919410 0.772884 -0.532534
O26   O     O_2   0.698119 0.049654 0.223763 -0.527216
O27   O     O_2   0.702621 0.281913 0.686599 -0.509921
O28   O     O_2   0.296951 0.723515 0.319780 -0.517277
C81   C     C_R   0.558303 0.867992 0.890661 -0.271561
C82   C     C_R   0.443367 0.158355 0.096190 -0.261850
C83   C     C_R   0.448702 0.180736 0.534414 -0.275010
C84   C     C_R   0.550523 0.827611 0.474526 -0.274998
H5    H     H_    0.156418 0.313081 0.745762 0.160623
H6    H     H_    0.843473 0.682809 0.250635 0.160892
H7    H     H_    0.845336 0.716399 0.791475 0.149094
H8    H     H_    0.155703 0.285536 0.210821 0.148816
H9    H     H_    0.384490 0.825204 0.763207 0.149857
H10   H     H_    0.614246 0.115407 0.237729 0.147523
H11   H     H_    0.621196 0.136307 0.670341 0.179317
H12   H     H_    0.378093 0.871935 0.338320 0.146036
H13   H     H_    0.469772 0.796236 0.803120 0.116073
H14   H     H_    0.529009 0.139142 0.198530 0.112817
H15   H     H_    0.536563 0.104818 0.623781 0.117082
H16   H     H_    0.462604 0.904563 0.385746 0.108779
H17   H     H_    0.543818 0.841009 0.828610 0.132980
H18   H     H_    0.458941 0.222536 0.152282 0.136617
H19   H     H_    0.466555 0.059167 0.563085 0.140700
H20   H     H_    0.532586 0.949823 0.446638 0.140450
O29   O     O_3   0.867177 0.159630 0.088762 -0.639150
H21   H     H_    0.848047 0.235231 0.045132 0.325445
O30   O     O_3   0.133465 0.842129 0.910971 -0.639505
H22   H     H_    0.152855 0.766946 0.954491 0.325396
O31   O     O_3   0.133146 0.542037 0.441867 -0.648290
H23   H     H_    0.152581 0.573319 0.495163 0.321424
O32   O     O_3   0.865224 0.456453 0.559539 -0.647994
H24   H     H_    0.845287 0.424517 0.506699 0.322061
O33   O     O_3   0.764272 0.181906 0.038087 -0.540337
C85   C     C_3   0.755822 0.347321 0.077021 -0.190819
H25   H     H_    0.790277 0.407817 0.111245 0.139470
H26   H     H_    0.729900 0.324583 0.116803 0.162451
H27   H     H_    0.739271 0.450614 0.031456 0.198674
O34   O     O_3   0.236501 0.813183 0.957218 -0.544794
C86   C     C_3   0.242867 0.645463 0.918215 -0.180767
H28   H     H_    0.268027 0.663580 0.876853 0.166735
H29   H     H_    0.207596 0.587899 0.885692 0.134499
H30   H     H_    0.259363 0.541860 0.963612 0.214330
O35   O     O_3   0.236623 0.568142 0.490317 -0.557476
C87   C     C_3   0.239204 0.763539 0.486974 -0.157353
H31   H     H_    0.202741 0.827959 0.467275 0.135778
H32   H     H_    0.263516 0.808448 0.447472 0.210707
H33   H     H_    0.254793 0.816535 0.547549 0.186606
O36   O     O_3   0.761607 0.433253 0.513554 -0.558306
C88   C     C_3   0.758535 0.238051 0.517276 -0.154726
H34   H     H_    0.734214 0.194948 0.557066 0.213333
H35   H     H_    0.794848 0.172287 0.536869 0.136787
H36   H     H_    0.742672 0.184800 0.456848 0.184290
O37   O     O_3   0.635743 0.797608 0.860377 -0.518280
C89   C     C_3   0.629486 0.605785 0.844473 -0.098499
H37   H     H_    0.591930 0.574224 0.811889 0.090918
H38   H     H_    0.638792 0.521904 0.900079 0.126741
H39   H     H_    0.654495 0.563068 0.805698 0.198683
O38   O     O_3   0.366957 0.255906 0.122920 -0.524383
C90   C     C_3   0.365105 0.136932 0.187521 -0.102455
H40   H     H_    0.401749 0.112825 0.225351 0.074971
H41   H     H_    0.347562 0.002141 0.166653 0.158837
H42   H     H_    0.342890 0.204334 0.225690 0.203235
O39   O     O_3   0.375400 0.002492 0.521003 -0.535480
C91   C     C_3   0.373284 0.989088 0.602067 -0.151345
H43   H     H_    0.355583 0.113292 0.622333 0.160966
H44   H     H_    0.409965 0.967646 0.640104 0.101894
H45   H     H_    0.350967 0.866265 0.609800 0.173120
O40   O     O_3   0.624002 0.005098 0.487514 -0.533400
C92   C     C_3   0.624648 0.023123 0.406031 -0.161359
H46   H     H_    0.587651 0.049235 0.369919 0.100891
H47   H     H_    0.641119 0.899082 0.383229 0.157589
H48   H     H_    0.647348 0.144991 0.398541 0.172249
O41   O     O_3   0.253483 0.321589 0.783991 -0.625947
H49   H     H_    0.233197 0.407941 0.745948 0.302658
O42   O     O_3   0.746666 0.668436 0.208613 -0.626581
H50   H     H_    0.766826 0.583033 0.247277 0.301021
O43   O     O_3   0.747958 0.713437 0.761866 -0.599444
H51   H     H_    0.768831 0.763990 0.811017 0.328702
O44   O     O_3   0.253031 0.290832 0.242819 -0.617623
H52   H     H_    0.232645 0.239798 0.193322 0.320402

loop_
_geom_bond_atom_site_label_1
_geom_bond_atom_site_label_2
_ccdc_geom_bond_type
O17   V3    S    
C35   C39   A    
N1    C17   A    
C22   C26   A    
C88   H34   S    
C62   C74   A    
C83   H19   S    
O19   V1    S    
O13   V1    S    
O37   C89   S    
O3    C7    A    
C11   C12   D    
C14   C46   A    
C76   C80   A    
C52   C84   A    
O15   V3    S    
C41   C70   A    
O40   C92   S    
C34   C38   A    
O4    V2    S    
C90   H41   S    
C68   C83   A    
C79   H11   S    
C42   C54   A    
O1    C5    A    
C44   C71   A    
C41   C53   A    
C32   C60   A    
C77   H9    S    
C42   C69   A    
O9    V1    S    
O36   C88   S    
N3    C39   S    
C21   O42   S    
N2    C38   S    
C11   H3    S    
O4    C8    A    
C25   C57   A    
C52   O40   S    
C31   C35   A    
C86   H29   S    
C89   H37   S    
C21   C37   A    
O30   H22   S    
C27   C59   A    
O1    V3    S    
C15   C47   A    
C55   C80   A    
O2    V4    S    
C14   O22   S    
C54   C77   A    
C81   H17   S    
O3    V1    S    
O38   C90   S    
C19   C55   A    
C1    O15   A    
O32   H24   S    
C2    O16   A    
C7    C9    S    
C85   H27   S    
O2    C6    A    
C33   C37   A    
C25   H6    S    
O14   V2    S    
C66   C81   A    
C74   C78   A    
C43   C55   A    
C61   C66   A    
C91   H45   S    
C73   C77   A    
C30   C58   A    
C61   C69   A    
C16   N4    A    
O11   C7    A    
C63   C68   A    
C63   C75   A    
C88   H35   S    
C34   O34   S    
C86   H30   S    
C31   C59   A    
C78   H10   S    
O10   V2    S    
C67   C84   A    
C13   N1    A    
C91   H44   S    
C24   O43   S    
O31   H23   S    
C90   H42   S    
O5    V1    S    
C19   O28   S    
C65   C69   A    
C64   C72   A    
O7    V3    S    
C76   H16   S    
C73   H13   S    
C44   C48   A    
O8    V4    S    
C87   H33   S    
O44   H52   S    
C12   H4    S    
C28   C60   A    
O18   V4    S    
C92   H48   S    
C30   O30   S    
C16   C48   A    
C46   C50   A    
O11   V3    S    
C24   C40   A    
C64   C67   A    
C49   O37   S    
C31   O31   S    
O42   H50   S    
C32   C36   A    
C50   O38   S    
C87   H32   S    
C44   C56   A    
O7    C3    A    
C35   O35   S    
C27   H8    S    
O5    C1    A    
C85   H26   S    
C29   O29   S    
C42   C46   A    
O35   C87   S    
C80   H12   S    
C41   C45   A    
O8    C4    A    
C28   H7    S    
C13   C45   A    
C22   O41   S    
C9    C10   D    
C36   O36   S    
O9    C5    A    
C36   C40   A    
N2    C18   A    
C49   C81   A    
C1    C60   S    
C82   H18   S    
O34   C86   S    
C32   O32   S    
C14   N2    A    
C18   C54   A    
C3    C58   S    
C17   O26   S    
O6    V2    S    
C64   C76   A    
C88   H36   S    
C26   C58   A    
C17   C53   A    
C20   O27   S    
N1    C37   S    
C4    C57   S    
C74   H14   S    
C23   C39   A    
C68   C72   A    
C63   C71   A    
C91   H43   S    
C22   C38   A    
C9    H1    S    
O16   V4    S    
C53   C78   A    
C3    O13   A    
C10   H2    S    
C84   H20   S    
C50   C82   A    
C48   C52   A    
N4    C40   S    
C47   C51   A    
O6    C2    A    
C26   H5    S    
C75   C79   A    
C21   C25   A    
C5    C11   S    
O12   V4    S    
C62   C65   A    
C6    C12   S    
C23   C27   A    
C65   C82   A    
C62   C70   A    
C24   C28   A    
C23   O44   S    
C87   H31   S    
O10   C6    A    
O20   V2    S    
C61   C73   A    
C33   O33   S    
C90   H40   S    
O33   C85   S    
C51   C83   A    
C15   N3    A    
C92   H46   S    
C30   C34   A    
C89   H38   S    
C2    C59   S    
C29   C33   A    
C29   C57   A    
C43   C72   A    
C66   C70   A    
N3    C19   A    
O41   H49   S    
C75   H15   S    
C56   C79   A    
C8    C10   S    
C92   H47   S    
C51   O39   S    
O39   C91   S    
C43   C47   A    
N4    C20   A    
C20   C56   A    
O12   C8    A    
O43   H51   S    
C18   O25   S    
C4    O14   A    
C86   H28   S    
C13   O21   S    
C85   H25   S    
C67   C71   A    
O29   H21   S    
C15   O23   S    
C45   C49   A    
C16   O24   S    
C89   H39   S    
