data_mof_unit_32857.cif
_audit_creation_date              2013-03-05T16:43:30-0500
_audit_creation_method            fapswitch 2.2
_symmetry_space_group_name_H-M    P1
_symmetry_Int_Tables_number       1
_space_group_crystal_system       triclinic
_cell_length_a                    10.570399
_cell_length_b                    10.63608
_cell_length_c                    9.881074
_cell_angle_alpha                 89.675384
_cell_angle_beta                  90.840501
_cell_angle_gamma                 90.512965
_cell_volume                      1110.72446759

loop_
_atom_site_label
_atom_site_type_symbol
_atom_site_description
_atom_site_fract_x
_atom_site_fract_y
_atom_site_fract_z
_atom_type_partial_charge
O1    O     O_R   0.500020 0.316790 0.614690 -0.637929
O2    O     O_R   0.500000 0.316760 0.385350 -0.572416
C1    C     C_R   0.489389 0.260407 0.500252 0.977273
O3    O     O_R   0.313960 0.499990 0.614650 -0.589067
O4    O     O_R   0.313940 0.499950 0.385310 -0.613994
C2    C     C_R   0.257703 0.498653 0.499103 1.024837
Zn1   Zn    Zn3+2 0.500010 0.500020 0.653130 1.054042
Zn2   Zn    Zn3+2 0.499990 0.499980 0.346870 1.080136
O5    O     O_R   0.500000 0.683240 0.614650 -0.589310
O6    O     O_R   0.499980 0.683210 0.385310 -0.586506
O7    O     O_R   0.686060 0.500050 0.614690 -0.628851
O8    O     O_R   0.686040 0.500010 0.385350 -0.614362
C3    C     C_R   0.493703 0.740163 0.499491 0.995530
C4    C     C_R   0.742087 0.499405 0.500925 1.028872
C5    C     C_3   0.041939 0.402782 0.574224 0.228478
C6    C     C_3   0.956666 0.390315 0.449276 0.240683
C7    C     C_3   0.875951 0.497200 0.502629 -0.286463
C8    C     C_3   0.960773 0.510086 0.631001 -0.295779
C9    C     C_3   0.042278 0.605260 0.550809 0.253879
C10   C     C_3   0.957264 0.592213 0.425693 0.222668
C11   C     C_3   0.038329 0.485046 0.369483 -0.296795
C12   C     C_3   0.123462 0.498259 0.497550 -0.267620
H1    H     H_    0.928419 0.520130 0.736766 0.226681
H2    H     H_    0.066938 0.475889 0.262965 0.213233
C13   C     C_R   0.471368 0.063622 0.623230 0.083399
C14   C     C_R   0.457782 0.129751 0.502279 -0.190730
C15   C     C_R   0.412747 0.066151 0.385477 0.244038
C16   C     C_R   0.417194 0.934416 0.384315 0.233046
C17   C     C_R   0.466366 0.871296 0.499854 -0.208644
C18   C     C_R   0.478287 0.936311 0.621191 0.061392
C19   C     C_3   0.572949 0.933048 0.735665 0.119834
C20   C     C_3   0.563594 0.075812 0.739076 -0.440176
H3    H     H_    0.536542 0.884866 0.827669 0.186047
H4    H     H_    0.517387 0.110629 0.831839 0.228307
H5    H     H_    0.651534 0.127537 0.711547 0.247489
C21   C     C_R   0.403008 0.444655 0.069930 0.198627
N1    N     N_R   0.499140 0.499140 0.142800 -0.105658
C22   C     C_R   0.601366 0.543684 0.073217 -0.024369
H6    H     H_    0.681944 0.582078 0.128135 0.187004
C23   C     C_R   0.601592 0.543106 0.929435 -0.058980
H7    H     H_    0.682662 0.580166 0.876563 0.188648
N2    N     N_R   0.499140 0.499180 0.857150 -0.103140
C24   C     C_R   0.402395 0.446090 0.927481 0.091252
C25   C     C_3   0.267480 0.485447 0.921270 0.463909
C26   C     C_3   0.267338 0.480471 0.074381 -0.497113
H8    H     H_    0.204138 0.415344 0.872095 0.134003
H9    H     H_    0.252524 0.573249 0.122672 0.277402
H10   H     H_    0.208170 0.402004 0.113446 0.209068
N3    N     N_R   0.910783 0.270265 0.396387 0.253260
O9    O     O_R   0.990597 0.189838 0.349201 -0.222480
O10   O     O_R   0.791147 0.241125 0.399342 -0.365932
N4    N     N_R   0.697592 0.889806 0.694587 0.241607
O11   O     O_R   0.756408 0.943333 0.594457 -0.256982
O12   O     O_R   0.752119 0.799098 0.761359 -0.338080
F1    F     F_    0.253834 0.606810 0.871964 -0.562814
N5    N     N_R   0.089005 0.295511 0.651501 0.228809
O13   O     O_R   0.037655 0.265635 0.766190 -0.341035
O14   O     O_R   0.169599 0.219623 0.597690 -0.328620
N6    N     N_R   0.087484 0.725542 0.603626 0.277230
O15   O     O_R   0.007088 0.806724 0.647970 -0.195993
O16   O     O_R   0.207417 0.753345 0.605663 -0.336482
N7    N     N_R   0.908247 0.695939 0.344183 0.247953
O17   O     O_R   0.937897 0.706238 0.217322 -0.309907
O18   O     O_R   0.830431 0.775526 0.396205 -0.285417
N8    N     N_R   0.360947 0.133614 0.271543 0.246384
O19   O     O_R   0.406664 0.118811 0.151189 -0.330622
O20   O     O_R   0.270790 0.214079 0.289127 -0.343614
N9    N     N_R   0.369298 0.866493 0.269320 0.256199
O21   O     O_R   0.268085 0.796939 0.280689 -0.319205
O22   O     O_R   0.435106 0.861241 0.159242 -0.306135

loop_
_geom_bond_atom_site_label_1
_geom_bond_atom_site_label_2
_geom_bond_distance
_ccdc_geom_bond_type
O4    Zn2   2.008425 S    
Zn1   O7    2.008425 S    
C24   C25   1.490165 S    
C19   H3    1.112947 S    
C13   C18   1.357004 A    
C6    C11   1.541864 S    
C15   N8    1.435929 S    
C5    C8    1.546702 S    
C1    C14   1.426457 S    
C9    C10   1.523906 S    
C19   C20   1.523140 S    
C4    C7    1.415249 S    
C19   N4    1.463157 S    
Zn2   O8    1.997556 S    
C26   H10   1.109397 S    
C5    N5    1.456526 S    
C10   C11   1.542918 S    
C13   C20   1.498047 S    
C23   N2    1.368676 A    
O2    C1    1.286732 A    
N4    O12   1.299954 A    
N6    O15   1.299266 A    
N9    O22   1.301396 A    
C11   C12   1.548302 S    
C6    N3    1.458678 S    
C22   C23   1.420807 A    
C25   F1    1.385114 S    
C14   C15   1.415340 A    
C17   C18   1.391016 A    
C21   N1    1.363657 A    
N4    O11   1.301864 A    
O3    Zn1   1.997555 S    
C3    C17   1.426928 S    
C23   H7    1.080462 S    
C16   N9    1.433603 S    
N1    C22   1.368849 A    
O8    C4    1.278808 A    
C7    C8    1.548570 S    
C26   H9    1.111881 S    
C10   N7    1.456775 S    
O4    C2    1.279495 A    
O7    C4    1.278326 A    
N6    O16   1.299085 A    
O3    C2    1.279645 A    
N3    O10   1.300029 A    
Zn2   N1    2.016389 S    
C11   H2    1.104422 S    
C8    H1    1.110384 S    
C2    C12   1.418806 S    
C20   H5    1.112346 S    
Zn1   O5    1.983373 S    
C21   C26   1.488453 S    
C9    C12   1.531699 S    
C22   H6    1.081396 S    
N5    O13   1.300279 A    
Zn2   O6    1.987630 S    
N8    O19   1.301121 A    
N2    C24   1.361486 A    
Zn1   N2    2.016062 S    
C15   C16   1.402465 A    
N3    O9    1.299967 A    
C8    C9    1.546011 S    
O5    C3    1.287039 A    
C18   C19   1.499613 S    
C16   C17   1.415766 A    
C21   C24   1.407461 A    
N7    O18   1.298909 A    
C25   H8    1.107234 S    
C25   C26   1.513547 S    
C9    N6    1.458312 S    
C13   C14   1.389565 A    
O1    Zn1   1.987630 S    
N8    O20   1.300760 A    
C7    C10   1.527367 S    
C5    C12   1.530551 S    
O2    Zn2   1.983373 S    
N7    O17   1.300348 A    
C5    C6    1.523615 S    
C6    C7    1.528274 S    
N5    O14   1.300158 A    
N9    O21   1.301122 A    
O1    C1    1.285942 A    
O6    C3    1.286433 A    
C20   H4    1.111783 S    
