data_mof_unit_9946.cif
_audit_creation_date              2012-12-10T19:46:24-0500
_audit_creation_method            fapswitch 2.2
_symmetry_space_group_name_H-M    P1
_symmetry_Int_Tables_number       1
_space_group_crystal_system       triclinic
_cell_length_a                    10.85006
_cell_length_b                    10.851225
_cell_length_c                    10.422544
_cell_angle_alpha                 90.684498
_cell_angle_beta                  90.349677
_cell_angle_gamma                 89.944965
_cell_volume                      1227.00234711

loop_
_atom_site_label
_atom_site_type_symbol
_atom_type_description
_atom_site_fract_x
_atom_site_fract_y
_atom_site_fract_z
_atom_type_partial_charge
C1    C     C_R   0.496937 0.261510 0.498952 0.818820
C2    C     C_R   0.503058 0.738490 0.501049 0.818843
C3    C     C_R   0.872030 0.493741 0.501662 -0.066240
C4    C     C_R   0.127972 0.506267 0.498336 -0.066236
C5    C     C_R   0.940129 0.456633 0.610563 0.008658
C6    C     C_R   0.059874 0.543371 0.389429 0.008654
C7    C     C_R   0.263205 0.208774 0.131869 -0.135151
C8    C     C_R   0.736775 0.790973 0.867971 -0.135004
C9    C     C_R   0.301175 0.160576 0.249747 0.169764
C10   C     C_R   0.698809 0.839263 0.750145 0.169807
C11   C     C_R   0.422282 0.114942 0.263971 0.081482
C12   C     C_R   0.577752 0.885052 0.736015 0.081452
C13   C     C_R   0.502647 0.116943 0.158787 -0.173711
C14   C     C_R   0.497451 0.883142 0.841255 -0.173823
C15   C     C_R   0.463675 0.165234 0.041627 -0.147021
C16   C     C_R   0.536421 0.834773 0.958370 -0.146997
C17   C     C_R   0.344215 0.211389 0.028283 -0.149728
C18   C     C_R   0.655817 0.788438 0.971606 -0.149674
C19   C     C_R   0.471046 0.931896 0.389704 -0.225384
C20   C     C_R   0.528952 0.068107 0.610302 -0.225437
C21   C     C_R   0.504523 0.872020 0.502801 -0.058045
C22   C     C_R   0.495474 0.127983 0.497202 -0.058052
C23   C     C_R   0.261542 0.504180 0.499407 0.816732
C24   C     C_R   0.738459 0.495823 0.500593 0.816760
C25   C     C_R   0.535363 0.940853 0.614401 0.032376
C26   C     C_R   0.464642 0.059150 0.385601 0.032358
C27   C     C_1   0.500018 0.500009 0.071931 0.089683
C28   C     C_1   0.499981 0.499991 0.928069 0.089684
C29   C     C_R   0.225924 0.758095 0.164632 -0.128214
C30   C     C_R   0.774030 0.241879 0.835258 -0.128204
C31   C     C_R   0.175068 0.709660 0.276289 -0.092016
C32   C     C_R   0.824899 0.290336 0.723630 -0.091999
C33   C     C_R   0.117028 0.593977 0.272620 0.123308
C34   C     C_R   0.882978 0.406006 0.727350 0.123369
C35   C     C_R   0.110236 0.527877 0.156125 -0.141730
C36   C     C_R   0.889803 0.472064 0.843870 -0.141831
C37   C     C_R   0.162820 0.575790 0.045214 -0.145139
C38   C     C_R   0.837201 0.424135 0.954754 -0.145154
C39   C     C_R   0.220391 0.690937 0.049395 -0.117324
C40   C     C_R   0.779587 0.309006 0.950521 -0.117287
C41   C     C_R   0.932485 0.535450 0.392251 -0.197636
C42   C     C_R   0.067517 0.464558 0.607746 -0.197681
Cu1   Cu    Cu3+1 0.500000 0.500000 0.625300 0.989531
Cu2   Cu    Cu3+1 0.500000 0.500000 0.374700 0.989543
H1    H     H_    0.260255 0.728286 0.963224 0.132923
H2    H     H_    0.739719 0.271642 0.036674 0.132882
H3    H     H_    0.595358 0.080729 0.167560 0.143463
H4    H     H_    0.404786 0.919482 0.832559 0.143492
H5    H     H_    0.525814 0.166306 0.960877 0.135606
H6    H     H_    0.474323 0.833768 0.039157 0.135629
H7    H     H_    0.447167 0.879341 0.304076 0.148582
H8    H     H_    0.552835 0.120662 0.695929 0.148567
H9    H     H_    0.268997 0.847965 0.167159 0.128785
H10   H     H_    0.730928 0.152012 0.832684 0.128740
H11   H     H_    0.179978 0.762416 0.365076 0.132649
H12   H     H_    0.819974 0.237603 0.634825 0.132590
H13   H     H_    0.064529 0.439296 0.151574 0.128398
H14   H     H_    0.935550 0.560623 0.848466 0.128356
H15   H     H_    0.158448 0.523922 0.955924 0.128871
H16   H     H_    0.841593 0.475977 0.044062 0.128868
H17   H     H_    0.880182 0.565823 0.309377 0.153919
H18   H     H_    0.119820 0.434183 0.690619 0.153904
H19   H     H_    0.314144 0.248611 0.937390 0.143179
H20   H     H_    0.685886 0.751151 0.062460 0.143163
H21   H     H_    0.170229 0.242954 0.119975 0.144008
H22   H     H_    0.829710 0.756658 0.879784 0.143957
N1    N     N_1   0.500010 0.499990 0.186410 -0.140809
N2    N     N_1   0.499990 0.500010 0.813590 -0.140809
O1    O     O_R   0.499990 0.319650 0.605810 -0.586866
O2    O     O_R   0.500010 0.680350 0.394190 -0.586852
O3    O     O_R   0.499990 0.319640 0.394190 -0.569281
O4    O     O_R   0.500010 0.680360 0.605810 -0.569278
O5    O     O_R   0.319640 0.500010 0.605810 -0.589389
O6    O     O_R   0.680360 0.499990 0.394190 -0.589380
O7    O     O_R   0.319650 0.500010 0.394190 -0.560948
O8    O     O_R   0.680350 0.499990 0.605810 -0.560943
I1    I     I_    0.170644 0.154926 0.400304 -0.426065
I2    I     I_    0.829285 0.844843 0.599539 -0.426022

loop_
_geom_bond_atom_site_label_1
_geom_bond_atom_site_label_2
_ccdc_geom_bond_type
Cu1   O5    S    
C30   C32   A    
C5    C42   A    
C8    H22   S    
Cu1   O4    S    
C41   H17   S    
C18   H20   S    
C10   I2    S    
C28   N2    T    
C40   H2    S    
C30   H10   S    
C1    O3    A    
C4    C42   A    
C19   C21   A    
C16   H6    S    
C36   H14   S    
C20   C25   A    
Cu2   O3    S    
C15   C17   A    
C19   C26   A    
Cu1   N2    S    
C7    C17   A    
C6    C41   A    
C31   C33   A    
Cu2   O2    S    
C42   H18   S    
C39   H1    S    
C1    C22   S    
Cu1   O1    S    
C3    C24   S    
C23   O5    A    
C2    O4    A    
C4    C6    A    
C23   O7    A    
C13   H3    S    
C4    C23   S    
C24   O8    A    
C14   H4    S    
C11   C26   S    
C8    C18   A    
C32   C34   A    
Cu2   O7    S    
Cu1   Cu2   S    
C7    H21   S    
C29   C31   A    
C5    C34   S    
C29   C39   A    
C2    C21   S    
C30   C40   A    
C9    I1    S    
Cu2   O6    S    
C9    C11   A    
C37   H15   S    
C10   C12   A    
C38   H16   S    
C8    C10   A    
C20   C22   A    
C13   C15   A    
C14   C16   A    
Cu1   O8    S    
C7    C9    A    
C21   C25   A    
C3    C41   A    
C35   C37   A    
C12   C14   A    
C3    C5    A    
C20   H8    S    
C6    C33   S    
C12   C25   S    
C35   H13   S    
C36   C38   A    
C37   C39   A    
C17   H19   S    
C38   C40   A    
C11   C13   A    
C24   O6    A    
C29   H9    S    
C33   C35   A    
C34   C36   A    
C15   H5    S    
C1    O1    A    
C27   N1    T    
C19   H7    S    
C16   C18   A    
C22   C26   A    
C27   C28   S    
Cu2   N1    S    
C31   H11   S    
C2    O2    A    
C32   H12   S    
