data_mof_unit_18584.cif
_audit_creation_date              2013-03-05T16:31:13-0500
_audit_creation_method            fapswitch 2.2
_symmetry_space_group_name_H-M    P1
_symmetry_Int_Tables_number       1
_space_group_crystal_system       triclinic
_cell_length_a                    15.020045
_cell_length_b                    14.121757
_cell_length_c                    10.437497
_cell_angle_alpha                 89.999681
_cell_angle_beta                  90.256434
_cell_angle_gamma                 89.99994
_cell_volume                      2213.86932017

loop_
_atom_site_label
_atom_site_type_symbol
_atom_site_description
_atom_site_fract_x
_atom_site_fract_y
_atom_site_fract_z
_atom_type_partial_charge
O1    O     O_R   0.369060 0.579480 0.500010 -0.611943
O2    O     O_R   0.630940 0.420520 0.499990 -0.608387
O3    O     O_R   0.630940 0.579480 0.499990 -0.611941
O4    O     O_R   0.369060 0.420520 0.500010 -0.608385
C1    C     C_R   0.327695 0.499990 0.500448 0.922509
C2    C     C_R   0.672305 0.499990 0.499552 0.922512
O5    O     O_R   0.499990 0.579480 0.316780 -0.630746
O6    O     O_R   0.500010 0.420520 0.683220 -0.622655
O7    O     O_R   0.500010 0.579480 0.683220 -0.630746
O8    O     O_R   0.499990 0.420520 0.316780 -0.622657
C3    C     C_R   0.485073 0.499954 0.259714 0.935670
C4    C     C_R   0.514927 0.499953 0.740286 0.935670
Zn1   Zn    Zn3+2 0.500000 0.606140 0.500000 1.018822
Zn2   Zn    Zn3+2 0.500000 0.393860 0.500000 1.025191
H1    H     H_    0.443848 0.173259 0.083720 0.201521
H2    H     H_    0.557059 0.825822 0.917431 0.202561
H3    H     H_    0.556147 0.173257 0.916290 0.201520
H4    H     H_    0.442948 0.825824 0.082562 0.202561
C5    C     C_R   0.438306 0.673309 0.101231 0.365018
C6    C     C_R   0.560863 0.325725 0.897660 0.362800
C7    C     C_R   0.561699 0.673307 0.898765 0.365019
C8    C     C_R   0.439134 0.325726 0.102343 0.362800
C9    C     C_R   0.468295 0.758708 0.048335 -0.304409
C10   C     C_R   0.531193 0.240400 0.951026 -0.288894
C11   C     C_R   0.531711 0.758707 0.951660 -0.304408
C12   C     C_R   0.468803 0.240401 0.048981 -0.288892
C13   C     C_R   0.525380 0.586413 0.943950 -0.093231
C14   C     C_R   0.474829 0.412784 0.056352 -0.096499
C15   C     C_R   0.474623 0.586413 0.056048 -0.093233
C16   C     C_R   0.525169 0.412783 0.943649 -0.096501
C17   C     C_R   0.534335 0.499693 0.877952 -0.053256
C18   C     C_R   0.465665 0.499694 0.122048 -0.053256
C19   C     C_R   0.093997 0.579783 0.457445 -0.165665
C20   C     C_R   0.905612 0.419466 0.457042 -0.146239
C21   C     C_R   0.906003 0.579783 0.542546 -0.165667
C22   C     C_R   0.094388 0.419466 0.542952 -0.146239
H5    H     H_    0.058846 0.641555 0.422171 0.148274
H6    H     H_    0.940485 0.357610 0.421917 0.146327
H7    H     H_    0.941154 0.641556 0.577818 0.148274
H8    H     H_    0.059514 0.357610 0.578078 0.146327
C23   C     C_R   0.185859 0.580339 0.459022 -0.106277
C24   C     C_R   0.813702 0.419353 0.457785 -0.148948
C25   C     C_R   0.814141 0.580339 0.540972 -0.106278
C26   C     C_R   0.186298 0.419353 0.542212 -0.148945
H9    H     H_    0.220629 0.642946 0.426214 0.207897
H10   H     H_    0.778510 0.357073 0.424202 0.155501
H11   H     H_    0.779372 0.642946 0.573780 0.207898
H12   H     H_    0.221490 0.357073 0.575797 0.155501
C27   C     C_R   0.232000 0.499911 0.500595 -0.020872
C28   C     C_R   0.768000 0.499911 0.499403 -0.020872
C29   C     C_R   0.048131 0.499534 0.500018 0.104973
C30   C     C_R   0.951869 0.499534 0.499974 0.104974
C31   C     C_R   0.432715 0.105287 0.562466 -0.250534
C32   C     C_R   0.536233 0.894792 0.397231 -0.250664
C33   C     C_R   0.567285 0.105288 0.437533 -0.250536
C34   C     C_R   0.463768 0.894791 0.602769 -0.250666
H13   H     H_    0.378302 0.069769 0.610079 0.138897
H14   H     H_    0.563430 0.930285 0.314313 0.133635
H15   H     H_    0.621699 0.069771 0.389921 0.138897
H16   H     H_    0.436571 0.930283 0.685688 0.133637
C35   C     C_R   0.434280 0.204659 0.561888 0.109583
C36   C     C_R   0.536258 0.795425 0.399735 0.100898
C37   C     C_R   0.565720 0.204660 0.438112 0.109581
C38   C     C_R   0.463743 0.795424 0.600265 0.100896
H17   H     H_    0.382473 0.243707 0.610464 0.113155
H18   H     H_    0.564727 0.756516 0.320633 0.121841
H19   H     H_    0.617526 0.243708 0.389536 0.113155
H20   H     H_    0.435274 0.756514 0.679367 0.121843
N1    N     N_R   0.500000 0.252470 0.500000 -0.081473
N2    N     N_R   0.500000 0.747530 0.500000 -0.082680
C39   C     C_R   0.500000 0.053430 0.500000 0.133989
C40   C     C_R   0.500000 0.946652 0.500000 0.142467
N3    N     N_R   0.366473 0.675232 0.192283 0.209918
O9    O     O_R   0.310028 0.605476 0.197633 -0.384417
O10   O     O_R   0.350408 0.751397 0.258474 -0.420521
N4    N     N_R   0.631441 0.323271 0.804565 0.216668
O11   O     O_R   0.644813 0.247609 0.736097 -0.406603
O12   O     O_R   0.688632 0.392273 0.797700 -0.365041
N5    N     N_R   0.633530 0.675229 0.807712 0.209918
O13   O     O_R   0.689973 0.605471 0.802362 -0.384420
O14   O     O_R   0.649595 0.751392 0.741517 -0.420521
N6    N     N_R   0.368555 0.323274 0.195437 0.216667
O15   O     O_R   0.355180 0.247613 0.263906 -0.406603
O16   O     O_R   0.311366 0.392279 0.202303 -0.365042

loop_
_geom_bond_atom_site_label_1
_geom_bond_atom_site_label_2
_geom_bond_distance
_ccdc_geom_bond_type
C26   C27   1.398842 A    
C33   H15   1.081726 S    
C13   C15   1.399345 A    
N3    O9    1.301037 A    
C5    C9    1.401559 A    
C20   C24   1.380548 A    
O3    C2    1.283020 A    
C6    C16   1.425343 A    
O5    C3    1.290361 A    
C36   N2    1.361739 A    
O1    C1    1.283020 A    
C8    N6    1.441652 S    
C10   C12   1.389970 A    
C15   C18   1.411805 A    
C16   C17   1.412906 A    
Zn1   N2    1.996675 S    
C6    N4    1.441652 S    
C24   H10   1.083584 S    
O7    Zn1   1.949062 S    
C22   H8    1.083290 S    
C31   C35   1.403524 A    
C37   N1    1.361331 A    
C34   C40   1.410086 A    
C33   C37   1.403523 A    
C34   C38   1.403482 A    
C38   N2    1.361736 A    
C21   C25   1.379813 A    
O3    Zn1   2.002436 S    
C7    C13   1.424107 A    
C8    C14   1.425344 A    
N3    O10   1.301496 A    
C1    C27   1.437350 S    
O2    C2    1.282780 A    
C23   C27   1.398531 A    
C37   H19   1.081732 S    
H3    C10   1.082680 S    
C36   H18   1.081471 S    
C13   C17   1.411806 A    
C29   C30   1.445871 S    
C6    C10   1.401044 A    
C14   C18   1.412906 A    
N4    O11   1.301529 A    
O8    Zn2   1.949063 S    
N5    O14   1.301496 A    
C31   H13   1.081728 S    
H1    C12   1.082681 S    
C32   C36   1.403481 A    
C19   H5    1.083298 S    
H4    C9    1.082636 S    
C21   H7    1.083297 S    
C5    N3    1.441239 S    
O6    C4    1.289215 A    
C7    N5    1.441239 S    
C32   C40   1.410083 A    
C2    C28   1.437351 S    
C22   C29   1.399724 A    
C24   C28   1.398840 A    
C3    C18   1.464881 S    
N6    O16   1.301209 A    
C4    C17   1.464881 S    
Zn2   N1    1.996675 S    
C22   C26   1.380548 A    
O1    Zn1   2.002436 S    
C31   C39   1.410193 A    
C38   H20   1.081474 S    
C32   H14   1.081795 S    
C35   N1    1.361334 A    
H2    C11   1.082637 S    
C7    C11   1.401558 A    
O6    Zn2   1.949066 S    
C20   H6    1.083290 S    
N4    O12   1.301204 A    
O4    C1    1.282781 A    
C25   C28   1.398530 A    
C19   C29   1.399656 A    
C20   C30   1.399724 A    
C19   C23   1.379812 A    
C14   C16   1.401229 A    
C39   C40   1.507890 S    
C9    C11   1.390689 A    
O4    Zn2   2.002436 S    
O2    Zn2   2.002436 S    
O7    C4    1.290361 A    
O8    C3    1.289215 A    
N5    O13   1.301034 A    
C35   H17   1.081730 S    
O5    Zn1   1.949067 S    
C34   H16   1.081792 S    
N6    O15   1.301532 A    
C8    C12   1.401041 A    
C21   C30   1.399655 A    
C23   H9    1.083175 S    
C25   H11   1.083175 S    
C33   C39   1.410195 A    
C26   H12   1.083584 S    
C5    C15   1.424107 A    
