data_mof_unit_25966.cif
_audit_creation_date              2012-12-11T17:39:37-0500
_audit_creation_method            fapswitch 2.2
_symmetry_space_group_name_H-M    P1
_symmetry_Int_Tables_number       1
_space_group_crystal_system       triclinic
_cell_length_a                    15.217887
_cell_length_b                    15.125785
_cell_length_c                    14.984306
_cell_angle_alpha                 108.624646
_cell_angle_beta                  110.410203
_cell_angle_gamma                 110.26381
_cell_volume                      2625.15303278

loop_
_atom_site_label
_atom_site_type_symbol
_atom_type_description
_atom_site_fract_x
_atom_site_fract_y
_atom_site_fract_z
_atom_type_partial_charge
C1    C     C_R   0.910393 0.911559 0.712572 -0.142997
C2    C     C_R   0.907302 0.684957 0.442560 -0.085497
C3    C     C_R   0.697548 0.790484 0.199615 -0.136036
C4    C     C_R   0.091339 0.298434 0.496346 -0.177228
C5    C     C_R   0.297177 0.994803 0.587078 -0.196019
C6    C     C_R   0.636537 0.695419 0.195832 0.120232
C7    C     C_R   0.353579 0.045924 0.547800 0.129262
C8    C     C_R   0.999178 0.676631 0.459462 0.107235
C9    C     C_R   0.994273 0.950533 0.172740 0.053244
C10   C     C_R   0.482290 0.663151 0.353289 -0.115868
C11   C     C_R   0.497525 0.767383 0.384601 -0.132838
C12   C     C_R   0.001038 0.301865 0.439242 0.123195
C13   C     C_R   0.517002 0.831419 0.488702 0.160268
C14   C     C_R   0.519804 0.789314 0.560227 -0.193087
C15   C     C_R   0.505821 0.685643 0.528972 -0.133712
C16   C     C_R   0.245833 0.220232 0.812816 -0.199900
C17   C     C_R   0.487105 0.622600 0.425543 -0.092014
C18   C     C_R   0.447934 0.951563 0.531349 -0.252755
C19   C     C_R   0.450682 0.049360 0.556122 -0.006973
C20   C     C_R   0.539794 0.142648 0.579838 -0.124366
C21   C     C_R   0.625906 0.134234 0.573691 0.545876
C22   C     C_R   0.618663 0.032594 0.541284 -0.134528
C23   C     C_R   0.270050 0.321560 0.823538 0.165124
C24   C     C_R   0.530373 0.941023 0.522447 -0.027235
C25   C     C_R   0.558964 0.308067 0.564235 -0.082346
C26   C     C_R   0.554125 0.402874 0.596664 -0.238890
C27   C     C_R   0.536262 0.438894 0.683374 -0.238431
C28   C     C_R   0.735290 0.048485 0.457987 -0.085416
C29   C     C_R   0.526568 0.382777 0.741235 0.714109
C30   C     C_R   0.531954 0.287425 0.708002 -0.377744
C31   C     C_R   0.546274 0.249081 0.618979 0.126890
C32   C     C_R   0.785538 0.108983 0.089406 -0.118081
C33   C     C_R   0.866131 0.214304 0.176849 -0.240617
C34   C     C_R   0.702285 0.022219 0.525857 0.112898
C35   C     C_R   0.838604 0.279258 0.238792 0.028490
C36   C     C_R   0.729039 0.237294 0.212638 0.635043
C37   C     C_R   0.648911 0.131496 0.124445 -0.309737
C38   C     C_R   0.677043 0.067532 0.063347 -0.145545
C39   C     C_R   0.927838 0.481524 0.345495 0.629974
C40   C     C_R   0.246238 0.312004 0.721505 -0.023904
C41   C     C_R   0.006079 0.580730 0.444722 -0.157868
C42   C     C_R   0.088911 0.586874 0.532424 -0.007284
C43   C     C_R   0.090395 0.494366 0.520648 -0.249285
C44   C     C_R   0.007004 0.394262 0.427976 -0.020962
C45   C     C_R   0.699873 0.698400 0.289414 -0.147633
C46   C     C_R   0.926233 0.386246 0.337867 -0.121597
C47   C     C_R   0.280440 0.740262 0.673380 -0.277928
C48   C     C_R   0.353807 0.842251 0.768383 -0.315250
C49   C     C_R   0.317275 0.889769 0.833220 0.721524
C50   C     C_R   0.209723 0.829983 0.807718 -0.278749
C51   C     C_R   0.135801 0.728724 0.711912 -0.208452
C52   C     C_R   0.743377 0.962237 0.556242 -0.145822
C53   C     C_R   0.169858 0.685610 0.641964 0.181346
C54   C     C_2   0.357297 0.518910 0.936080 -0.072559
C55   C     C_2   0.318720 0.420150 0.926963 -0.203918
C56   C     C_R   0.297460 0.084386 0.493781 -0.134500
C57   C     C_2   0.453724 0.617313 0.038268 -0.128181
C58   C     C_2   0.523022 0.609570 0.115883 -0.244657
C59   C     C_R   0.404297 0.175206 0.139845 -0.240653
C60   C     C_R   0.306483 0.076275 0.084782 -0.194274
C61   C     C_R   0.205918 0.071155 0.039877 0.105208
C62   C     C_R   0.204847 0.166884 0.052496 -0.215700
C63   C     C_R   0.302910 0.265746 0.107376 -0.307514
C64   C     C_R   0.909307 0.210036 0.409134 -0.113303
C65   C     C_R   0.403042 0.270130 0.149980 0.683443
C66   C     C_R   0.094784 0.946375 0.076793 -0.226280
C67   C     C_R   0.089506 0.779665 0.522433 -0.136137
C68   C     C_R   0.992979 0.903886 0.068873 0.054184
C69   C     C_R   0.897464 0.841768 0.962416 0.029612
C70   C     C_R   0.909446 0.840611 0.874329 -0.237852
C71   C     C_R   0.007658 0.917665 0.893766 0.049887
C72   C     C_R   0.103436 0.971150 0.997790 0.029896
C73   C     C_R   0.745684 0.710804 0.966780 -0.191578
C74   C     C_R   0.638646 0.665538 0.945366 -0.063693
C75   C     C_R   0.567176 0.692922 0.889460 -0.106565
C76   C     C_R   0.092099 0.999760 0.800750 -0.144582
C77   C     C_R   0.603661 0.768939 0.858039 -0.153009
C78   C     C_R   0.906005 0.939827 0.186282 -0.140428
C79   C     C_R   0.711742 0.818027 0.883175 -0.179017
C80   C     C_R   0.783821 0.789622 0.938201 0.124204
C81   C     C_R   0.003873 0.946134 0.808476 0.057612
C82   C     C_3   0.796400 0.277345 0.707788 -0.242995
C83   C     C_3   0.545191 0.396322 0.906887 -0.334685
C84   C     C_3   0.698080 0.280294 0.354548 -0.259639
C85   C     C_3   0.886702 0.493914 0.190979 -0.310280
C86   C     C_3   0.409697 0.068896 0.886384 -0.337849
C87   C     C_3   0.542540 0.372972 0.138372 -0.226715
C88   C     C_R   0.088742 0.026754 0.277025 -0.117170
H1    H     H_    0.826547 0.854902 0.683002 0.094515
H2    H     H_    0.493717 0.797957 0.327935 0.116040
H3    H     H_    0.174782 0.350962 0.520507 0.102335
H4    H     H_    0.533753 0.837252 0.640431 0.111136
H5    H     H_    0.509057 0.654043 0.584755 0.117399
H6    H     H_    0.377579 0.880444 0.512555 0.146024
H7    H     H_    0.568861 0.278761 0.494485 0.127036
H8    H     H_    0.561918 0.447318 0.553069 0.150260
H9    H     H_    0.529705 0.510790 0.705491 0.150513
H10   H     H_    0.520847 0.239672 0.747922 0.136279
H11   H     H_    0.614724 0.985708 0.995974 0.145372
H12   H     H_    0.325536 0.138021 0.463858 0.102038
H13   H     H_    0.255400 0.199863 0.877023 0.120725
H14   H     H_    0.950335 0.244826 0.197489 0.142299
H15   H     H_    0.565116 0.098374 0.104492 0.192650
H16   H     H_    0.151328 0.499890 0.590654 0.140805
H17   H     H_    0.437954 0.885686 0.789695 0.131026
H18   H     H_    0.182204 0.863888 0.859821 0.142483
H19   H     H_    0.712968 0.090621 0.416314 0.109837
H20   H     H_    0.051210 0.686117 0.689765 0.145978
H21   H     H_    0.331529 0.526535 0.863148 0.109145
H22   H     H_    0.336190 0.411242 0.998995 0.126381
H23   H     H_    0.172805 0.801746 0.547674 0.122132
H24   H     H_    0.500748 0.534355 0.117240 0.146654
H25   H     H_    0.309059 0.004229 0.079659 0.149852
H26   H     H_    0.128159 0.165349 0.022432 0.145462
H27   H     H_    0.301240 0.339231 0.117913 0.140062
H28   H     H_    0.255229 0.375043 0.700266 0.079062
H29   H     H_    0.169513 0.983211 0.153380 0.122812
H30   H     H_    0.837249 0.790213 0.792854 0.128713
H31   H     H_    0.799730 0.687924 0.009189 0.119857
H32   H     H_    0.483620 0.655694 0.870517 0.111208
H33   H     H_    0.548563 0.790488 0.815050 0.112924
H34   H     H_    0.820569 0.895615 0.126083 0.127604
H35   H     H_    0.739423 0.878482 0.859927 0.110309
H36   H     H_    0.731606 0.928005 0.607077 0.115081
H37   H     H_    0.175012 0.020211 0.849079 0.124534
H38   H     H_    0.671743 0.644939 0.319586 0.118778
H39   H     H_    0.475691 0.542072 0.401088 0.126320
H40   H     H_    0.825367 0.223932 0.727163 0.136604
H41   H     H_    0.766666 0.306880 0.762413 0.135490
H42   H     H_    0.867687 0.349470 0.725617 0.173581
H43   H     H_    0.629857 0.413091 0.931840 0.134635
H44   H     H_    0.489286 0.311332 0.882368 0.158936
H45   H     H_    0.172842 0.059189 0.299271 0.093387
H46   H     H_    0.549795 0.450611 0.980391 0.177503
H47   H     H_    0.807448 0.059172 0.042541 0.126923
H48   H     H_    0.782700 0.316361 0.422242 0.159409
H49   H     H_    0.648432 0.191766 0.324095 0.111756
H50   H     H_    0.660054 0.320522 0.389393 0.191839
H51   H     H_    0.903722 0.429853 0.154473 0.142857
H52   H     H_    0.961020 0.576124 0.235732 0.145521
H53   H     H_    0.822454 0.489644 0.122317 0.170433
H54   H     H_    0.308231 0.706768 0.621162 0.150217
H55   H     H_    0.333984 0.056148 0.822456 0.143204
H56   H     H_    0.823280 0.619624 0.399025 0.144274
H57   H     H_    0.466000 0.066272 0.855632 0.153506
H58   H     H_    0.451653 0.151754 0.956671 0.171979
H59   H     H_    0.477962 0.694306 0.039506 0.122300
H60   H     H_    0.481278 0.356584 0.058447 0.082984
H61   H     H_    0.570981 0.314434 0.123440 0.194460
H62   H     H_    0.614505 0.455523 0.179495 0.189568
H63   H     H_    0.481021 0.178496 0.176150 0.165957
H64   H     H_    0.611870 0.610716 0.974005 0.172762
H65   H     H_    0.824738 0.180955 0.355493 0.083892
H66   H     H_    0.667581 0.820842 0.146890 0.101742
H67   H     H_    0.325632 0.967501 0.643673 0.105170
H68   H     H_    0.466115 0.613355 0.272819 0.129571
N1    N     N_R   0.941940 0.944580 0.650780 -0.037603
N2    N     N_R   0.204460 0.150250 0.707090 -0.044872
N3    N     N_R   0.794270 0.003240 0.446420 -0.054527
N4    N     N_R   0.204920 0.207570 0.650770 -0.050607
N5    N     N_R   0.793810 0.945920 0.502740 -0.042660
N6    N     N_R   0.943620 0.152590 0.446420 -0.042540
N7    N     N_R   0.055110 0.000900 0.707100 -0.039305
N8    N     N_R   0.795080 0.792430 0.349230 -0.040395
N9    N     N_R   0.206190 0.054080 0.497260 -0.040930
N10   N     N_R   0.056380 0.847410 0.553580 -0.044035
N11   N     N_R   0.944890 0.999100 0.292900 -0.040510
N12   N     N_R   0.058060 0.055420 0.349220 -0.041275
N13   N     N_R   0.943200 0.791100 0.497260 -0.054608
N14   N     N_R   0.795540 0.849750 0.292910 -0.043827
N15   N     N_R   0.205730 0.996760 0.553580 -0.037728
N16   N     N_R   0.056800 0.208900 0.502740 -0.045079
Ni1   Ni    Ni4+2 0.869690 0.869690 0.500000 0.217348
Ni2   Ni    Ni4+2 0.130310 0.130310 0.500000 0.216183
Ni3   Ni    Ni4+2 0.129250 0.998840 0.629170 0.205321
Ni4   Ni    Ni4+2 0.870750 0.001160 0.370830 0.211910
O1    O     O_3   0.715306 0.223874 0.595857 -0.634931
O2    O     O_3   0.502791 0.419043 0.822477 -0.633929
O3    O     O_3   0.699369 0.301158 0.269722 -0.612733
O4    O     O_3   0.847691 0.476346 0.259946 -0.603966
O5    O     O_3   0.386121 0.993479 0.923255 -0.647175
O6    O     O_3   0.499471 0.368826 0.207271 -0.632053

loop_
_geom_bond_atom_site_label_1
_geom_bond_atom_site_label_2
_ccdc_geom_bond_type
C25   C31   A    
C66   C68   A    
C63   C65   A    
N9    N15   A    
C73   H31   S    
C6    C45   A    
C27   C29   A    
C2    H56   S    
C41   C42   A    
C6    C58   S    
N8    N14   A    
C35   C36   A    
C3    C6    A    
N7    Ni3   S    
C87   O6    S    
C39   O4    S    
C39   C41   A    
N14   Ni4   S    
N12   Ni2   S    
C47   H54   S    
N10   Ni3   S    
C37   C38   A    
C58   H24   S    
C36   C37   A    
C45   N8    A    
C88   H45   S    
C62   H26   S    
C42   C53   S    
C30   C31   A    
C12   C64   A    
N6    Ni4   S    
C28   H19   S    
C1    C81   A    
C23   C40   A    
C82   O1    S    
C18   C19   A    
C73   C74   A    
C43   H16   S    
C83   H46   S    
C66   C72   A    
C48   H17   S    
N16   Ni2   S    
C51   H20   S    
C88   N12   A    
C87   H62   S    
C56   N9    A    
C86   O5    S    
N3    N5    A    
C70   C71   A    
C32   C38   A    
C82   H42   S    
C29   C30   A    
N1    N7    A    
C52   N5    A    
C47   C53   A    
C4    H3    S    
C63   H27   S    
C21   O1    S    
C84   H50   S    
C59   C60   A    
C78   N11   A    
C13   C14   A    
N2    N4    A    
C76   H37   S    
C74   H64   S    
C60   H25   S    
C61   C62   A    
C36   O3    S    
C7    C56   A    
C86   H58   S    
C44   C46   A    
C86   H55   S    
C65   O6    S    
C77   C79   A    
C26   H8    S    
C22   C34   S    
C74   C75   A    
C16   N2    A    
C33   H14   S    
C8    C41   S    
C64   N6    A    
C87   H60   S    
C10   H68   S    
N11   N12   A    
C5    C7    A    
C68   C69   A    
C17   H39   S    
C25   C26   A    
C5    H67   S    
C79   H35   S    
C64   H65   S    
C66   H29   S    
C28   N3    A    
C54   H21   S    
C60   C61   A    
C51   C53   A    
C84   O3    S    
C43   C44   A    
C83   H43   S    
C62   C63   A    
N5    Ni1   S    
N2    Ni3   S    
C47   C48   A    
C45   H38   S    
C14   H4    S    
C50   C51   A    
C26   C27   A    
N8    Ni1   S    
C82   H41   S    
C75   C77   A    
C85   H52   S    
C82   H40   S    
C8    C67   A    
C39   C46   A    
C49   O5    S    
C61   C72   S    
C67   H23   S    
C48   C49   A    
C84   H49   S    
C25   H7    S    
C16   C23   A    
C7    C19   S    
N3    Ni4   S    
C57   H59   S    
C55   H22   S    
C18   H6    S    
C18   C24   A    
C4    C12   A    
C42   C43   A    
C56   H12   S    
C85   H53   S    
C86   H57   S    
C5    N15   A    
C37   H15   S    
C15   C17   A    
C85   H51   S    
C54   C55   D    
C84   H48   S    
C1    H1    S    
C4    N16   A    
C83   O2    S    
N4    Ni2   S    
C40   N4    A    
C2    C8    A    
C75   H32   S    
C38   H11   S    
C69   C80   S    
C76   C81   A    
C15   H5    S    
C32   H47   S    
C3    N14   A    
C23   C55   S    
C59   H63   S    
C30   H10   S    
C34   C52   A    
C29   O2    S    
C10   C11   A    
C32   C33   A    
C19   C20   A    
C1    N1    A    
N9    Ni2   S    
C9    C68   S    
C83   H44   S    
C9    C88   A    
C59   C65   A    
C11   C13   A    
C11   H2    S    
C57   C58   D    
C40   H28   S    
N15   Ni3   S    
C70   H30   S    
C85   O4    S    
C52   H36   S    
C33   C35   A    
C73   C80   A    
C22   C24   A    
C9    C78   A    
C3    H66   S    
C69   C70   A    
C78   H34   S    
C77   H33   S    
C27   H9    S    
C2    N13   A    
C28   C34   A    
C79   C80   A    
C16   H13   S    
C71   C72   A    
N6    N16   A    
C20   C21   A    
C13   C24   S    
N10   N13   A    
C12   C44   S    
C49   C50   A    
C87   H61   S    
N1    Ni1   S    
C50   H18   S    
N13   Ni1   S    
C14   C15   A    
C76   N7    A    
C10   C17   A    
C21   C22   A    
C35   C46   S    
C54   C57   S    
C67   N10   A    
N11   Ni4   S    
C71   C81   S    
C20   C31   S    
