data_mof_unit_42216.cif
_audit_creation_date              2013-03-05T15:51:03-0500
_audit_creation_method            fapswitch 2.2
_symmetry_space_group_name_H-M    P1
_symmetry_Int_Tables_number       1
_space_group_crystal_system       triclinic
_cell_length_a                    19.211244
_cell_length_b                    11.046013
_cell_length_c                    18.783921
_cell_angle_alpha                 89.819664
_cell_angle_beta                  90.427214
_cell_angle_gamma                 89.979311
_cell_volume                      3985.96090774

loop_
_atom_site_label
_atom_site_type_symbol
_atom_site_description
_atom_site_fract_x
_atom_site_fract_y
_atom_site_fract_z
_atom_type_partial_charge
O1    O     O_R   0.784290 0.290360 0.830540 -0.521670
O2    O     O_R   0.215710 0.290360 0.169460 -0.530478
O3    O     O_R   0.284290 0.790360 0.830540 -0.516756
O4    O     O_R   0.715710 0.790360 0.169460 -0.521737
O5    O     O_R   0.762610 0.041070 0.825230 -0.512526
O6    O     O_R   0.237390 0.041070 0.174770 -0.500111
O7    O     O_R   0.262610 0.541070 0.825230 -0.499937
O8    O     O_R   0.737390 0.541070 0.174770 -0.501436
C1    C     C_R   0.727126 0.956031 0.853200 0.549148
C2    C     C_R   0.290705 0.000637 0.138842 0.570304
C3    C     C_R   0.212711 0.490966 0.861405 0.559749
C4    C     C_R   0.789478 0.496824 0.138654 0.573302
O9    O     O_R   0.667390 0.924160 0.829970 -0.481773
O10   O     O_R   0.332610 0.924160 0.170030 -0.490589
O11   O     O_R   0.167390 0.424160 0.829970 -0.484535
O12   O     O_R   0.832610 0.424160 0.170030 -0.486963
O13   O     O_R   0.553980 0.081420 0.821780 -0.487335
O14   O     O_R   0.446020 0.081420 0.178220 -0.486110
O15   O     O_R   0.053980 0.581420 0.821780 -0.493367
O16   O     O_R   0.946020 0.581420 0.178220 -0.484787
C5    C     C_R   0.532270 0.177324 0.852001 0.551680
C6    C     C_R   0.471499 0.178744 0.150527 0.554746
C7    C     C_R   0.030661 0.677816 0.851085 0.550362
C8    C     C_R   0.971303 0.678720 0.150412 0.572311
O17   O     O_R   0.543210 0.283170 0.826740 -0.519218
O18   O     O_R   0.456790 0.283170 0.173260 -0.504402
O19   O     O_R   0.043210 0.783170 0.826740 -0.517315
O20   O     O_R   0.956790 0.783170 0.173260 -0.506927
O21   O     O_R   0.678350 0.375000 0.822720 -0.509908
O22   O     O_R   0.321650 0.375000 0.177280 -0.479330
O23   O     O_R   0.178350 0.875000 0.822720 -0.508447
O24   O     O_R   0.821650 0.875000 0.177280 -0.500492
C9    C     C_R   0.738416 0.364758 0.851896 0.531259
C10   C     C_R   0.260955 0.366035 0.148699 0.538585
C11   C     C_R   0.238604 0.865249 0.852022 0.534265
C12   C     C_R   0.763611 0.856241 0.144812 0.535794
O25   O     O_R   0.785060 0.289300 0.670580 -0.464596
O26   O     O_R   0.214940 0.289300 0.329420 -0.460634
O27   O     O_R   0.285060 0.789300 0.670580 -0.478814
O28   O     O_R   0.714940 0.789300 0.329420 -0.472005
O29   O     O_R   0.763330 0.040090 0.676940 -0.444577
O30   O     O_R   0.236670 0.040090 0.323060 -0.449450
O31   O     O_R   0.263330 0.540090 0.676940 -0.452507
O32   O     O_R   0.736670 0.540090 0.323060 -0.456070
C13   C     C_R   0.728713 0.951805 0.649153 0.581244
C14   C     C_R   0.273085 0.953993 0.352163 0.581896
C15   C     C_R   0.229018 0.453890 0.648427 0.580998
C16   C     C_R   0.772740 0.456593 0.352937 0.582917
O33   O     O_R   0.668160 0.923110 0.670000 -0.509732
O34   O     O_R   0.331840 0.923110 0.330000 -0.519957
O35   O     O_R   0.168160 0.423110 0.670000 -0.508580
O36   O     O_R   0.831840 0.423110 0.330000 -0.526940
O37   O     O_R   0.554690 0.080440 0.673480 -0.451306
O38   O     O_R   0.445310 0.080440 0.326520 -0.501316
O39   O     O_R   0.054690 0.580440 0.673480 -0.474054
O40   O     O_R   0.945310 0.580440 0.326520 -0.462192
C17   C     C_R   0.563626 0.181306 0.637821 0.587921
C18   C     C_R   0.472150 0.176543 0.353084 0.598026
C19   C     C_R   0.031030 0.675147 0.644450 0.593194
C20   C     C_R   0.937782 0.680125 0.361965 0.582334
O41   O     O_R   0.543980 0.282110 0.666770 -0.482279
O42   O     O_R   0.456020 0.282110 0.333230 -0.462819
O43   O     O_R   0.043980 0.782110 0.666770 -0.514786
O44   O     O_R   0.956020 0.782110 0.333230 -0.489872
O45   O     O_R   0.679070 0.374030 0.674430 -0.522690
O46   O     O_R   0.320930 0.374030 0.325570 -0.506350
O47   O     O_R   0.179070 0.874030 0.674430 -0.511566
O48   O     O_R   0.820930 0.874030 0.325570 -0.523771
C21   C     C_R   0.738290 0.362538 0.646282 0.562764
C22   C     C_R   0.261200 0.359969 0.354573 0.537696
C23   C     C_R   0.239158 0.861498 0.646090 0.552675
C24   C     C_R   0.761266 0.858473 0.354996 0.540000
Cr1   Cr    Cr6+3 0.769260 0.163750 0.750730 1.103125
Cr2   Cr    Cr6+3 0.230740 0.163750 0.249270 1.101924
Cr3   Cr    Cr6+3 0.269260 0.663750 0.750730 1.100591
Cr4   Cr    Cr6+3 0.730740 0.663750 0.249270 1.089889
Cr5   Cr    Cr6+3 0.612640 0.009910 0.748780 1.098760
Cr6   Cr    Cr6+3 0.387360 0.009910 0.251220 1.069801
Cr7   Cr    Cr6+3 0.112640 0.509910 0.748780 1.079372
Cr8   Cr    Cr6+3 0.887360 0.509910 0.251220 1.055547
Cr9   Cr    Cr6+3 0.614190 0.322400 0.747710 1.048961
Cr10  Cr    Cr6+3 0.385810 0.322400 0.252290 1.087294
Cr11  Cr    Cr6+3 0.114190 0.822400 0.747710 1.036414
Cr12  Cr    Cr6+3 0.885810 0.822400 0.252290 1.039771
O49   O     O_3   0.665360 0.165350 0.749070 -0.309600
O50   O     O_3   0.334640 0.165350 0.250930 -0.316272
O51   O     O_3   0.165360 0.665350 0.749070 -0.297672
O52   O     O_3   0.834640 0.665350 0.250930 -0.326466
C25   C     C_2   0.506893 0.165455 0.925035 -0.115051
C26   C     C_2   0.507521 0.178026 0.082194 -0.110880
C27   C     C_2   0.002442 0.669952 0.923233 -0.118893
C28   C     C_2   0.005560 0.677268 0.081194 -0.104095
C29   C     C_2   0.522419 0.077636 0.046348 -0.150504
C30   C     C_2   0.535639 0.081521 0.969013 -0.173072
C31   C     C_2   0.013433 0.576108 0.043855 -0.144883
C32   C     C_2   0.021298 0.577242 0.965772 -0.170153
H1    H     H_    0.523841 0.990993 0.073670 0.172171
H2    H     H_    0.570129 0.012543 0.948014 0.167072
H3    H     H_    0.013435 0.489646 0.071254 0.167277
H4    H     H_    0.043415 0.497861 0.942132 0.193004
H5    H     H_    0.514246 0.265494 0.056500 0.102536
H6    H     H_    0.471942 0.234370 0.945097 0.091354
H7    H     H_    0.014391 0.764605 0.056103 0.101215
H8    H     H_    0.976828 0.749397 0.944560 0.108149
C33   C     C_R   0.777426 0.472211 0.063178 0.048937
C34   C     C_R   0.225955 0.462037 0.935988 0.029294
C35   C     C_R   0.280261 0.983900 0.061773 0.024527
C36   C     C_R   0.750829 0.906667 0.920867 0.040292
C37   C     C_R   0.711885 0.493197 0.032781 -0.034291
C38   C     C_R   0.284320 0.510807 0.970819 -0.030185
C39   C     C_R   0.216443 0.013770 0.029333 -0.020306
C40   C     C_R   0.801757 0.967849 0.961074 -0.039219
C41   C     C_R   0.699432 0.468841 0.961554 0.027641
C42   C     C_R   0.294740 0.489616 0.043121 0.057810
C43   C     C_R   0.203527 0.987205 0.958227 0.047874
C44   C     C_R   0.806472 0.952261 0.034001 0.010445
C45   C     C_R   0.820805 0.424459 0.945182 -0.133171
C46   C     C_R   0.180484 0.401301 0.050419 -0.140191
C47   C     C_R   0.322620 0.925656 0.944699 -0.134439
C48   C     C_R   0.715944 0.802241 0.027782 -0.140390
C49   C     C_R   0.832706 0.436144 0.018326 0.092686
C50   C     C_R   0.174503 0.402178 0.976743 0.049490
C51   C     C_R   0.335208 0.944358 0.017459 0.067334
C52   C     C_R   0.712268 0.814003 0.953999 0.061269
C53   C     C_3   0.643618 0.439965 0.054592 -0.212957
C54   C     C_3   0.359257 0.485169 0.954646 -0.259088
C55   C     C_3   0.144503 0.977631 0.050748 -0.212454
C56   C     C_3   0.818938 0.099955 0.966109 -0.204451
C57   C     C_3   0.630314 0.412275 0.976573 -0.042154
C58   C     C_3   0.369784 0.458752 0.033511 -0.031784
C59   C     C_3   0.130651 0.947143 0.973063 -0.044383
C60   C     C_3   0.824683 0.082391 0.046228 -0.049279
C61   C     C_R   0.753010 0.429065 0.917551 -0.029449
C62   C     C_R   0.244223 0.430003 0.083159 -0.007650
C63   C     C_R   0.254986 0.933794 0.916440 -0.020888
C64   C     C_R   0.759158 0.878222 0.068930 -0.006058
H9    H     H_    0.863168 0.394740 0.911679 0.148297
H10   H     H_    0.139557 0.357489 0.080374 0.145994
H11   H     H_    0.364244 0.889821 0.912326 0.150764
H12   H     H_    0.682984 0.735493 0.052963 0.149533
H13   H     H_    0.114120 0.056074 0.070751 0.166375
H14   H     H_    0.774801 0.158824 0.949377 0.166988
H15   H     H_    0.608274 0.509501 0.077189 0.165321
H16   H     H_    0.386775 0.566990 0.934792 0.155641
H17   H     H_    0.649832 0.357152 0.087886 0.139296
H18   H     H_    0.365966 0.403657 0.920751 0.130217
H19   H     H_    0.144055 0.896649 0.086083 0.132014
H20   H     H_    0.869604 0.121887 0.940968 0.129239
H21   H     H_    0.627665 0.314124 0.963600 0.141650
H22   H     H_    0.382312 0.362491 0.045729 0.151510
H23   H     H_    0.120882 0.849419 0.962551 0.139873
H24   H     H_    0.878195 0.094981 0.067924 0.147344
C65   C     C_R   0.500020 0.172318 0.423491 0.090144
C66   C     C_R   0.543792 0.175863 0.564297 0.080116
C67   C     C_R   0.956843 0.669539 0.434988 0.030990
C68   C     C_R   0.997077 0.660538 0.576568 0.055202
C69   C     C_R   0.456659 0.216125 0.476330 0.039187
C70   C     C_R   0.477436 0.214475 0.545831 0.082563
C71   C     C_R   0.942798 0.767460 0.478546 -0.064915
C72   C     C_R   0.967275 0.764554 0.548052 0.031229
C73   C     C_R   0.593270 0.157467 0.510376 0.076304
C74   C     C_R   0.570590 0.152314 0.438388 0.133153
C75   C     C_R   0.015971 0.564158 0.530640 0.089314
C76   C     C_R   0.001709 0.576870 0.458090 0.092591
C77   C     C_3   0.385475 0.175094 0.494241 -0.301979
C78   C     C_3   0.408359 0.172014 0.571487 -0.246507
C79   C     C_3   0.977897 0.885978 0.465119 -0.182004
C80   C     C_3   0.010099 0.875225 0.536507 -0.178372
H25   H     H_    0.943919 0.963081 0.456583 0.199510
H26   H     H_    0.064663 0.846244 0.532109 0.137230
H27   H     H_    0.376359 0.087384 0.469669 0.147819
H28   H     H_    0.381393 0.239790 0.604704 0.191900
H29   H     H_    0.345029 0.242606 0.482285 0.139056
H30   H     H_    0.410078 0.080028 0.594899 0.198999
H31   H     H_    0.015367 0.882446 0.422384 0.254290
H32   H     H_    0.001581 0.949404 0.574618 0.256236
C81   C     C_R   0.758587 0.430093 0.427219 -0.026593
C82   C     C_R   0.250031 0.413094 0.577657 0.000660
C83   C     C_R   0.260876 0.915893 0.425133 0.020297
C84   C     C_R   0.747688 0.905945 0.578935 0.014607
C85   C     C_R   0.817391 0.426514 0.471746 -0.089622
C86   C     C_R   0.197196 0.357984 0.539424 -0.030283
C87   C     C_R   0.318669 0.897322 0.468963 -0.111474
C88   C     C_R   0.693060 0.857215 0.539100 -0.042758
C89   C     C_R   0.810287 0.416685 0.544418 0.016458
C90   C     C_R   0.195756 0.354837 0.466327 0.005312
C91   C     C_R   0.314436 0.895711 0.541671 -0.028606
C92   C     C_R   0.693500 0.854282 0.466402 -0.005876
C93   C     C_R   0.686852 0.440601 0.533341 -0.177110
C94   C     C_R   0.304876 0.462746 0.464274 -0.161406
C95   C     C_R   0.192407 0.939018 0.531586 -0.175982
C96   C     C_R   0.802074 0.960595 0.466018 -0.184968
C97   C     C_R   0.691528 0.439606 0.458267 0.118522
C98   C     C_R   0.307689 0.461501 0.539755 0.135004
C99   C     C_R   0.196616 0.931232 0.456738 0.182754
C100  C     C_R   0.804245 0.956343 0.541570 0.167659
C101  C     C_3   0.874261 0.333249 0.471298 -0.206329
C102  C     C_3   0.172560 0.231704 0.548309 -0.256585
C103  C     C_3   0.375434 0.806119 0.466076 -0.169231
C104  C     C_3   0.654575 0.741338 0.545696 -0.212095
C105  C     C_3   0.861131 0.316807 0.549519 0.155479
C106  C     C_3   0.168966 0.226882 0.467697 0.114408
C107  C     C_3   0.370911 0.802446 0.547221 0.144769
C108  C     C_3   0.652958 0.739082 0.464342 0.133320
C109  C     C_R   0.746142 0.418809 0.576392 -0.050053
C110  C     C_R   0.250539 0.403889 0.427042 -0.049569
C111  C     C_R   0.250325 0.909846 0.574863 -0.042344
C112  C     C_R   0.750032 0.898783 0.427958 -0.069975
H33   H     H_    0.635848 0.441019 0.557464 0.202376
H34   H     H_    0.349506 0.494715 0.434855 0.192060
H35   H     H_    0.144052 0.961298 0.556592 0.145628
H36   H     H_    0.841571 0.006985 0.436333 0.148638
H37   H     H_    0.925593 0.372587 0.459431 0.169301
H38   H     H_    0.122057 0.227704 0.576552 0.210010
H39   H     H_    0.423470 0.845979 0.443425 0.232648
H40   H     H_    0.603128 0.753920 0.571227 0.236691
H41   H     H_    0.860702 0.251837 0.439370 0.140028
H42   H     H_    0.213885 0.173058 0.571640 0.102308
H43   H     H_    0.358161 0.720712 0.440375 0.139445
H44   H     H_    0.687814 0.670408 0.570296 0.109100
H45   H     H_    0.833714 0.231620 0.561839 0.183156
H46   H     H_    0.205933 0.162591 0.443426 0.127955
H47   H     H_    0.352301 0.714944 0.568285 0.182458
H48   H     H_    0.682055 0.664959 0.439127 0.138877
N1    N     N_R   0.628221 0.437836 0.416069 0.079543
O53   O     O_R   0.628520 0.403032 0.349974 -0.317355
O54   O     O_R   0.568248 0.452934 0.446512 -0.272703
N2    N     N_R   0.372526 0.491186 0.575258 0.055982
O55   O     O_R   0.383833 0.459185 0.641054 -0.322661
O56   O     O_R   0.425298 0.529637 0.538456 -0.290394
N3    N     N_R   0.136810 0.907272 0.414155 0.039708
O57   O     O_R   0.125803 0.795237 0.395882 -0.360730
O58   O     O_R   0.111143 0.992453 0.374013 -0.271421
N4    N     N_R   0.864547 0.997488 0.579812 0.064750
O59   O     O_R   0.882969 0.945861 0.639475 -0.329151
O60   O     O_R   0.906792 0.073828 0.550590 -0.371937
N5    N     N_R   0.919403 0.343682 0.597343 0.082665
O61   O     O_R   0.915739 0.434882 0.640961 -0.355148
O62   O     O_R   0.965376 0.259804 0.610025 -0.291216
N6    N     N_R   0.097923 0.216909 0.439151 0.081862
O63   O     O_R   0.086430 0.237545 0.371885 -0.296494
O64   O     O_R   0.049035 0.165881 0.476312 -0.333067
N7    N     N_R   0.432284 0.848609 0.585215 0.091548
O65   O     O_R   0.432569 0.849793 0.654443 -0.311361
O66   O     O_R   0.486800 0.887951 0.551572 -0.343337
N8    N     N_R   0.582933 0.756674 0.434831 0.117649
O67   O     O_R   0.574039 0.818641 0.376411 -0.321893
O68   O     O_R   0.531496 0.692220 0.458805 -0.245839
N9    N     N_3   0.898311 0.397463 0.047418 -0.607009
H49   H     H_    0.889980 0.315733 0.074065 0.261508
H50   H     H_    0.932704 0.375416 0.006562 0.203577
N10   N     N_3   0.121593 0.328684 0.943634 -0.604870
H51   H     H_    0.146329 0.251931 0.923428 0.277186
H52   H     H_    0.085610 0.297477 0.980967 0.219651
N11   N     N_3   0.401653 0.911335 0.046880 -0.603754
H53   H     H_    0.395146 0.830514 0.074864 0.250704
H54   H     H_    0.436361 0.890085 0.006168 0.214230
N12   N     N_3   0.663850 0.741629 0.913972 -0.588620
H55   H     H_    0.692581 0.680144 0.883917 0.243733
H56   H     H_    0.631291 0.693023 0.947837 0.257164
N13   N     N_3   0.572697 0.483461 0.947414 -0.653108
H57   H     H_    0.526666 0.437035 0.958474 0.224032
H58   H     H_    0.577208 0.485608 0.892046 0.281751
N14   N     N_3   0.415576 0.544398 0.070196 -0.588481
H59   H     H_    0.466923 0.521339 0.058385 0.235710
H60   H     H_    0.407204 0.631808 0.050633 0.228636
N15   N     N_3   0.079287 0.028008 0.940628 -0.640772
H61   H     H_    0.030274 0.001486 0.958821 0.225465
H62   H     H_    0.079265 0.012860 0.885740 0.273032
N16   N     N_3   0.771615 0.150290 0.085183 -0.630937
H63   H     H_    0.774596 0.124687 0.138734 0.255303
H64   H     H_    0.721757 0.127680 0.066674 0.233404
N17   N     N_3   0.665183 0.146920 0.528914 -0.653290
H65   H     H_    0.691779 0.218440 0.506031 0.216383
H66   H     H_    0.683893 0.073763 0.501511 0.232808
N18   N     N_3   0.617332 0.126171 0.381281 -0.586804
H67   H     H_    0.634631 0.037300 0.387185 0.259100
H68   H     H_    0.660475 0.183356 0.384864 0.250809
N19   N     N_3   0.061375 0.467907 0.553702 -0.581884
H69   H     H_    0.041405 0.426690 0.598665 0.319742
H70   H     H_    0.058379 0.396753 0.517859 0.252574
N20   N     N_3   0.041381 0.510295 0.406730 -0.543033
H71   H     H_    0.025645 0.420279 0.406991 0.270425
H72   H     H_    0.094456 0.517467 0.418554 0.273803

loop_
_geom_bond_atom_site_label_1
_geom_bond_atom_site_label_2
_geom_bond_distance
_ccdc_geom_bond_type
C18   O42   1.261020 A    
Cr11  O51   1.993635 S    
O4    C12   1.263134 A    
C78   H28   1.107089 S    
C29   C30   1.477048 S    
O39   C19   1.261233 A    
C25   H6    1.085140 S    
O20   Cr12  2.069966 S    
C42   C58   1.493722 S    
C46   C62   1.402997 A    
C106  H46   1.105902 S    
C66   C73   1.409315 A    
N12   H56   1.043166 S    
C31   C32   1.475605 S    
C86   C102  1.482485 S    
C105  H45   1.103283 S    
C27   H8    1.085150 S    
C60   N16   1.466751 S    
C45   C61   1.399281 A    
O29   Cr1   1.951831 S    
N11   H54   1.045533 S    
C73   C74   1.418898 A    
C54   H18   1.112382 S    
O1    C9    1.272715 A    
C91   C111  1.393553 A    
C24   C112  1.459909 S    
C43   C59   1.496356 S    
C1    C36   1.451575 S    
O7    C3    1.301824 A    
C15   O35   1.285780 A    
C82   C98   1.424620 A    
N9    H49   1.043853 S    
C77   C78   1.513249 S    
C17   O41   1.297907 A    
C41   C57   1.496076 S    
O46   C22   1.283176 A    
C46   H10   1.083599 S    
C103  H39   1.109718 S    
C96   C100  1.420082 A    
C79   H31   1.082997 S    
N17   H65   1.035054 S    
N1    O53   1.300885 A    
C9    C61   1.450725 S    
C66   C70   1.385431 A    
C15   C82   1.464514 S    
C87   C91   1.368825 A    
C85   C89   1.376833 A    
C86   C90   1.373670 A    
C4    C33   1.461178 S    
C57   N13   1.459835 S    
C80   H26   1.099696 S    
O47   C23   1.282430 A    
C59   N15   1.459365 S    
C30   H2    1.086549 S    
C31   H3    1.083470 S    
C98   N2    1.446746 S    
N7    O65   1.300443 A    
C55   C59   1.520172 S    
O21   C9    1.278593 A    
O8    Cr4   1.955886 S    
N16   H64   1.047117 S    
O23   Cr11  1.954961 S    
N20   H72   1.045014 S    
C90   C106  1.504561 S    
C97   N1    1.446926 S    
N17   H66   1.025832 S    
C46   C50   1.387826 A    
N10   H51   1.045505 S    
C89   C105  1.475674 S    
C25   C30   1.354599 D    
O32   Cr4   1.945660 S    
C81   C85   1.401081 A    
C1    O9    1.274813 A    
C96   H36   1.074263 S    
C45   C49   1.397511 A    
C13   C84   1.463006 S    
C87   C103  1.485783 S    
C27   C32   1.344888 D    
C3    O11   1.283289 A    
C94   C110  1.412060 A    
C69   C70   1.362370 A    
O11   Cr7   2.072580 S    
C4    O12   1.291300 A    
C90   C110  1.398302 A    
C93   C109  1.412136 A    
N14   H59   1.044320 S    
C88   C104  1.483705 S    
C56   H14   1.111283 S    
C58   H22   1.112948 S    
N19   H69   1.034568 S    
C101  C105  1.503107 S    
C48   H12   1.082077 S    
C99   N3    1.420477 S    
C7    O19   1.272806 A    
C6    C26   1.462809 S    
O3    Cr3   2.072135 S    
Cr4   O52   1.996147 S    
C51   N11   1.433793 S    
C84   C100  1.411529 A    
C37   C41   1.384624 A    
C91   C107  1.498713 S    
C36   C40   1.406087 A    
O2    C10   1.268810 A    
C23   C111  1.456415 S    
O42   Cr10  2.072110 S    
C52   N12   1.436489 S    
O18   Cr10  2.069966 S    
C41   C61   1.396550 A    
N5    O61   1.302718 A    
C108  H48   1.101474 S    
C103  C107  1.527754 S    
C96   C112  1.403495 A    
C2    C35   1.472247 S    
C102  H42   1.111132 S    
N4    O60   1.294311 A    
C36   C52   1.409689 A    
C101  H41   1.112418 S    
C56   C60   1.519990 S    
Cr7   O51   1.993771 S    
N2    O55   1.301069 A    
C72   C80   1.489972 S    
C20   O44   1.297089 A    
O6    Cr2   1.955886 S    
C83   C87   1.392024 A    
O31   Cr3   1.951831 S    
O24   Cr12  1.952057 S    
N8    O68   1.300504 A    
O30   Cr2   1.945660 S    
C78   H30   1.106282 S    
O22   C10   1.284024 A    
O26   C22   1.272386 A    
C67   C71   1.385945 A    
O48   Cr12  1.950271 S    
Cr5   O49   1.993771 S    
C89   C109  1.375126 A    
C33   C49   1.418287 A    
C103  H43   1.110809 S    
C68   C75   1.421122 A    
C79   H25   1.083671 S    
C2    O10   1.301642 A    
C69   C77   1.481602 S    
C79   C80   1.476995 S    
N13   H58   1.044456 S    
C40   C56   1.499339 S    
O16   Cr8   1.947063 S    
C56   H20   1.111497 S    
C83   C99   1.384410 A    
C59   H23   1.113731 S    
C95   C99   1.411759 A    
N7    O66   1.301360 A    
O27   C23   1.271362 A    
Cr10  O50   1.994392 S    
C45   H9    1.083930 S    
C35   C51   1.418804 A    
C92   C108  1.492635 S    
C28   C31   1.330345 D    
C47   C63   1.402648 A    
O28   Cr4   2.074057 S    
C88   C92   1.366117 A    
O48   C24   1.287578 A    
C48   C64   1.409263 A    
Cr12  O52   1.994392 S    
O41   Cr9   2.074372 S    
O22   Cr10  1.952057 S    
O15   C7    1.282380 A    
C26   H5    1.086823 S    
O5    C1    1.275058 A    
C18   C65   1.423710 S    
C93   C97   1.413790 A    
C104  C108  1.528520 S    
O46   Cr10  1.950271 S    
O39   Cr7   1.953443 S    
O25   C21   1.288848 A    
O45   Cr9   1.947999 S    
C71   C72   1.384671 A    
C44   C60   1.497521 S    
C10   C62   1.451437 S    
O3    C11   1.274482 A    
O8    C4    1.308558 A    
C34   C50   1.417345 A    
C3    C34   1.456477 S    
N6    O64   1.301817 A    
C13   O33   1.270184 A    
N20   H71   1.039367 S    
C107  H47   1.103877 S    
N3    O58   1.298709 A    
C95   C111  1.409733 A    
O47   Cr11  1.947999 S    
Cr2   O50   1.996147 S    
O15   Cr7   1.950228 S    
Cr1   O49   1.996132 S    
C82   C86   1.381648 A    
C81   C97   1.422074 A    
C77   H27   1.088159 S    
C38   C54   1.500598 S    
C55   H13   1.112482 S    
C102  C106  1.516380 S    
C75   N19   1.438637 S    
C37   C53   1.496878 S    
O14   Cr6   1.947063 S    
N18   H68   1.044169 S    
O21   Cr9   1.954961 S    
C16   C81   1.452463 S    
N9    H50   1.045674 S    
O27   Cr3   2.067854 S    
N5    O62   1.300043 A    
C53   C57   1.517847 S    
O30   C14   1.297401 A    
N2    O56   1.301917 A    
C104  H44   1.108189 S    
C8    C28   1.461757 S    
C7    C27   1.465715 S    
C19   O43   1.278839 A    
N4    O59   1.302455 A    
C74   N18   1.434073 S    
N11   H53   1.042607 S    
C102  H38   1.110082 S    
C29   H1    1.084799 S    
C38   C42   1.390405 A    
C40   C44   1.382396 A    
C8    O20   1.264024 A    
C101  H37   1.101812 S    
C70   C78   1.490593 S    
C26   C29   1.331279 D    
N10   H52   1.046123 S    
C42   C62   1.396167 A    
C34   C38   1.402574 A    
O25   Cr1   2.067854 S    
Cr3   O51   1.996132 S    
C80   H32   1.102713 S    
C5    O17   1.278460 A    
N8    O67   1.301664 A    
O26   Cr2   2.074057 S    
O37   C17   1.310212 A    
O28   C24   1.266145 A    
C58   N14   1.462669 S    
O14   C6    1.290953 A    
C35   C39   1.403795 A    
C14   C83   1.453310 S    
O5    Cr1   1.949837 S    
C11   C63   1.461759 S    
C5    C25   1.464854 S    
O31   C15   1.275295 A    
O17   Cr9   2.068213 S    
O2    Cr2   2.065614 S    
O6    C2    1.309926 A    
O7    Cr3   1.949837 S    
C19   C68   1.437471 S    
O24   C12   1.284106 A    
C105  N5    1.461248 S    
C44   C64   1.389800 A    
C68   C72   1.387774 A    
C47   C51   1.402142 A    
C67   C76   1.403568 A    
C22   C110  1.462392 S    
C17   C66   1.431360 S    
C14   O34   1.253553 A    
C39   C55   1.496303 S    
C21   C109  1.459602 S    
O38   C18   1.281267 A    
O40   Cr8   1.957312 S    
O29   C13   1.290043 A    
O44   Cr12  2.072110 S    
C65   C74   1.399615 A    
C12   C64   1.447041 S    
N15   H61   1.045745 S    
C47   H11   1.083719 S    
C71   C79   1.494404 S    
C28   H7    1.086300 S    
C60   H24   1.111967 S    
O19   Cr11  2.068213 S    
N12   H55   1.044705 S    
C94   H34   1.082245 S    
C20   C67   1.421504 S    
O1    Cr1   2.072135 S    
Cr8   O52   1.993110 S    
O32   C16   1.279171 A    
C53   H17   1.112369 S    
N19   H70   1.037845 S    
C106  N6    1.466966 S    
O13   Cr5   1.950228 S    
N15   H62   1.045024 S    
Cr6   O50   1.993110 S    
C57   H21   1.113068 S    
N13   H57   1.044301 S    
C43   C63   1.398410 A    
C53   H15   1.112278 S    
O45   C21   1.264629 A    
C49   N9    1.434421 S    
C32   H4    1.073111 S    
O34   Cr6   2.064479 S    
C54   H16   1.112024 S    
N6    O63   1.300453 A    
N1    O54   1.300987 A    
O33   Cr5   2.068448 S    
C85   C101  1.501462 S    
C33   C37   1.397635 A    
O23   C11   1.282387 A    
O10   Cr6   2.077309 S    
C65   C69   1.388597 A    
O35   Cr7   2.068448 S    
O4    Cr4   2.065614 S    
C75   C76   1.394688 A    
C104  H40   1.110657 S    
C48   C52   1.392880 A    
C94   C98   1.418477 A    
C50   N10   1.439928 S    
C92   C112  1.397300 A    
O40   C20   1.297150 A    
C16   O36   1.272598 A    
C107  N7    1.466194 S    
N18   H67   1.041616 S    
C100  N4    1.433401 S    
N14   H60   1.043991 S    
C6    O18   1.263874 A    
O43   Cr11  2.074372 S    
N3    O57   1.302242 A    
C108  N8    1.463823 S    
C54   C58   1.520972 S    
N16   H63   1.045177 S    
C76   N20   1.437861 S    
C39   C43   1.388955 A    
C93   H33   1.082622 S    
O12   Cr8   2.077309 S    
O37   Cr5   1.953443 S    
O36   Cr8   2.064479 S    
C95   H35   1.072946 S    
C77   H29   1.098292 S    
O9    Cr5   2.072580 S    
O16   C8    1.290164 A    
Cr9   O49   1.993635 S    
C84   C88   1.393655 A    
C55   H19   1.112267 S    
C73   N17   1.426867 S    
O38   Cr6   1.957312 S    
O13   C5    1.274927 A    
