data_mof_unit_16711.cif
_audit_creation_date              2012-12-10T20:42:38-0500
_audit_creation_method            fapswitch 2.2
_symmetry_space_group_name_H-M    P1
_symmetry_Int_Tables_number       1
_space_group_crystal_system       triclinic
_cell_length_a                    8.892016
_cell_length_b                    10.668757
_cell_length_c                    9.938008
_cell_angle_alpha                 90.282759
_cell_angle_beta                  90.799843
_cell_angle_gamma                 90.741193
_cell_volume                      942.603520489

loop_
_atom_site_label
_atom_site_type_symbol
_atom_type_description
_atom_site_fract_x
_atom_site_fract_y
_atom_site_fract_z
_atom_type_partial_charge
C1    C     C_R   0.504291 0.260223 0.499923 0.863045
C2    C     C_R   0.561425 0.935232 0.382083 -0.220165
C3    C     C_R   0.528288 0.871603 0.501533 -0.112424
C4    C     C_R   0.523564 0.936979 0.622832 0.198521
C5    C     C_3   0.412844 0.928941 0.734396 -0.453097
C6    C     C_3   0.412335 0.071077 0.734141 -0.487987
C7    C     C_R   0.390853 0.436667 0.068942 0.174117
C8    C     C_R   0.614045 0.552590 0.076351 -0.199968
C9    C     C_R   0.616263 0.554384 0.933736 0.465529
C10   C     C_R   0.390848 0.436591 0.926993 0.071279
C11   C     C_3   0.226185 0.460302 0.919727 -0.372896
C12   C     C_R   0.218969 0.499959 0.499396 0.916474
C13   C     C_3   0.226043 0.460115 0.072460 -0.437014
C14   C     C_R   0.504505 0.739857 0.500254 0.887405
C15   C     C_R   0.781038 0.500015 0.500556 0.940575
C16   C     C_1   0.065477 0.500042 0.499110 -0.185607
C17   C     C_1   0.934538 0.500056 0.500724 -0.147190
C18   C     C_R   0.523244 0.064741 0.622603 0.129423
C19   C     C_R   0.527592 0.128939 0.501030 -0.106903
C20   C     C_R   0.560955 0.064874 0.381816 -0.217975
H1    H     H_    0.576503 0.113652 0.287575 0.180507
H2    H     H_    0.162603 0.379924 0.874270 0.214939
H3    H     H_    0.199285 0.552937 0.116874 0.228786
H4    H     H_    0.162487 0.379538 0.115072 0.202159
H5    H     H_    0.577301 0.885835 0.287936 0.186819
H6    H     H_    0.303559 0.885872 0.701993 0.197428
H7    H     H_    0.463299 0.889033 0.827521 0.230512
H8    H     H_    0.302760 0.110847 0.701558 0.205252
H9    H     H_    0.462287 0.113397 0.827226 0.215570
H10   H     H_    0.703854 0.595191 0.135697 0.208779
H11   H     H_    0.199948 0.553363 0.875941 0.242006
N1    N     N_R   0.499010 0.499140 0.142800 -0.136355
N2    N     N_R   0.499010 0.499180 0.857150 -0.165637
O1    O     O_R   0.500020 0.316790 0.614690 -0.618616
O2    O     O_R   0.500000 0.316760 0.385350 -0.620482
O3    O     O_R   0.285350 0.500020 0.614650 -0.619181
O4    O     O_R   0.285340 0.499980 0.385310 -0.616911
O5    O     O_R   0.500000 0.683240 0.614650 -0.566651
O6    O     O_R   0.499980 0.683210 0.385310 -0.628784
O7    O     O_R   0.714660 0.500020 0.614690 -0.523951
O8    O     O_R   0.714650 0.499980 0.385350 -0.635844
Zn1   Zn    Zn3+2 0.500010 0.500020 0.653130 1.013225
Zn2   Zn    Zn3+2 0.499990 0.499980 0.346870 0.948398
S1    S     S_3+6 0.782164 0.625228 0.868021 0.012891
O9    O     O_2   0.860672 0.702155 0.975744 -0.346280
O10   O     O_2   0.886963 0.523175 0.826426 -0.330345
O11   O     O_3   0.748765 0.721324 0.738419 -0.544556
H12   H     H_    0.849475 0.746046 0.705479 0.361183

loop_
_geom_bond_atom_site_label_1
_geom_bond_atom_site_label_2
_ccdc_geom_bond_type
O4    Zn2   S    
C7    C10   A    
C12   O3    A    
O2    Zn2   S    
C11   H2    S    
O3    Zn1   S    
C19   C20   A    
O1    Zn1   S    
S1    O11   S    
C7    C13   S    
C8    H10   S    
O7    Zn1   S    
C2    C3    A    
C11   H11   S    
S1    O9    D    
C9    N2    A    
C4    C5    S    
O8    Zn2   S    
C15   O8    A    
C2    H5    S    
C3    C14   S    
N2    Zn1   S    
N1    Zn2   S    
S1    O10   D    
C1    O1    A    
O5    Zn1   S    
C10   N2    A    
C5    C6    S    
C6    C18   S    
C15   O7    A    
C1    C19   S    
C14   O5    A    
C10   C11   S    
C2    C20   A    
C5    H6    S    
C8    N1    A    
O11   H12   S    
C11   C13   S    
C6    H9    S    
C20   H1    S    
C13   H3    S    
C18   C19   A    
C12   O4    A    
C15   C17   S    
C1    O2    A    
C16   C17   T    
C9    S1    S    
O6    Zn2   S    
C7    N1    A    
C14   O6    A    
C5    H7    S    
C4    C18   A    
C6    H8    S    
C3    C4    A    
C12   C16   S    
C13   H4    S    
C8    C9    A    
