data_mof_unit_25617.cif
_audit_creation_date              2012-12-10T18:52:10-0500
_audit_creation_method            fapswitch 2.2
_symmetry_space_group_name_H-M    P1
_symmetry_Int_Tables_number       1
_space_group_crystal_system       triclinic
_cell_length_a                    15.745065
_cell_length_b                    10.689861
_cell_length_c                    9.83765
_cell_angle_alpha                 89.317767
_cell_angle_beta                  89.867227
_cell_angle_gamma                 90.199953
_cell_volume                      1655.66795037

loop_
_atom_site_label
_atom_site_type_symbol
_atom_type_description
_atom_site_fract_x
_atom_site_fract_y
_atom_site_fract_z
_atom_type_partial_charge
C1    C     C_R   0.500861 0.260069 0.500979 0.900720
C2    C     C_R   0.499139 0.739931 0.499021 0.900719
C3    C     C_R   0.455176 0.938972 0.395848 0.211803
C4    C     C_R   0.544824 0.061028 0.604152 0.211803
C5    C     C_R   0.499549 0.872308 0.496839 -0.091532
C6    C     C_R   0.500450 0.127692 0.503161 -0.091531
C7    C     C_R   0.554676 0.575112 0.070745 -0.076409
C8    C     C_R   0.445324 0.424888 0.929255 -0.076411
C9    C     C_R   0.554587 0.575207 0.926840 -0.063028
C10   C     C_R   0.445413 0.424793 0.073160 -0.063027
C11   C     C_R   0.337908 0.499932 0.500132 0.896603
C12   C     C_R   0.662092 0.500068 0.499868 0.896604
C13   C     C_3   0.971623 0.420154 0.594673 0.573144
C14   C     C_3   0.028378 0.579847 0.405327 0.573137
C15   C     C_3   0.027440 0.386022 0.473094 0.143132
C16   C     C_3   0.972561 0.613979 0.526905 0.143125
C17   C     C_1   0.249161 0.500127 0.500617 -0.179151
C18   C     C_1   0.750839 0.499874 0.499383 -0.179151
C19   C     C_3   0.027542 0.536037 0.626009 -0.390940
C20   C     C_3   0.972458 0.463964 0.373990 -0.390954
C21   C     C_3   0.083296 0.500605 0.501978 -0.044693
C22   C     C_3   0.916704 0.499396 0.498022 -0.044699
C23   C     C_1   0.174008 0.500354 0.501272 0.027549
C24   C     C_1   0.825992 0.499646 0.498728 0.027547
C25   C     C_R   0.455468 0.067531 0.400814 -0.305993
C26   C     C_R   0.544532 0.932469 0.599186 -0.305994
H1    H     H_    0.948247 0.433811 0.273653 0.166509
H2    H     H_    0.051752 0.566184 0.726349 0.166511
H3    H     H_    0.420305 0.120376 0.324914 0.161699
H4    H     H_    0.579695 0.879624 0.675086 0.161700
H5    H     H_    0.598431 0.635071 0.124329 0.122108
H6    H     H_    0.401569 0.364929 0.875671 0.122107
H7    H     H_    0.598179 0.635412 0.871334 0.125515
H8    H     H_    0.401821 0.364588 0.128666 0.125514
N1    N     N_R   0.499980 0.499970 0.857200 -0.075717
N2    N     N_R   0.500020 0.500030 0.142800 -0.075717
O1    O     O_R   0.499990 0.316750 0.614620 -0.596853
O2    O     O_R   0.500010 0.683250 0.385380 -0.596851
O3    O     O_R   0.500000 0.316780 0.385290 -0.631447
O4    O     O_R   0.500000 0.683220 0.614710 -0.631446
O5    O     O_R   0.376780 0.499970 0.614640 -0.622576
O6    O     O_R   0.623220 0.500030 0.385360 -0.622575
O7    O     O_R   0.376780 0.500000 0.385310 -0.606004
O8    O     O_R   0.623220 0.500000 0.614690 -0.606004
Zn1   Zn    Zn3+2 0.500000 0.499980 0.653120 0.958256
Zn2   Zn    Zn3+2 0.500000 0.500020 0.346880 0.958257
N3    N     N_2   0.061531 0.263357 0.445226 -0.291608
H9    H     H_    0.106411 0.234246 0.514695 0.215637
C27   C     C_3   0.999045 0.168465 0.414823 -0.749510
H10   H     H_    0.031777 0.081131 0.385016 0.228260
H11   H     H_    0.958246 0.199267 0.328880 0.243828
H12   H     H_    0.958948 0.148364 0.505545 0.261425
N4    N     N_2   0.938469 0.736643 0.554776 -0.291605
H13   H     H_    0.893594 0.765758 0.485300 0.215634
C28   C     C_3   0.000954 0.831532 0.585200 -0.749495
H14   H     H_    0.968224 0.918867 0.615009 0.228254
H15   H     H_    0.041058 0.851638 0.494485 0.261418
H16   H     H_    0.041746 0.800722 0.671149 0.243823
O9    O     O_3   0.934536 0.334107 0.687318 -0.597673
C29   C     C_3   0.994269 0.300954 0.787609 -0.328491
H17   H     H_    0.005782 0.380327 0.857234 0.168492
H18   H     H_    0.055094 0.268540 0.742631 0.150416
H19   H     H_    0.967878 0.222418 0.849318 0.193814
O10   O     O_3   0.065471 0.665891 0.312687 -0.597668
C30   C     C_3   0.005740 0.699039 0.212391 -0.328536
H20   H     H_    0.944929 0.731505 0.257375 0.150446
H21   H     H_    0.994202 0.619644 0.142809 0.168482
H22   H     H_    0.032151 0.777528 0.150636 0.193832
N5    N     N_2   0.407501 0.877398 0.293500 -0.284551
H23   H     H_    0.345545 0.908082 0.287811 0.222457
C31   C     C_3   0.448075 0.877633 0.161318 -0.736931
H24   H     H_    0.450629 0.974184 0.118228 0.216221
H25   H     H_    0.411264 0.817506 0.091337 0.240198
H26   H     H_    0.513603 0.840055 0.168913 0.245339
N6    N     N_2   0.592500 0.122601 0.706499 -0.284552
H27   H     H_    0.654456 0.091916 0.712187 0.222456
C32   C     C_3   0.551927 0.122370 0.838681 -0.736929
H28   H     H_    0.549372 0.025821 0.881773 0.216221
H29   H     H_    0.486399 0.159950 0.831085 0.245339
H30   H     H_    0.588739 0.182499 0.908660 0.240199

loop_
_geom_bond_atom_site_label_1
_geom_bond_atom_site_label_2
_ccdc_geom_bond_type
C28   H14   S    
C7    N2    A    
C15   N3    S    
N3    C27   S    
C32   H28   S    
C17   C23   T    
C29   H19   S    
C18   C24   T    
C14   C21   S    
C19   C21   S    
C6    C25   A    
C29   H18   S    
O6    Zn2   S    
N5    C31   S    
C16   N4    S    
C4    N6    S    
C12   O6    A    
C27   H11   S    
N2    Zn2   S    
C1    O1    A    
C30   H22   S    
C32   H29   S    
O9    C29   S    
C9    H7    S    
O4    Zn1   S    
N4    C28   S    
C21   C23   S    
C25   H3    S    
C15   C20   S    
C7    H5    S    
C13   C19   S    
C1    C6    S    
C8    H6    S    
C14   C20   S    
C3    C25   A    
C4    C6    A    
C31   H25   S    
C30   H21   S    
N4    H13   S    
C29   H17   S    
C8    N1    A    
N6    H27   S    
C2    O2    A    
N3    H9    S    
C27   H12   S    
C14   O10   S    
C10   H8    S    
C11   O7    A    
C19   H2    S    
N6    C32   S    
O3    Zn2   S    
C20   C22   S    
C26   H4    S    
C13   C15   S    
C27   H10   S    
C22   C24   S    
C2    C5    S    
O1    Zn1   S    
N1    Zn1   S    
O8    Zn1   S    
C32   H30   S    
C7    C9    A    
C11   C17   S    
C16   C22   S    
C3    N5    S    
C3    C5    A    
C31   H26   S    
C4    C26   A    
C13   O9    S    
C20   H1    S    
O10   C30   S    
C28   H15   S    
C31   H24   S    
C12   O8    A    
C16   C19   S    
C13   C22   S    
C11   O5    A    
C14   C16   S    
N5    H23   S    
O7    Zn2   S    
O2    Zn2   S    
C1    O3    A    
C5    C26   A    
C2    O4    A    
C15   C21   S    
C8    C10   A    
C30   H20   S    
C28   H16   S    
C12   C18   S    
C9    N1    A    
O5    Zn1   S    
C10   N2    A    
