data_mof_unit_41158.cif
_audit_creation_date              2012-10-26T18:39:06-0400
_audit_creation_method            fapswitch 2.2
_symmetry_space_group_name_H-M    P1
_symmetry_Int_Tables_number       1
_space_group_crystal_system       triclinic
_cell_length_a                    9.403222
_cell_length_b                    10.622799
_cell_length_c                    17.371028
_cell_angle_alpha                 90.038037
_cell_angle_beta                  86.053261
_cell_angle_gamma                 89.680215
_cell_volume                      1731.02364959

loop_
_atom_site_label
_atom_site_type_symbol
_atom_type_description
_atom_site_fract_x
_atom_site_fract_y
_atom_site_fract_z
_atom_type_partial_charge
C1    C     C_R   0.499730 0.740476 0.499499 0.552321
C2    C     C_3   0.604945 0.958979 0.450963 0.001443
C3    C     C_3   0.948507 0.388603 0.514114 -0.001550
C4    C     C_3   0.051493 0.611397 0.485885 -0.001548
C5    C     C_3   0.042420 0.464336 0.566159 -0.005075
C6    C     C_3   0.957580 0.535664 0.433841 -0.005071
C7    C     C_3   0.057678 0.424305 0.447898 -0.008726
C8    C     C_3   0.942322 0.575695 0.552102 -0.008728
C9    C     C_R   0.481543 0.501594 0.649749 0.541840
C10   C     C_R   0.518457 0.498398 0.350251 0.541834
C11   C     C_R   0.472858 0.508271 0.733916 0.012710
C12   C     C_R   0.500270 0.259524 0.500502 0.552323
C13   C     C_R   0.527144 0.491688 0.266085 0.012710
C14   C     C_R   0.598816 0.510564 0.772698 -0.137602
C15   C     C_R   0.401188 0.489316 0.227304 -0.137599
C16   C     C_R   0.592654 0.518688 0.852436 -0.111186
C17   C     C_R   0.407354 0.481158 0.147568 -0.111193
C18   C     C_R   0.460201 0.522694 0.894809 0.044818
C19   C     C_R   0.539807 0.477193 0.105194 0.044815
C20   C     C_R   0.334268 0.523589 0.856227 -0.122939
C21   C     C_R   0.665739 0.476371 0.143776 -0.122928
C22   C     C_R   0.340372 0.516163 0.776067 -0.139750
C23   C     C_3   0.373473 0.959748 0.477161 -0.132987
C24   C     C_R   0.659631 0.483833 0.223934 -0.139753
C25   C     C_2   0.450650 0.527041 0.979263 -0.136877
C26   C     C_2   0.549356 0.472827 0.020741 -0.136882
C27   C     C_R   0.280709 0.092315 0.605564 0.053990
C28   C     C_R   0.135661 0.075474 0.593857 -0.089138
C29   C     C_R   0.030897 0.125166 0.646520 -0.125131
C30   C     C_R   0.070032 0.191682 0.711105 -0.118964
C31   C     C_R   0.214061 0.208688 0.723126 -0.114683
C32   C     C_R   0.319165 0.159727 0.670434 -0.075725
C33   C     C_R   0.719298 0.907692 0.394440 0.053986
C34   C     C_3   0.626526 0.040252 0.522841 -0.132983
C35   C     C_R   0.680851 0.840249 0.329580 -0.075708
C36   C     C_R   0.785963 0.791296 0.276890 -0.114693
C37   C     C_R   0.929989 0.808344 0.288900 -0.118967
C38   C     C_R   0.969115 0.874892 0.353474 -0.125132
C39   C     C_R   0.864343 0.924575 0.406136 -0.089149
C40   C     C_3   0.480403 0.043312 0.428485 -0.143500
C41   C     C_3   0.519598 0.956688 0.571517 -0.143498
C42   C     C_3   0.500747 0.122791 0.500841 0.029716
C43   C     C_3   0.499253 0.877209 0.499161 0.029715
C44   C     C_3   0.395055 0.041022 0.549039 0.001440
Cu1   Cu    Cu3+1 0.356850 0.500010 0.499980 0.927841
Cu2   Cu    Cu3+1 0.643150 0.499990 0.500020 0.927839
H1    H     H_    0.702605 0.506915 0.741546 0.120200
H2    H     H_    0.358344 0.573852 0.007552 0.113218
H3    H     H_    0.231301 0.528134 0.888221 0.095888
H4    H     H_    0.768706 0.471862 0.111781 0.095890
H5    H     H_    0.308222 0.476371 0.119591 0.097205
H6    H     H_    0.691792 0.523420 0.880411 0.097194
H7    H     H_    0.465510 0.081706 0.370136 0.106662
H8    H     H_    0.534490 0.918294 0.629866 0.106660
H9    H     H_    0.271767 0.922802 0.457761 0.097003
H10   H     H_    0.728231 0.077199 0.542244 0.097000
H11   H     H_    0.082817 0.434256 0.621833 0.113850
H12   H     H_    0.297399 0.492931 0.258456 0.120201
H13   H     H_    0.917183 0.565745 0.378167 0.113846
H14   H     H_    0.103059 0.024735 0.544106 0.084381
H15   H     H_    0.919306 0.112223 0.637241 0.093766
H16   H     H_    0.988787 0.230128 0.751777 0.101433
H17   H     H_    0.244248 0.259601 0.773364 0.112057
H18   H     H_    0.430448 0.174295 0.680137 0.096266
H19   H     H_    0.569571 0.825650 0.319885 0.096269
H20   H     H_    0.755784 0.740360 0.226660 0.112043
H21   H     H_    0.011240 0.769906 0.248229 0.101441
H22   H     H_    0.080704 0.887870 0.362745 0.093774
H23   H     H_    0.900690 0.294726 0.525979 0.102989
H24   H     H_    0.896939 0.975342 0.455877 0.084385
H25   H     H_    0.099309 0.705275 0.474020 0.102999
H26   H     H_    0.111370 0.360601 0.404163 0.100465
H27   H     H_    0.888630 0.639399 0.595837 0.100473
H28   H     H_    0.758226 0.484028 0.252711 0.118269
H29   H     H_    0.241776 0.516026 0.747289 0.118275
H30   H     H_    0.641665 0.426015 0.992457 0.113213
N1    N     N_3   0.141720 0.500030 0.499940 -0.230833
N2    N     N_3   0.858280 0.499970 0.500060 -0.230833
O1    O     O_R   0.379130 0.683150 0.499960 -0.511717
O2    O     O_R   0.620870 0.316850 0.500040 -0.511720
O3    O     O_R   0.620910 0.683140 0.500000 -0.493129
O4    O     O_R   0.379090 0.316860 0.500000 -0.493131
O5    O     O_R   0.365090 0.500030 0.613580 -0.505807
O6    O     O_R   0.634910 0.499970 0.386420 -0.505810
O7    O     O_R   0.606870 0.500020 0.613610 -0.513003
O8    O     O_R   0.393130 0.499980 0.386390 -0.513003

loop_
_geom_bond_atom_site_label_1
_geom_bond_atom_site_label_2
_ccdc_geom_bond_type
C34   H10   S    
Cu1   O4    S    
C34   C42   S    
C4    C8    S    
C17   H5    S    
Cu1   Cu2   S    
C34   C41   S    
C33   C39   A    
C36   C37   A    
C3    H23   S    
C37   C38   A    
C3    C7    S    
C30   C31   A    
C33   C35   A    
C11   C14   A    
C36   H20   S    
C6    N2    S    
C35   H19   S    
C1    O3    A    
C23   C40   S    
C12   O2    A    
C23   C43   S    
C19   C26   S    
C12   C42   S    
C17   C19   A    
C27   C44   S    
C1    C43   S    
C10   O8    A    
C35   C36   A    
C26   H30   S    
C29   C30   A    
C7    N1    S    
Cu2   O7    S    
C9    O7    A    
C2    C34   S    
C40   C42   S    
C8    N2    S    
C41   C43   S    
Cu1   O5    S    
C18   C25   S    
C42   C44   S    
C22   H29   S    
C21   H4    S    
C28   H14   S    
C29   H15   S    
C31   H17   S    
C32   H18   S    
C4    C6    S    
C7    H26   S    
Cu2   N2    S    
C25   C26   D    
C23   C44   S    
C13   C24   A    
C20   H3    S    
Cu2   O3    S    
C31   C32   A    
C2    C43   S    
C12   O4    A    
Cu1   O1    S    
C9    C11   S    
C25   H2    S    
C14   H1    S    
C9    O5    A    
Cu2   O6    S    
C2    C33   S    
C20   C22   A    
C13   C15   A    
C1    O1    A    
C15   H12   S    
C14   C16   A    
C5    N1    S    
C15   C17   A    
C28   C29   A    
C19   C21   A    
C27   C32   A    
C6    H13   S    
C16   H6    S    
C38   H22   S    
C3    C5    S    
C10   C13   S    
C5    C8    S    
C23   H9    S    
C6    C7    S    
C11   C22   A    
C5    H11   S    
C30   H16   S    
Cu1   O8    S    
C4    N1    S    
Cu2   O2    S    
C24   H28   S    
C38   C39   A    
C37   H21   S    
C10   O6    A    
C8    H27   S    
C41   C44   S    
C39   H24   S    
C18   C20   A    
C41   H8    S    
C2    C40   S    
C16   C18   A    
C40   H7    S    
C21   C24   A    
C27   C28   A    
Cu1   N1    S    
C3    N2    S    
C4    H25   S    
