data_mof_unit_58902.cif
_audit_creation_date              2013-03-05T16:02:45-0500
_audit_creation_method            fapswitch 2.2
_symmetry_space_group_name_H-M    P1
_symmetry_Int_Tables_number       1
_space_group_crystal_system       triclinic
_cell_length_a                    23.559019
_cell_length_b                    11.703158
_cell_length_c                    10.426946
_cell_angle_alpha                 89.644956
_cell_angle_beta                  89.974717
_cell_angle_gamma                 89.220318
_cell_volume                      2874.54304908

loop_
_atom_site_label
_atom_site_type_symbol
_atom_site_description
_atom_site_fract_x
_atom_site_fract_y
_atom_site_fract_z
_atom_type_partial_charge
O1    O     O_R   0.500000 0.337200 0.605810 -0.540525
O2    O     O_R   0.500000 0.662800 0.394190 -0.547145
O3    O     O_R   0.500000 0.662800 0.605810 -0.584789
O4    O     O_R   0.500000 0.337200 0.394190 -0.581876
C1    C     C_R   0.500006 0.283245 0.500317 0.859924
C2    C     C_R   0.499892 0.716754 0.499671 0.857036
O5    O     O_R   0.417880 0.500000 0.605840 -0.573262
O6    O     O_R   0.582120 0.500000 0.394160 -0.562716
O7    O     O_R   0.582120 0.500000 0.605840 -0.559818
O8    O     O_R   0.417880 0.500000 0.394160 -0.554139
C3    C     C_R   0.390344 0.503162 0.499947 0.892779
C4    C     C_R   0.609803 0.498352 0.499975 0.884765
Cu1   Cu    Cu3+1 0.500000 0.500000 0.625300 1.043590
Cu2   Cu    Cu3+1 0.500000 0.500000 0.374700 1.036283
C5    C     C_R   0.877587 0.600534 0.546907 0.609269
C6    C     C_R   0.124779 0.446697 0.476947 0.659789
C7    C     C_R   0.886156 0.410137 0.467554 0.609276
C8    C     C_R   0.115338 0.643058 0.533106 0.601360
N1    N     N_R   0.853873 0.501154 0.506934 -0.431651
N2    N     N_R   0.148315 0.549229 0.506972 -0.426378
C9    C     C_R   0.945930 0.415463 0.470240 -0.143809
C10   C     C_R   0.055785 0.636807 0.526982 -0.136861
C11   C     C_R   0.936778 0.614500 0.541628 -0.151446
C12   C     C_R   0.065459 0.433615 0.478768 -0.160260
C13   C     C_R   0.971122 0.520024 0.504857 -0.143157
C14   C     C_R   0.030791 0.530115 0.503458 -0.154082
C15   C     C_R   0.980929 0.319771 0.440312 0.365168
C16   C     C_R   0.020693 0.733852 0.545023 0.362504
C17   C     C_R   0.962271 0.720460 0.568874 0.344660
C18   C     C_R   0.040152 0.326697 0.457690 0.332479
O9    O     O_2   0.843439 0.686011 0.588703 -0.506869
O10   O     O_2   0.159052 0.358212 0.444327 -0.492939
O11   O     O_2   0.860092 0.314960 0.427242 -0.517305
O12   O     O_2   0.140074 0.740272 0.570688 -0.559071
C19   C     C_R   0.239629 0.601548 0.410955 0.402821
C20   C     C_R   0.763412 0.457072 0.611465 0.371427
C21   C     C_R   0.237310 0.498028 0.615317 0.334573
C22   C     C_R   0.764045 0.529868 0.392332 0.364485
C23   C     C_R   0.298723 0.577886 0.401049 -0.159694
C24   C     C_R   0.703683 0.456172 0.610616 -0.141585
C25   C     C_R   0.295774 0.474517 0.606883 -0.139446
C26   C     C_R   0.704297 0.530572 0.389907 -0.142256
C27   C     C_R   0.327391 0.517022 0.501238 -0.307737
C28   C     C_R   0.673204 0.494938 0.500066 -0.307375
C29   C     C_R   0.209195 0.555268 0.514354 0.149788
C30   C     C_R   0.793162 0.494137 0.502934 0.157649
C31   C     C_1   0.499898 0.161941 0.500773 -0.131338
C32   C     C_1   0.499812 0.838055 0.499165 -0.139971
C33   C     C_1   0.499819 0.059699 0.500357 0.024422
C34   C     C_1   0.499782 0.940298 0.499533 0.020533
N3    N     N_1   0.500000 0.500000 0.186410 -0.134373
N4    N     N_1   0.500000 0.500000 0.813590 -0.131544
C35   C     C_1   0.500007 0.500019 0.071945 0.111744
C36   C     C_1   0.500008 0.500008 0.928058 0.120023
O13   O     O_3   0.956668 0.216213 0.408425 -0.570504
C37   C     C_3   0.972092 0.183555 0.282141 0.089148
H1    H     H_    0.962160 0.091580 0.271865 0.156932
H2    H     H_    0.018280 0.191243 0.263222 0.166483
C38   C     C_3   0.938412 0.250583 0.179900 -0.321736
H3    H     H_    0.892308 0.234831 0.191991 0.263627
H4    H     H_    0.945869 0.343610 0.190309 0.214830
C39   C     C_3   0.956606 0.214412 0.045370 -0.959205
H5    H     H_    0.002880 0.227183 0.031991 0.259898
H6    H     H_    0.933696 0.267076 0.972805 0.267454
H7    H     H_    0.946736 0.123019 0.029589 0.257508
O14   O     O_3   0.043211 0.842489 0.539052 -0.591112
C40   C     C_3   0.028732 0.894395 0.420010 0.075407
H8    H     H_    0.029612 0.988244 0.433239 0.188315
H9    H     H_    0.984859 0.874903 0.387227 0.144002
C41   C     C_3   0.071933 0.861179 0.316363 -0.345058
H10   H     H_    0.115359 0.875141 0.353391 0.250961
H11   H     H_    0.067616 0.769234 0.292848 0.220757
C42   C     C_3   0.063674 0.931897 0.194319 -0.964003
H12   H     H_    0.019155 0.926648 0.160286 0.259645
H13   H     H_    0.092379 0.898952 0.118145 0.262510
H14   H     H_    0.074160 0.022519 0.212507 0.267817
O15   O     O_3   0.929039 0.814106 0.604318 -0.564695
C43   C     C_3   0.944565 0.853032 0.727932 0.112071
H15   H     H_    0.924998 0.939077 0.741034 0.160478
H16   H     H_    0.991060 0.864814 0.738402 0.156898
C44   C     C_3   0.922560 0.774244 0.834760 -0.332193
H17   H     H_    0.875387 0.774838 0.833904 0.259195
H18   H     H_    0.937859 0.685206 0.819086 0.215286
C45   C     C_3   0.943468 0.813123 0.965734 -0.971687
H19   H     H_    0.990609 0.812245 0.968118 0.263302
H20   H     H_    0.928140 0.754054 0.041389 0.270631
H21   H     H_    0.927459 0.900800 0.986463 0.258274
O16   O     O_3   0.073128 0.227945 0.454291 -0.587292
C46   C     C_3   0.076543 0.181392 0.579602 0.081398
H22   H     H_    0.036636 0.135470 0.601959 0.152871
H23   H     H_    0.083211 0.248377 0.653812 0.134460
C47   C     C_3   0.126916 0.097702 0.586591 -0.275145
H24   H     H_    0.124199 0.034667 0.507880 0.237829
H25   H     H_    0.167043 0.145380 0.574111 0.251617
C48   C     C_3   0.128648 0.034181 0.714818 -0.857910
H26   H     H_    0.132949 0.095586 0.794952 0.242913
H27   H     H_    0.165598 0.974265 0.716548 0.272158
H28   H     H_    0.089323 0.984263 0.728542 0.273385
O17   O     O_3   0.208086 0.655863 0.314566 -0.603625
C49   C     C_3   0.227502 0.766316 0.278492 0.052272
H29   H     H_    0.191993 0.808714 0.226026 0.167596
H30   H     H_    0.261737 0.760726 0.206067 0.166221
C50   C     C_3   0.244381 0.845155 0.390006 -0.411041
H31   H     H_    0.209225 0.852646 0.459659 0.268400
H32   H     H_    0.282403 0.810549 0.440553 0.228172
C51   C     C_3   0.257904 0.964897 0.341116 -0.849387
H33   H     H_    0.293726 0.961333 0.271876 0.268208
H34   H     H_    0.270118 0.019620 0.422973 0.270090
H35   H     H_    0.220080 0.003992 0.293658 0.257053
O18   O     O_3   0.792925 0.428539 0.722306 -0.576710
C52   C     C_3   0.804173 0.309449 0.725725 0.069586
H36   H     H_    0.845850 0.292075 0.679561 0.179855
H37   H     H_    0.771135 0.258199 0.676214 0.145077
C53   C     C_3   0.807261 0.269839 0.865559 -0.293117
H38   H     H_    0.838411 0.322492 0.917991 0.233569
H39   H     H_    0.765068 0.282219 0.911500 0.249703
C54   C     C_3   0.824764 0.144003 0.876144 -0.924496
H40   H     H_    0.793119 0.089614 0.827634 0.274060
H41   H     H_    0.827177 0.118495 0.978786 0.267738
H42   H     H_    0.867097 0.129566 0.831674 0.253849
O19   O     O_3   0.205899 0.449273 0.713246 -0.585526
C55   C     C_3   0.193686 0.533542 0.806137 0.080153
H43   H     H_    0.163469 0.598599 0.767221 0.154007
H44   H     H_    0.233064 0.577099 0.837817 0.178476
C56   C     C_3   0.166388 0.476714 0.922742 -0.315026
H45   H     H_    0.126758 0.433781 0.892838 0.207366
H46   H     H_    0.196030 0.410952 0.962773 0.260643
C57   C     C_3   0.152288 0.563925 0.026687 -0.846890
H47   H     H_    0.191423 0.607706 0.057793 0.289129
H48   H     H_    0.133508 0.519880 0.110948 0.272640
H49   H     H_    0.121230 0.628550 0.990123 0.237634
O20   O     O_3   0.794503 0.560964 0.284079 -0.585050
C58   C     C_3   0.800975 0.681097 0.280064 0.070655
H50   H     H_    0.842500 0.702711 0.323300 0.170571
H51   H     H_    0.766873 0.729180 0.332274 0.153966
C59   C     C_3   0.800797 0.721105 0.140226 -0.302081
H52   H     H_    0.834817 0.675127 0.086722 0.232423
H53   H     H_    0.759417 0.700514 0.095459 0.258755
C60   C     C_3   0.810136 0.849670 0.129659 -0.913507
H54   H     H_    0.775211 0.897141 0.178355 0.273028
H55   H     H_    0.810834 0.875582 0.027041 0.268540
H56   H     H_    0.851242 0.872694 0.174089 0.257885
C61   C     C_2   0.329261 0.610165 0.282678 0.891244
O21   O     O_2   0.317376 0.564440 0.181205 -0.572933
O22   O     O_R   0.370820 0.694230 0.286935 -0.775401
H57   H     H_    0.388557 0.709072 0.199920 0.329471
C62   C     C_2   0.674851 0.410188 0.725967 0.915311
O23   O     O_2   0.643322 0.328504 0.716448 -0.606557
O24   O     O_R   0.685258 0.458215 0.845948 -0.701074
H58   H     H_    0.663629 0.418879 0.917371 0.344385
C63   C     C_2   0.321646 0.395406 0.703341 0.954534
O25   O     O_2   0.351152 0.314698 0.668095 -0.602025
O26   O     O_R   0.311455 0.411820 0.834047 -0.743968
H59   H     H_    0.331135 0.352060 0.889759 0.338243
C64   C     C_2   0.675952 0.574394 0.272294 0.918737
O27   O     O_2   0.684532 0.527297 0.169608 -0.564876
O28   O     O_R   0.640789 0.671408 0.278622 -0.767499
H60   H     H_    0.624175 0.693384 0.192106 0.331091

loop_
_geom_bond_atom_site_label_1
_geom_bond_atom_site_label_2
_geom_bond_distance
_ccdc_geom_bond_type
O13   C37   1.419153 S    
O28   H60   1.013818 S    
C21   C29   1.405531 A    
C64   O28   1.398208 S    
C42   H13   1.110441 S    
C42   H12   1.109988 S    
C19   C23   1.419599 A    
C48   H26   1.111015 S    
C45   H21   1.110843 S    
O3    C2    1.270753 A    
C57   H47   1.110392 S    
C53   H38   1.110849 S    
C48   H28   1.110708 S    
C31   C33   1.196616 T    
C35   C36   1.500301 S    
O5    C3    1.280942 A    
C1    C31   1.419659 S    
C2    C32   1.419556 S    
O1    C1    1.271712 A    
C11   C17   1.415622 A    
C16   C17   1.409202 A    
C62   O24   1.397804 S    
C45   H20   1.109223 S    
C22   C26   1.407749 A    
C54   H41   1.110591 S    
C60   H56   1.110891 S    
C43   H16   1.111375 S    
C51   H33   1.110886 S    
C61   O21   1.222946 D    
C37   H1    1.110484 S    
O7    Cu1   1.945189 S    
O18   C52   1.415382 S    
C49   H29   1.109529 S    
C39   H6    1.108699 S    
C62   O23   1.223119 D    
C5    N1    1.364702 A    
C50   H32   1.109996 S    
C52   H37   1.117581 S    
C52   H36   1.110149 S    
O20   C58   1.416599 S    
C56   C57   1.526733 S    
C63   O25   1.223359 D    
C20   C30   1.400539 A    
C41   H10   1.108209 S    
C46   H23   1.117567 S    
N2    C29   1.439089 S    
C39   H7    1.110929 S    
O6    C4    1.281818 A    
C5    C11   1.407253 A    
O14   C40   1.418255 S    
C9    C15   1.417879 A    
C38   H3    1.111146 S    
C6    C12   1.408072 A    
C10   C16   1.409156 A    
Cu1   Cu2   2.612993 S    
C15   C18   1.410537 A    
O4    Cu2   1.914829 S    
C25   C27   1.420664 A    
C63   O26   1.397729 S    
C52   C53   1.528681 S    
O2    C2    1.271589 A    
C26   C28   1.425298 A    
C59   C60   1.526884 S    
C19   O17   1.395096 S    
C49   H30   1.106208 S    
C44   H18   1.110975 S    
N4    C36   1.193553 T    
O22   H57   1.013745 S    
N1    C30   1.434402 S    
C38   H4    1.111130 S    
C40   H8    1.108276 S    
C20   C24   1.407374 A    
C45   H19   1.110801 S    
C59   H53   1.111093 S    
O8    Cu2   1.945191 S    
C54   H42   1.110937 S    
C46   H22   1.113144 S    
C43   H15   1.110967 S    
O4    C1    1.270664 A    
C23   C27   1.425892 A    
C13   C14   1.412343 A    
O15   C43   1.419461 S    
C49   C50   1.544386 S    
C44   H17   1.111323 S    
N3    C35   1.193519 T    
C22   O20   1.386627 S    
O3    Cu1   1.914829 S    
C16   O14   1.385323 S    
C39   H5    1.111001 S    
C58   C59   1.528639 S    
Cu1   N4    1.963291 S    
Cu2   N3    1.963290 S    
C24   C28   1.426723 A    
C6    N2    1.366842 A    
C41   C42   1.524790 S    
C47   H25   1.111473 S    
C7    O11   1.348719 S    
C46   C47   1.529875 S    
C3    C27   1.489800 S    
C8    O12   1.345863 S    
O19   C55   1.413295 S    
C21   O19   1.385433 S    
C23   C61   1.478007 S    
C20   O18   1.385744 S    
C56   H45   1.111911 S    
C42   H14   1.109719 S    
O1    Cu1   1.917333 S    
C18   O16   1.384383 S    
C19   C29   1.404447 A    
C57   H49   1.111025 S    
C50   H31   1.104263 S    
C44   C45   1.526131 S    
C56   H46   1.111694 S    
C61   O22   1.398317 S    
C9    C13   1.416117 A    
C38   C39   1.527251 S    
O6    Cu2   1.945367 S    
C24   C62   1.482846 S    
C8    C10   1.407410 A    
C12   C14   1.409645 A    
C59   H52   1.111183 S    
C57   H48   1.110674 S    
C53   H39   1.111319 S    
C60   H54   1.110921 S    
C48   H27   1.110427 S    
C5    O9    1.349447 S    
C25   C63   1.487918 S    
C6    O10   1.349592 S    
C15   O13   1.389265 S    
C54   H40   1.110877 S    
C37   C38   1.534566 S    
C40   C41   1.532452 S    
C55   C56   1.528090 S    
C26   C64   1.482040 S    
O26   H59   1.013865 S    
C4    C28   1.493668 S    
O17   C49   1.425336 S    
C60   H55   1.110501 S    
C43   C44   1.536061 S    
C58   H50   1.110312 S    
C51   H34   1.110613 S    
C32   C34   1.196582 T    
C47   H24   1.109374 S    
C7    N1    1.365561 A    
C37   H2    1.110546 S    
C50   C51   1.525886 S    
C8    N2    1.365272 A    
C47   C48   1.526040 S    
C21   C25   1.403730 A    
O2    Cu2   1.917333 S    
O7    C4    1.281980 A    
C12   C18   1.411840 A    
C22   C30   1.400830 A    
C53   C54   1.527263 S    
O8    C3    1.279897 A    
O5    Cu1   1.945369 S    
C11   C13   1.415911 A    
C17   O15   1.389994 S    
O16   C46   1.414425 S    
C33   C34   1.397457 S    
C10   C14   1.410641 A    
C64   O27   1.222766 D    
C58   H51   1.117854 S    
C41   H11   1.111128 S    
C40   H9    1.115773 S    
C55   H43   1.110309 S    
O24   H58   1.013887 S    
C55   H44   1.115727 S    
C51   H35   1.111202 S    
C7    C9    1.410753 A    
