data_mof_unit_30732.cif
_audit_creation_date              2013-03-05T15:55:44-0500
_audit_creation_method            fapswitch 2.2
_symmetry_space_group_name_H-M    P1
_symmetry_Int_Tables_number       1
_space_group_crystal_system       triclinic
_cell_length_a                    8.429651
_cell_length_b                    16.713893
_cell_length_c                    23.102725
_cell_angle_alpha                 97.263013
_cell_angle_beta                  89.890974
_cell_angle_gamma                 93.684152
_cell_volume                      3222.14215284

loop_
_atom_site_label
_atom_site_type_symbol
_atom_site_description
_atom_site_fract_x
_atom_site_fract_y
_atom_site_fract_z
_atom_type_partial_charge
P1    P     P_3+3 0.070660 0.431690 0.369620 0.422863
O1    O     O_2   0.899090 0.455560 0.360740 -0.364256
O2    O     O_3   0.139470 0.456390 0.431790 -0.430934
O3    O     O_3   0.652060 0.602710 0.395680 -0.365526
O4    O     O_2   0.791396 0.547593 0.296764 -0.336189
O5    O     O_3   0.031822 0.326698 0.363855 -0.615559
O6    O     O_3   0.651221 0.676605 0.291239 -0.574951
C1    C     C_3   0.477590 0.747177 0.238014 -0.765853
H1    H     H_    0.567949 0.796276 0.230982 0.233391
H2    H     H_    0.485764 0.697709 0.201557 0.248074
P2    P     P_3+3 0.630590 0.685720 0.544880 0.543831
P3    P     P_3+3 0.089373 0.750343 0.428627 0.488372
O7    O     O_2   0.805680 0.697590 0.527730 -0.276805
O8    O     O_3   0.061950 0.644310 0.424380 -0.363676
O9    O     O_2   0.933576 0.788748 0.449821 -0.361690
O10   O     O_3   0.643897 0.709097 0.620997 -0.546571
O11   O     O_3   0.120293 0.771224 0.356771 -0.598404
C2    C     C_3   0.978805 0.759889 0.324042 0.862795
H3    H     H_    0.885117 0.724337 0.345136 0.129682
C3    C     C_3   0.919106 0.843004 0.317301 -0.907699
H4    H     H_    0.809405 0.836352 0.290258 0.253751
H5    H     H_    0.891726 0.875546 0.360715 0.254030
C4    C     C_3   0.223205 0.715752 0.617490 0.206177
H6    H     H_    0.336050 0.685874 0.609959 0.055028
H7    H     H_    0.160841 0.721235 0.576118 0.091428
C5    C     C_3   0.265272 0.800441 0.649026 -0.105023
H8    H     H_    0.298168 0.797003 0.695165 0.143675
H9    H     H_    0.370276 0.827387 0.627697 0.100301
Ba1   Ba    Ba6+2 0.848660 0.538140 0.472240 1.576613
C6    C     C_3   0.171380 0.285587 0.354041 0.248899
H10   H     H_    0.198191 0.258212 0.393686 0.155625
H11   H     H_    0.276726 0.324581 0.344451 0.082499
C7    C     C_3   0.145171 0.217660 0.303327 -0.381927
H12   H     H_    0.126776 0.244878 0.262555 0.184919
H13   H     H_    0.253627 0.183057 0.297302 0.195108
C8    C     C_3   0.657141 0.640008 0.648541 0.303345
H14   H     H_    0.780444 0.621391 0.643664 0.098668
H15   H     H_    0.573824 0.589316 0.630240 0.120869
C9    C     C_3   0.616410 0.660710 0.713145 -0.473227
H16   H     H_    0.518660 0.702728 0.717874 0.204513
H17   H     H_    0.571757 0.604994 0.731016 0.179529
P4    P     P_3+3 0.119040 0.568370 0.630390 0.462639
O12   O     O_2   0.290610 0.544470 0.639300 -0.400369
O13   O     O_3   0.050220 0.543670 0.568220 -0.433747
O14   O     O_3   0.537630 0.397360 0.604330 -0.378764
O15   O     O_3   0.121410 0.673168 0.652035 -0.529224
P5    P     P_3+3 0.098035 0.248250 0.574057 0.437161
O16   O     O_3   0.634180 0.402670 0.470930 -0.403465
O17   O     O_3   0.127750 0.355750 0.575620 -0.427877
O18   O     O_2   0.229556 0.210454 0.534749 -0.368659
O19   O     O_3   0.141155 0.219882 0.642352 -0.501239
Ba2   Ba    Ba6+2 0.341160 0.461930 0.527770 1.522180
P6    P     P_3+3 0.634605 0.583068 0.318451 0.451689
C10   C     C_3   0.507228 0.715694 0.296142 0.743182
H18   H     H_    0.401723 0.675400 0.304312 0.007247
H19   H     H_    0.357309 0.770600 0.237306 0.267087
O20   O     O_3   0.555510 0.597400 0.529070 -0.446529
C11   C     C_3   0.629912 0.322264 0.345387 0.325271
H20   H     H_    0.608916 0.386821 0.358759 0.128169
H21   H     H_    0.754819 0.310839 0.352634 0.141144
C12   C     C_3   0.593992 0.302068 0.280477 -0.961435
H22   H     H_    0.468933 0.313215 0.271010 0.251398
H23   H     H_    0.672528 0.340552 0.255483 0.234129
H24   H     H_    0.614417 0.237669 0.265908 0.274655
P7    P     P_3+3 0.560301 0.299550 0.451187 0.427004
O21   O     O_2   0.384010 0.302440 0.472310 -0.344134
O22   O     O_3   0.532834 0.271661 0.376091 -0.585954
H25   H     H_    0.011440 0.880002 0.296366 0.258187
C13   C     C_3   0.129884 0.287045 0.684783 0.342994
H26   H     H_    0.215418 0.336661 0.675504 0.179852
H27   H     H_    0.007616 0.308388 0.686518 0.049222
C14   C     C_3   0.171885 0.263603 0.744019 -0.667886
H28   H     H_    0.285592 0.233383 0.741633 0.262181
H29   H     H_    0.186132 0.318602 0.776366 0.227283
H30   H     H_    0.076405 0.221702 0.758359 0.272006
P8    P     P_3+3 0.559313 0.412454 0.680732 0.429302
C15   C     C_3   0.625583 0.263562 0.664598 0.400473
H31   H     H_    0.745061 0.289083 0.653454 0.025130
O23   O     O_2   0.406051 0.449538 0.705386 -0.420957
O24   O     O_3   0.548955 0.317482 0.705381 -0.508276
H32   H     H_    0.551769 0.248753 0.624340 0.125734
H33   H     H_    0.707961 0.142789 0.658464 0.232858
C16   C     C_3   0.647477 0.185739 0.690445 -0.823971
H34   H     H_    0.530097 0.157430 0.701187 0.268641
H35   H     H_    0.721399 0.198702 0.730700 0.275435
C17   C     C_R   0.357781 0.482660 0.322046 -0.526011
C18   C     C_R   0.098951 0.553788 0.939346 -0.021451
C19   C     C_R   0.057002 0.553298 0.879766 0.521136
O25   O     O_2   0.063965 0.616747 0.858507 -0.592648
N1    N     N_R   0.004724 0.482202 0.845822 -0.170382
C20   C     C_R   0.996179 0.410259 0.870324 0.577453
O26   O     O_2   0.941267 0.348799 0.841150 -0.553124
C21   C     C_R   0.048533 0.407424 0.929077 -0.248158
C22   C     C_R   0.095881 0.480524 0.964114 -0.028981
C23   C     C_R   0.142188 0.626559 0.974969 -0.122751
C24   C     C_R   0.179261 0.627263 0.033961 -0.093649
C25   C     C_R   0.178293 0.555045 0.059434 -0.032937
C26   C     C_R   0.138853 0.481021 0.024256 -0.030191
C27   C     C_R   0.050790 0.334190 0.954461 0.269682
C28   C     C_R   0.096058 0.334557 0.013548 0.264381
C29   C     C_R   0.142032 0.408113 0.049189 -0.267695
C30   C     C_R   0.192995 0.411216 0.108762 0.596270
N2    N     N_R   0.221175 0.484504 0.143936 -0.176868
C31   C     C_R   0.214456 0.555864 0.119480 0.533294
C32   C     C_2   0.796078 0.463120 0.770003 -0.162082
C33   C     C_3   0.736218 0.478151 0.710479 0.163408
C34   C     C_1   0.007557 0.514555 0.684594 0.352817
C35   C     C_2   0.059758 0.513007 0.739275 -0.205827
C36   C     C_2   0.950099 0.484083 0.785493 0.112229
C37   C     C_R   0.411855 0.521244 0.226914 -0.257823
C38   C     C_R   0.459144 0.520098 0.285200 0.203121
C39   C     C_R   0.198980 0.461576 0.307625 0.200659
C40   C     C_R   0.150725 0.457411 0.247662 0.130153
C41   C     C_R   0.260972 0.486935 0.206222 0.171986
O27   O     O_2   0.212608 0.348803 0.129353 -0.527108
O28   O     O_2   0.238567 0.620536 0.150151 -0.548143
C42   C     C_2   0.867777 0.480417 0.666809 -0.510836
H36   H     H_    0.209685 0.685021 0.059639 0.183561
H37   H     H_    0.492414 0.548763 0.197519 0.153098
H38   H     H_    0.145362 0.683798 0.957485 0.179392
H39   H     H_    0.180268 0.535253 0.751467 0.176629
H40   H     H_    0.711614 0.444830 0.802123 0.160305
H41   H     H_    0.401319 0.473134 0.364196 0.147196
H42   H     H_    0.831481 0.479862 0.621834 0.156167
C43   C     C_R   0.366990 0.737844 0.490127 -0.284446
C44   C     C_R   0.515680 0.762660 0.515472 0.159182
C45   C     C_R   0.561263 0.846429 0.526349 0.154640
C46   C     C_R   0.469248 0.903079 0.502393 0.068410
C47   C     C_R   0.322350 0.876017 0.474786 0.076227
C48   C     C_R   0.269982 0.793191 0.470074 0.209177
C49   C     C_R   0.614575 0.142805 0.485700 -0.303340
C50   C     C_R   0.660331 0.225563 0.490624 0.266310
C51   C     C_R   0.708096 0.089690 0.512608 0.192990
N3    N     N_2   0.518073 0.987450 0.504670 -0.032885
N4    N     N_2   0.664051 0.005235 0.510753 -0.014191
C52   C     C_R   0.793999 0.254561 0.523834 -0.226705
H43   H     H_    0.508928 0.120102 0.460765 0.174851
C53   C     C_R   0.898805 0.203467 0.544851 0.174379
C54   C     C_R   0.853535 0.120495 0.539996 -0.309451
H44   H     H_    0.929507 0.080205 0.558250 0.203376
N5    N     N_R   0.521024 0.783190 0.343301 0.209117
O29   O     O_R   0.432613 0.844232 0.343440 -0.419691
O30   O     O_R   0.614669 0.780415 0.387546 -0.423081
N6    N     N_R   0.132705 0.852023 0.647102 0.292653
O31   O     O_R   0.149168 0.917059 0.621551 -0.355151
O32   O     O_R   0.000846 0.836079 0.673897 -0.302502
N7    N     N_2   0.007992 0.163532 0.312492 -0.063236
H45   H     H_    0.899911 0.188885 0.311069 0.218500
C55   C     C_3   0.020782 0.112734 0.358421 -0.804761
H46   H     H_    0.009779 0.148867 0.401895 0.223152
H47   H     H_    0.135898 0.083594 0.355731 0.254566
H48   H     H_    0.923142 0.064455 0.353577 0.246544
N8    N     N_2   0.754958 0.697177 0.745793 -0.079052
H49   H     H_    0.799148 0.750397 0.731831 0.278095
C56   C     C_3   0.739491 0.703208 0.808493 -0.713367
H50   H     H_    0.852665 0.729644 0.829453 0.273497
H51   H     H_    0.714120 0.642262 0.822185 0.238577
H52   H     H_    0.642434 0.742791 0.823407 0.239063
N9    N     N_R   0.090164 0.259044 0.037103 0.288763
O33   O     O_R   0.979367 0.242838 0.073950 -0.312660
O34   O     O_R   0.182073 0.202804 0.016322 -0.285257
N10   N     N_R   0.008193 0.257941 0.920610 0.288361
O35   O     O_R   0.881641 0.215240 0.933583 -0.291784
O36   O     O_R   0.106798 0.226521 0.882135 -0.322856
N11   N     N_2   0.002599 0.416109 0.228518 -0.100667
H53   H     H_    0.948111 0.378211 0.255409 0.185015
C57   C     C_3   0.897706 0.452537 0.191054 -0.709446
H54   H     H_    0.774697 0.450105 0.208026 0.232550
H55   H     H_    0.893108 0.417425 0.147006 0.229448
H56   H     H_    0.935893 0.516655 0.187890 0.271495
N12   N     N_R   0.012016 0.714454 0.267367 0.240603
O37   O     O_R   0.984110 0.742469 0.218540 -0.368694
O38   O     O_R   0.071863 0.644443 0.265748 -0.389985
N13   N     N_2   0.234340 0.932446 0.448863 -0.097007
H57   H     H_    0.173757 0.910009 0.411093 0.230917
C58   C     C_3   0.140106 0.982981 0.488890 -0.790681
H58   H     H_    0.086897 0.028697 0.465321 0.228391
H59   H     H_    0.214575 0.015368 0.525158 0.281028
H60   H     H_    0.042979 0.945781 0.506896 0.296207
N14   N     N_R   0.685024 0.874695 0.567911 0.258636
O39   O     O_R   0.831554 0.858441 0.557218 -0.305822
O40   O     O_R   0.652936 0.923039 0.614530 -0.361684
N15   N     N_2   0.311862 0.655295 0.483580 -0.094547
H61   H     H_    0.288068 0.625737 0.519178 0.191573
C59   C     C_3   0.359934 0.607883 0.431303 -0.459274
H62   H     H_    0.435333 0.560532 0.441846 0.234880
H63   H     H_    0.404157 0.647463 0.399197 0.180978
H64   H     H_    0.262097 0.572825 0.409110 0.212920
N16   N     N_2   0.830329 0.337538 0.531988 -0.113527
H65   H     H_    0.854357 0.360580 0.574523 0.149844
C60   C     C_3   0.938210 0.362204 0.488608 -0.438331
H66   H     H_    0.990278 0.421768 0.505932 0.280460
H67   H     H_    0.876463 0.363328 0.447284 0.223568
H68   H     H_    0.034044 0.320352 0.477970 0.203404

loop_
_geom_bond_atom_site_label_1
_geom_bond_atom_site_label_2
_geom_bond_distance
_ccdc_geom_bond_type
N12   O37   1.302205 A    
N11   H53   1.029153 S    
O3    P6    1.777501 S    
C56   H51   1.112057 S    
C23   C24   1.397264 A    
P8    O23   1.545494 D    
C35   H39   1.084259 S    
C18   C19   1.420703 A    
C46   C47   1.415212 A    
C1    H19   1.110982 S    
C25   C26   1.412683 A    
C59   H62   1.097087 S    
C57   H55   1.108016 S    
C15   H31   1.110932 S    
P7    O21   1.565051 D    
N12   O38   1.299973 A    
C5    H8    1.111353 S    
C29   C30   1.436237 A    
P3    C48   1.854648 S    
C9    N8    1.449149 S    
O14   P8    1.759357 S    
C45   N14   1.435042 S    
O7    Ba1   2.852290 S    
C8    H14   1.105501 S    
N7    C55   1.448572 S    
C42   H42   1.082472 S    
C2    H3    1.107134 S    
N15   C59   1.431177 S    
P1    C39   1.891156 S    
C40   N11   1.430179 S    
C6    H10   1.104251 S    
O2    Ba2   2.785361 S    
O12   Ba2   2.810065 S    
C59   H63   1.103656 S    
N6    O32   1.300285 A    
C43   N15   1.416873 S    
C22   C26   1.435420 A    
C11   H21   1.098972 S    
C18   C22   1.414431 A    
C35   C36   1.515792 S    
C12   H23   1.105974 S    
P1    O1    1.545622 D    
P4    O15   1.758577 S    
C4    C5    1.528357 S    
C13   H27   1.111143 S    
N13   H57   1.028200 S    
C32   C36   1.359453 D    
C30   O27   1.220539 D    
C7    N7    1.453811 S    
C31   O28   1.220830 D    
C43   C48   1.395034 A    
C58   H60   1.108444 S    
N7    H45   1.031501 S    
C1    H1    1.110377 S    
P7    O22   1.750453 S    
C18   C23   1.407329 A    
P3    O11   1.754618 S    
C4    H6    1.105871 S    
N9    O34   1.300912 A    
O16   P7    1.797452 S    
N8    C56   1.445508 S    
N2    C31   1.387148 Am   
P4    C34   1.852579 S    
C21   C27   1.423746 A    
O3    Ba1   2.786284 S    
P6    C38   1.866896 S    
C11   C12   1.521519 S    
C58   H59   1.110309 S    
N11   C57   1.451550 S    
C4    O15   1.393688 S    
C56   H52   1.112049 S    
C13   H26   1.105009 S    
P4    O13   1.546735 S    
C14   H30   1.110500 S    
C5    N6    1.458677 S    
C39   C40   1.436496 A    
N14   O40   1.301148 A    
C7    H12   1.111850 S    
C57   H56   1.110319 S    
N10   O36   1.300800 A    
C56   H50   1.110561 S    
Ba1   O16   2.802372 S    
C30   N2    1.388837 Am   
N2    C41   1.473146 S    
C14   H29   1.109201 S    
Ba2   O20   2.801741 S    
C55   H48   1.110530 S    
C1    C10   1.529571 S    
C57   H54   1.108006 S    
N6    O31   1.300706 A    
C59   H64   1.072351 S    
P5    O19   1.749249 S    
O14   Ba2   2.785603 S    
C11   H20   1.109530 S    
C2    N12   1.464239 S    
C15   C16   1.519918 S    
C60   H66   1.089832 S    
P1    O2    1.546704 S    
N5    O30   1.299974 A    
C13   C14   1.518873 S    
C17   C39   1.392308 A    
N15   H61   1.024697 S    
C60   H67   1.091052 S    
C49   H43   1.082682 S    
C46   N3    1.437879 S    
C20   C21   1.435489 A    
C27   N10   1.433498 S    
P2    O10   1.754708 S    
C11   O22   1.395960 S    
N9    O33   1.301200 A    
P3    O9    1.550160 D    
C15   H32   1.112486 S    
C50   C52   1.390060 A    
O17   Ba2   2.772371 S    
C24   C25   1.407715 A    
P2    C44   1.853941 S    
P1    Ba1   3.410684 S    
O11   C2    1.402967 S    
C37   C38   1.407861 A    
C21   C22   1.412723 A    
C3    H4    1.108723 S    
P2    Ba1   3.435707 S    
C40   C41   1.442523 A    
C52   C53   1.396069 A    
C58   H58   1.109806 S    
C16   H35   1.110886 S    
C19   N1    1.385497 Am   
C51   C54   1.417031 A    
O1    Ba1   2.809549 S    
C33   C42   1.499723 S    
C43   C44   1.400169 A    
C47   N13   1.425860 S    
C16   H34   1.110447 S    
P4    O12   1.545906 D    
C3    H5    1.110117 S    
C34   C35   1.342381 D    
C45   C46   1.425816 A    
C17   H41   1.075326 S    
C20   O26   1.220160 D    
P7    C50   1.868716 S    
Ba2   O21   2.852451 S    
N14   O39   1.298282 A    
O4    P6    1.540295 D    
N10   O35   1.300870 A    
C15   O24   1.405341 S    
C24   H36   1.083325 S    
N16   H65   1.024726 S    
C37   C41   1.419269 A    
C10   H18   1.111161 S    
P8    C33   1.872031 S    
C6    C7    1.530651 S    
O5    C6    1.403930 S    
C5    H9    1.110118 S    
C3    H25   1.111064 S    
C8    C9    1.532319 S    
P8    O24   1.749892 S    
Ba1   O20   2.963915 S    
C14   H28   1.109904 S    
C49   C51   1.423868 A    
C37   H37   1.082124 S    
C54   H44   1.081517 S    
N3    N4    1.251177 D    
C23   H38   1.083269 S    
P5    O17   1.793909 S    
C26   C29   1.413937 A    
O19   C13   1.401852 S    
C32   C33   1.521557 S    
P5    O18   1.547275 D    
O6    C10   1.412685 S    
C27   C28   1.417249 A    
C52   N16   1.390050 S    
C55   H47   1.111573 S    
C17   C38   1.381838 A    
C47   C48   1.416563 A    
C60   H68   1.109382 S    
Ba1   O13   2.784710 S    
P2    O20   1.567653 S    
N5    O29   1.301250 A    
O10   C8    1.397660 S    
C12   H24   1.110616 S    
C6    H11   1.106268 S    
P2    O7    1.534530 D    
C28   N9    1.434232 S    
O13   Ba2   2.975519 S    
N1    C20   1.390089 Am   
C44   C45   1.418928 A    
P5    C53   1.884441 S    
C8    H15   1.106336 S    
C28   C29   1.422567 A    
C7    H13   1.112121 S    
C32   H40   1.085554 S    
C2    C3    1.533674 S    
C4    H7    1.108413 S    
C12   H22   1.109196 S    
N13   C58   1.444124 S    
C25   C31   1.419082 A    
C53   C54   1.405069 A    
C9    H16   1.112979 S    
P3    O8    1.762766 S    
O16   Ba2   2.963071 S    
C10   N5    1.464935 S    
C19   O25   1.221825 D    
C9    H17   1.109449 S    
C1    H2    1.108494 S    
H33   C16   1.110258 S    
P1    O5    1.752592 S    
C51   N4    1.431652 S    
O6    P6    1.754712 S    
O2    Ba1   2.974664 S    
O8    Ba1   2.771758 S    
N1    C36   1.473426 S    
N16   C60   1.433247 S    
N8    H49   1.031285 S    
C55   H46   1.111556 S    
C34   C42   1.318687 D    
C49   C50   1.402429 A    
P4    Ba2   3.411194 S    
Ba1   Ba2   4.649424 S    
