data_mof_unit_65285.cif
_audit_creation_date              2012-12-10T20:43:47-0500
_audit_creation_method            fapswitch 2.2
_symmetry_space_group_name_H-M    P1
_symmetry_Int_Tables_number       1
_space_group_crystal_system       triclinic
_cell_length_a                    10.831657
_cell_length_b                    19.185854
_cell_length_c                    19.196654
_cell_angle_alpha                 94.772714
_cell_angle_beta                  92.03854
_cell_angle_gamma                 96.714289
_cell_volume                      3944.10817177

loop_
_atom_site_label
_atom_site_type_symbol
_atom_type_description
_atom_site_fract_x
_atom_site_fract_y
_atom_site_fract_z
_atom_type_partial_charge
C1    C     C_R   0.514557 0.690078 0.508985 0.545161
C2    C     C_R   0.523896 0.767095 0.514859 0.011498
C3    C     C_R   0.639118 0.809868 0.528944 0.187210
C4    C     C_R   0.488356 0.309533 0.490642 0.537868
C5    C     C_R   0.641991 0.883270 0.532616 -0.075649
C6    C     C_R   0.481668 0.507883 0.765704 0.027330
C7    C     C_R   0.560261 0.469318 0.802754 -0.141495
C8    C     C_R   0.555739 0.469038 0.875008 -0.069384
C9    C     C_R   0.472090 0.507676 0.912059 0.246179
C10   C     C_R   0.393151 0.545734 0.874985 -0.091010
C11   C     C_R   0.397932 0.546145 0.802374 -0.139483
C12   C     C_R   0.518550 0.201307 0.547044 -0.184656
C13   C     C_R   0.442029 0.438128 0.118200 0.228288
C14   C     C_R   0.434874 0.442104 0.191098 -0.123930
C15   C     C_R   0.534823 0.482651 0.088335 0.219863
C16   C     C_R   0.513000 0.492807 0.310774 0.519395
C17   C     C_R   0.519903 0.489139 0.234173 -0.008549
C18   C     C_R   0.612943 0.532169 0.203619 -0.149839
C19   C     C_R   0.620587 0.528516 0.131264 -0.136837
C20   C     C_R   0.487043 0.506798 0.689111 0.516076
C21   C     C_R   0.835264 0.515356 0.515264 0.525703
C22   C     C_R   0.163827 0.485027 0.485031 0.507989
C23   C     C_R   0.513164 0.128557 0.547397 -0.095028
C24   C     C_2   0.028936 0.479100 0.479227 -0.116320
C25   C     C_2   0.968579 0.521251 0.520942 -0.086232
C26   C     C_R   0.483094 0.231968 0.486555 0.011708
C27   C     C_R   0.471137 0.084552 0.487066 0.178789
C28   C     C_R   0.434493 0.114295 0.426952 -0.065064
C29   C     C_R   0.442762 0.187492 0.424880 0.230980
C30   C     C_R   0.418734 0.871410 0.509904 -0.085880
C31   C     C_R   0.414370 0.798469 0.506904 -0.178808
C32   C     C_R   0.533289 0.914319 0.521741 0.181463
H1    H     H_    0.978433 0.440227 0.440832 0.122574
H2    H     H_    0.327993 0.575395 0.902582 0.138621
H3    H     H_    0.617562 0.438330 0.901499 0.162092
H4    H     H_    0.692984 0.561939 0.108364 0.144186
H5    H     H_    0.016795 0.560582 0.559610 0.148890
H6    H     H_    0.325377 0.766285 0.497088 0.153337
H7    H     H_    0.332785 0.894286 0.503135 0.170353
H8    H     H_    0.380213 0.176734 0.235324 0.393652
H9    H     H_    0.720541 0.726819 0.637952 0.332725
H10   H     H_    0.729444 0.916789 0.542849 0.174471
H11   H     H_    0.335909 0.576091 0.775012 0.148861
H12   H     H_    0.680280 0.568501 0.235603 0.163027
H13   H     H_    0.625538 0.439104 0.775935 0.151158
H14   H     H_    0.402421 0.079638 0.380854 0.189153
H15   H     H_    0.540003 0.106684 0.595098 0.161967
H16   H     H_    0.549376 0.233733 0.594800 0.156361
H17   H     H_    0.363215 0.408448 0.214264 0.192372
H18   H     H_    0.192835 0.446652 0.065180 0.335783
N1    N     N_2   0.462891 0.010140 0.485061 -0.223814
N2    N     N_2   0.542227 0.988781 0.524093 -0.224990
N3    N     N_2   0.464005 0.509214 0.985936 -0.184779
N4    N     N_2   0.546471 0.480398 0.015361 -0.208986
O1    O     O_3   0.500000 0.500000 0.500000 -0.465730
O2    O     O_R   0.783160 0.551820 0.473170 -0.491228
O3    O     O_R   0.222430 0.530340 0.530340 -0.544347
O4    O     O_R   0.771990 0.472690 0.551320 -0.532918
O5    O     O_R   0.222420 0.445150 0.445160 -0.522142
O6    O     O_2   0.404177 0.339278 0.010141 -0.197451
O7    O     O_2   0.269839 0.323734 0.108970 -0.247340
O8    O     O_3   0.229998 0.420170 0.026378 -0.471502
O9    O     O_2   0.285206 0.248381 0.345559 -0.236394
O10   O     O_2   0.508360 0.277126 0.328467 -0.261070
O11   O     O_3   0.400577 0.154463 0.278354 -0.511192
O12   O     O_R   0.435070 0.449940 0.339290 -0.513687
O13   O     O_2   0.825887 0.746724 0.475517 -0.213338
O14   O     O_2   0.877542 0.828914 0.579534 -0.272519
O15   O     O_3   0.756449 0.706570 0.595186 -0.507378
O16   O     O_R   0.419380 0.543640 0.654290 -0.540205
O17   O     O_R   0.586230 0.658380 0.469080 -0.472383
O18   O     O_R   0.559310 0.348040 0.537340 -0.556023
O19   O     O_R   0.435110 0.654980 0.544320 -0.546078
O20   O     O_R   0.419350 0.338590 0.449260 -0.461582
O21   O     O_R   0.586210 0.538520 0.349230 -0.548796
O22   O     O_R   0.559330 0.467910 0.657200 -0.544053
S1    S     S_3+6 0.335653 0.376972 0.065539 0.071764
S2    S     S_3+6 0.408453 0.219671 0.343200 0.050274
S3    S     S_3+6 0.779965 0.773785 0.544381 0.038541
Zn1   Zn    Zn3+2 0.396020 0.434560 0.434560 1.026170
Zn2   Zn    Zn3+2 0.611960 0.561120 0.448760 1.022935
Zn3   Zn    Zn3+2 0.595990 0.448060 0.560420 0.965387
Zn4   Zn    Zn3+2 0.396040 0.556260 0.556260 0.957934

loop_
_geom_bond_atom_site_label_1
_geom_bond_atom_site_label_2
_ccdc_geom_bond_type
C8    C9    A    
C5    H10   S    
C16   O21   A    
O8    S1    S    
C12   H16   S    
C3    S3    S    
C22   O3    A    
C7    C8    A    
N3    N4    D    
C15   C19   A    
C12   C23   A    
C28   H14   S    
C1    O17   A    
C7    H13   S    
C28   C29   A    
C18   C19   A    
C19   H4    S    
O4    Zn3   S    
C30   C31   A    
C14   H17   S    
C20   O22   A    
C1    C2    S    
C32   N2    S    
C25   H5    S    
C29   S2    S    
O7    S1    D    
C16   C17   S    
O3    Zn4   S    
C11   H11   S    
C23   C27   A    
O1    Zn2   S    
C9    C10   A    
C4    O20   A    
C6    C11   A    
C5    C32   A    
O14   S3    D    
O20   Zn1   S    
C13   C14   A    
C14   C17   A    
C20   O16   A    
C27   N1    S    
C13   S1    S    
O6    S1    D    
C23   H15   S    
N1    N2    D    
C15   N4    S    
O2    Zn2   S    
O13   S3    D    
C24   C25   D    
O22   Zn3   S    
C22   O5    A    
O21   Zn2   S    
C12   C26   A    
C2    C31   A    
C8    H3    S    
C18   H12   S    
C17   C18   A    
C10   H2    S    
O1    Zn3   S    
O16   Zn4   S    
H8    O11   S    
C13   C15   A    
H18   O8    S    
C22   C24   S    
O15   S3    S    
C9    N3    S    
O1    Zn4   S    
C4    O18   A    
O12   Zn1   S    
H9    O15   S    
C21   C25   S    
O11   S2    S    
O10   S2    D    
C3    C5    A    
O5    Zn1   S    
C21   O2    A    
C4    C26   S    
C6    C7    A    
C6    C20   S    
C24   H1    S    
C31   H6    S    
C1    O19   A    
C2    C3    A    
C21   O4    A    
C30   C32   A    
O1    Zn1   S    
C30   H7    S    
C10   C11   A    
C16   O12   A    
C26   C29   A    
C27   C28   A    
O19   Zn4   S    
O18   Zn3   S    
O17   Zn2   S    
O9    S2    D    
