data_mof_unit_40015.cif
_audit_creation_date              2012-12-10T18:29:37-0500
_audit_creation_method            fapswitch 2.2
_symmetry_space_group_name_H-M    P1
_symmetry_Int_Tables_number       1
_space_group_crystal_system       triclinic
_cell_length_a                    11.556723
_cell_length_b                    15.035295
_cell_length_c                    14.939675
_cell_angle_alpha                 82.908092
_cell_angle_beta                  89.865343
_cell_angle_gamma                 104.091397
_cell_volume                      2497.10536249

loop_
_atom_site_label
_atom_site_type_symbol
_atom_type_description
_atom_site_fract_x
_atom_site_fract_y
_atom_site_fract_z
_atom_type_partial_charge
C1    C     C_R   0.487299 0.442668 0.663883 0.853377
C2    C     C_R   0.519650 0.557430 0.336056 0.850136
C3    C     C_R   0.568414 0.350212 0.934570 0.100623
C4    C     C_R   0.664411 0.648789 0.066600 0.100481
C5    C     C_R   0.657841 0.512154 0.954436 -0.043780
C6    C     C_R   0.646663 0.486077 0.047383 -0.045685
C7    C     C_R   0.641448 0.392456 0.081028 0.125633
C8    C     C_R   0.716102 0.605244 0.921813 0.132162
C9    C     C_R   0.596384 0.322587 0.024985 0.127327
C10   C     C_R   0.714727 0.675602 0.977321 0.133473
C11   C     C_R   0.672913 0.840680 0.643773 -0.329928
C12   C     C_R   0.334035 0.160967 0.351945 -0.329058
C13   C     C_R   0.644351 0.752384 0.618806 0.019919
C14   C     C_R   0.359517 0.248503 0.378616 0.010847
C15   C     C_R   0.513964 0.794574 0.507999 -0.059220
C16   C     C_R   0.485999 0.205474 0.492200 -0.061247
C17   C     C_R   0.539912 0.886053 0.529405 -0.004325
C18   C     C_R   0.464205 0.115055 0.468291 -0.004641
C19   C     C_R   0.620340 0.907756 0.599681 0.185719
C20   C     C_R   0.386293 0.093935 0.396406 0.186438
C21   C     C_R   0.488827 0.955734 0.484368 0.081015
C22   C     C_R   0.516785 0.045800 0.512454 0.080355
C23   C     C_R   0.718060 0.500834 0.500127 0.898790
C24   C     C_R   0.281938 0.499168 0.499865 0.903973
C25   C     C_R   0.596582 0.063677 0.583386 -0.237333
C26   C     C_R   0.411510 0.938499 0.411887 -0.237439
C27   C     C_R   0.647599 0.995948 0.625616 -0.209573
C28   C     C_R   0.361460 0.006430 0.368995 -0.211147
C29   C     C_1   0.839041 0.502086 0.500448 -0.192946
C30   C     C_1   0.160932 0.497912 0.499553 -0.195712
C31   C     C_1   0.940938 0.501073 0.500240 -0.000053
C32   C     C_1   0.059026 0.498922 0.499766 -0.000353
C33   C     C_R   0.505576 0.409804 0.758384 -0.057455
C34   C     C_R   0.557501 0.590652 0.241301 -0.059451
C35   C     C_R   0.508245 0.286037 0.878078 -0.193872
C36   C     C_R   0.645827 0.713751 0.122725 -0.191962
C37   C     C_R   0.479351 0.315538 0.790628 -0.201547
C38   C     C_R   0.595458 0.684901 0.209695 -0.196465
C39   C     C_R   0.562648 0.473825 0.814052 -0.252429
C40   C     C_R   0.570541 0.526170 0.185027 -0.252088
C41   C     C_R   0.601449 0.445556 0.899290 0.057153
C42   C     C_R   0.631800 0.553420 0.101395 0.055155
H1    H     H_    0.622521 0.129713 0.608047 0.139714
H2    H     H_    0.388125 0.873183 0.385654 0.137952
H3    H     H_    0.533162 0.453458 0.207159 0.161684
H4    H     H_    0.576317 0.546789 0.790683 0.159472
H5    H     H_    0.586593 0.736410 0.252203 0.153846
H6    H     H_    0.435858 0.264451 0.748416 0.155009
H7    H     H_    0.481573 0.212677 0.900093 0.148333
H8    H     H_    0.669654 0.787239 0.101112 0.147748
H9    H     H_    0.708713 0.012747 0.679480 0.142533
H10   H     H_    0.302700 0.990235 0.313641 0.142552
H11   H     H_    0.543906 0.228780 0.545238 0.128510
H12   H     H_    0.452607 0.770442 0.457213 0.126942
H13   H     H_    0.320774 0.301376 0.344208 0.135120
H14   H     H_    0.684057 0.699630 0.652024 0.123139
H15   H     H_    0.735299 0.856347 0.697037 0.149702
H16   H     H_    0.274591 0.145937 0.296796 0.146594
N1    N     N_R   0.566020 0.731700 0.552730 -0.094379
N2    N     N_R   0.433980 0.268300 0.447270 -0.096365
O1    O     O_R   0.466720 0.383110 0.605620 -0.611026
O2    O     O_R   0.533280 0.616890 0.394380 -0.610815
O3    O     O_R   0.509090 0.531900 0.639510 -0.616088
O4    O     O_R   0.490910 0.468100 0.360490 -0.620605
O5    O     O_R   0.644370 0.425610 0.483050 -0.608492
O6    O     O_R   0.355630 0.574390 0.516950 -0.605156
O7    O     O_R   0.686740 0.574390 0.516930 -0.609705
O8    O     O_R   0.313260 0.425610 0.483070 -0.606650
Zn1   Zn    Zn3+2 0.471710 0.400660 0.477370 0.934029
Zn2   Zn    Zn3+2 0.528290 0.599340 0.522630 0.938333
C43   C     C_3   0.567098 0.220685 0.064193 -0.415411
C44   C     C_3   0.437682 0.188221 0.099572 -0.887193
H17   H     H_    0.418401 0.114182 0.128229 0.250872
H18   H     H_    0.422488 0.229116 0.153574 0.259961
H19   H     H_    0.375169 0.196194 0.044592 0.260576
H20   H     H_    0.584997 0.177046 0.013724 0.191762
H21   H     H_    0.624471 0.206339 0.120452 0.223949
C45   C     C_3   0.755542 0.777463 0.938762 -0.427654
C46   C     C_3   0.650325 0.813618 0.901630 -0.887409
H22   H     H_    0.609070 0.773787 0.847046 0.264356
H23   H     H_    0.581560 0.807491 0.955525 0.263760
H24   H     H_    0.681993 0.887544 0.873348 0.247089
H25   H     H_    0.800992 0.819719 0.990178 0.194589
H26   H     H_    0.823800 0.790374 0.883677 0.219368
C47   C     C_3   0.701328 0.370584 0.169235 -0.408823
C48   C     C_3   0.821722 0.349566 0.151191 -0.871802
H27   H     H_    0.813310 0.292197 0.109744 0.251503
H28   H     H_    0.883971 0.411994 0.115010 0.262862
H29   H     H_    0.860946 0.330280 0.216335 0.253657
H30   H     H_    0.722598 0.430109 0.208394 0.221831
H31   H     H_    0.641793 0.312982 0.213826 0.211790
C49   C     C_3   0.795872 0.625342 0.836574 -0.426239
C50   C     C_3   0.927629 0.642441 0.859923 -0.862205
H32   H     H_    0.954813 0.700019 0.901205 0.251701
H33   H     H_    0.944730 0.579001 0.898292 0.263357
H34   H     H_    0.983796 0.659727 0.796782 0.252793
H35   H     H_    0.779392 0.566102 0.797011 0.218632
H36   H     H_    0.779089 0.684565 0.791101 0.195529

loop_
_geom_bond_atom_site_label_1
_geom_bond_atom_site_label_2
_ccdc_geom_bond_type
C21   C26   A    
C4    C36   A    
C50   H32   S    
C28   H10   S    
C25   H1    S    
C10   C45   S    
C49   H36   S    
C39   C41   A    
O6    Zn2   S    
C47   C48   S    
C11   C19   A    
C33   C39   A    
C34   C40   A    
C5    C6    A    
C23   C29   S    
C35   C37   A    
C43   H20   S    
C48   H28   S    
O2    Zn2   S    
C7    C9    A    
C16   N2    A    
C23   O7    A    
C16   H11   S    
C45   H25   S    
C45   C46   S    
C27   H9    S    
O8    Zn1   S    
C22   C25   A    
C35   H7    S    
C8    C49   S    
C19   C27   A    
C24   O6    A    
C13   H14   S    
C12   H16   S    
C2    C34   S    
C40   C42   A    
C14   H13   S    
C50   H33   S    
C34   C38   A    
C21   C22   A    
C44   H19   S    
C1    O3    A    
C2    O4    A    
C49   H35   S    
C24   C30   S    
C47   H31   S    
C40   H3    S    
C26   H2    S    
C15   H12   S    
C44   H18   S    
C46   H23   S    
C24   O8    A    
C48   H27   S    
C20   C28   A    
C33   C37   A    
C3    C9    A    
C5    C8    A    
C31   C32   S    
O3    Zn2   S    
C3    C35   A    
C12   C20   A    
O4    Zn1   S    
C37   H6    S    
C38   H5    S    
C39   H4    S    
C16   C18   A    
C12   C14   A    
C50   H34   S    
C4    C10   A    
C43   H21   S    
C36   H8    S    
O1    Zn1   S    
C15   C17   A    
C5    C41   A    
C3    C41   A    
C18   C22   A    
C15   N1    A    
C9    C43   S    
C44   H17   S    
C48   H29   S    
C1    O1    A    
C46   H24   S    
C47   H30   S    
C6    C7    A    
C13   N1    A    
C25   C27   A    
C14   N2    A    
C26   C28   A    
O7    Zn2   S    
C23   O5    A    
C36   C38   A    
C43   C44   S    
C29   C31   T    
C30   C32   T    
C11   C13   A    
C7    C47   S    
C4    C42   A    
N2    Zn1   S    
O5    Zn1   S    
C49   C50   S    
C17   C19   A    
C18   C20   A    
C17   C21   A    
C1    C33   S    
N1    Zn2   S    
C46   H22   S    
C45   H26   S    
C8    C10   A    
C6    C42   A    
C11   H15   S    
C2    O2    A    
