data_mof_unit_40781.cif
_audit_creation_date              2012-12-11T14:57:54-0500
_audit_creation_method            fapswitch 2.2
_symmetry_space_group_name_H-M    P1
_symmetry_Int_Tables_number       1
_space_group_crystal_system       triclinic
_cell_length_a                    6.936468
_cell_length_b                    16.626981
_cell_length_c                    17.239182
_cell_angle_alpha                 100.341795
_cell_angle_beta                  91.085816
_cell_angle_gamma                 89.380215
_cell_volume                      1955.53130603

loop_
_atom_site_label
_atom_site_type_symbol
_atom_type_description
_atom_site_fract_x
_atom_site_fract_y
_atom_site_fract_z
_atom_type_partial_charge
O1    O     O_R   0.506180 0.438940 0.579430 -0.524977
O2    O     O_R   0.170520 0.406230 0.413590 -0.540687
O3    O     O_R   0.005180 0.561060 0.420570 -0.542021
C1    C     C_R   0.340615 0.381773 0.386886 0.675514
O4    O     O_R   0.176140 0.429310 0.578370 -0.526702
O5    O     O_R   0.010830 0.584300 0.586530 -0.535141
C2    C     C_R   0.346960 0.410113 0.601694 0.708809
O6    O     O_R   0.500520 0.415700 0.413470 -0.538531
O7    O     O_3   0.340830 0.550820 0.502480 -0.376081
V1    V     V_3+5 0.064040 0.490570 0.499540 1.449202
O8    O     O_R   0.681400 0.593770 0.586410 -0.536260
C3    C     C_R   0.851195 0.618669 0.613513 0.737645
O9    O     O_R   0.675790 0.570690 0.421630 -0.550787
C4    C     C_R   0.841321 0.583437 0.392697 0.693414
V2    V     V_3+5 0.564650 0.509430 0.500460 1.438388
O10   O     O_3   0.837730 0.449180 0.497520 -0.352455
C5    C     C_R   0.926391 0.852257 0.159129 -0.072938
C6    C     C_R   0.836858 0.633760 0.329615 -0.052032
C7    C     C_R   0.653325 0.682922 0.225277 -0.195313
C8    C     C_R   0.671870 0.631802 0.280913 -0.166059
C9    C     C_R   0.984688 0.688489 0.321474 -0.245322
C10   C     C_R   0.964591 0.742291 0.267017 0.125787
C11   C     C_R   0.799342 0.738784 0.216656 0.148210
C12   C     C_R   0.784480 0.790892 0.159247 0.080579
C13   C     C_R   0.085584 0.855389 0.211508 -0.211413
C14   C     C_R   0.106367 0.800424 0.263359 -0.201556
H1    H     H_    0.197237 0.900548 0.211835 0.138078
H2    H     H_    0.520631 0.679734 0.191015 0.137486
H3    H     H_    0.232850 0.804363 0.301721 0.129265
H4    H     H_    0.554871 0.590748 0.286465 0.128375
H5    H     H_    0.111193 0.691725 0.359799 0.124271
H6    H     H_    0.039552 0.624832 0.971683 0.122046
C15   C     C_R   0.825133 0.917142 0.735061 -0.248442
C16   C     C_R   0.774151 0.940011 0.664203 -0.034011
C17   C     C_R   0.762361 0.880955 0.595484 0.182932
C18   C     C_R   0.817694 0.798728 0.598388 0.131918
C19   C     C_R   0.845814 0.772014 0.673231 0.023865
C20   C     C_R   0.855673 0.834470 0.741820 0.029115
C21   C     C_R   0.866236 0.687205 0.682732 -0.178288
C22   C     C_R   0.906634 0.667983 0.759954 0.024047
C23   C     C_R   0.930762 0.733463 0.825614 0.063018
C24   C     C_R   0.902222 0.815409 0.816568 -0.143112
C25   C     C_R   0.924421 0.585843 0.776063 -0.048540
C26   C     C_R   0.974196 0.572163 0.851709 -0.151905
C27   C     C_R   0.002407 0.636587 0.913412 -0.132560
C28   C     C_R   0.979036 0.716049 0.901118 -0.140850
H7    H     H_    0.838753 0.966018 0.785582 0.135306
H8    H     H_    0.989092 0.510434 0.863551 0.122231
H9    H     H_    0.998952 0.763761 0.952172 0.097437
C29   C     C_R   0.465310 0.217850 0.399481 -0.145318
C30   C     C_R   0.528640 0.140136 0.408172 -0.118170
C31   C     C_R   0.548789 0.079061 0.342348 -0.125115
C32   C     C_R   0.507959 0.095489 0.267261 -0.145761
C33   C     C_R   0.445834 0.174275 0.256174 0.078943
C34   C     C_R   0.421291 0.236326 0.324134 0.069303
C35   C     C_R   0.405538 0.190987 0.179248 -0.165095
C36   C     C_R   0.340822 0.272113 0.171220 -0.011789
C37   C     C_R   0.333085 0.334746 0.239727 0.029050
C38   C     C_R   0.357707 0.315642 0.316084 -0.148484
C39   C     C_R   0.283742 0.294913 0.097911 -0.108135
C40   C     C_R   0.270711 0.378200 0.089816 0.175322
C41   C     C_R   0.278740 0.439457 0.157610 0.204251
C42   C     C_R   0.301671 0.416877 0.231252 -0.190737
H10   H     H_    0.452966 0.263479 0.452440 0.100425
H11   H     H_    0.562124 0.127242 0.466330 0.123997
H12   H     H_    0.596882 0.018585 0.349439 0.119583
H13   H     H_    0.525858 0.045449 0.218323 0.113104
H14   H     H_    0.299223 0.465305 0.282369 0.116060
C43   C     C_R   0.399996 0.131314 0.829477 -0.076196
C44   C     C_R   0.362542 0.354752 0.660517 -0.047822
C45   C     C_R   0.486861 0.338086 0.788922 -0.166966
C46   C     C_R   0.456286 0.385818 0.731739 -0.171824
C47   C     C_R   0.293028 0.272498 0.646408 0.098098
C48   C     C_R   0.332690 0.220747 0.704240 0.133598
C49   C     C_R   0.427536 0.256677 0.776508 0.093426
C50   C     C_R   0.462745 0.211566 0.837119 -0.193646
C51   C     C_R   0.310284 0.094300 0.759439 -0.154044
C52   C     C_R   0.284385 0.135220 0.695184 0.206342
H15   H     H_    0.533233 0.239904 0.891776 0.111941
H16   H     H_    0.267280 0.030958 0.754048 0.110758
H17   H     H_    0.558954 0.365265 0.843554 0.122680
H18   H     H_    0.504037 0.448707 0.743827 0.130230
O11   O     O_R   0.265840 0.084300 0.086750 -0.529546
O12   O     O_R   0.589750 0.070740 0.921690 -0.540610
O13   O     O_R   0.755020 0.915730 0.913400 -0.541247
C53   C     C_R   0.418770 0.085531 0.895021 0.720375
O14   O     O_R   0.595830 0.093740 0.086480 -0.536555
O15   O     O_R   0.761150 0.938890 0.079360 -0.538087
C54   C     C_R   0.424416 0.122023 0.109869 0.692456
O16   O     O_R   0.259710 0.061140 0.920790 -0.522304
O17   O     O_3   0.425260 0.949200 0.997610 -0.374658
V3    V     V_3+5 0.702060 0.009430 0.000450 1.449461
O18   O     O_R   0.090530 0.929220 0.078150 -0.547106
C55   C     C_R   0.924048 0.910185 0.102109 0.692998
O19   O     O_R   0.084440 0.906220 0.913360 -0.542871
C56   C     C_R   0.914889 0.882382 0.886383 0.682228
V4    V     V_3+5 0.201450 0.990520 0.999290 1.451009
O20   O     O_3   0.928380 0.050800 0.002390 -0.345898
C57   C     C_3   0.627690 0.776035 0.095815 -0.774891
H19   H     H_    0.611023 0.709484 0.073745 0.195307
H20   H     H_    0.488844 0.802320 0.119969 0.213530
H21   H     H_    0.662548 0.801040 0.042518 0.214665
C58   C     C_3   0.693796 0.906086 0.518960 -0.802739
H22   H     H_    0.598984 0.961015 0.529430 0.206707
H23   H     H_    0.819616 0.919412 0.484585 0.211757
H24   H     H_    0.605595 0.857028 0.483324 0.216150
C59   C     C_3   0.861857 0.744495 0.521176 -0.784413
H25   H     H_    0.892324 0.778941 0.473546 0.210908
H26   H     H_    0.996869 0.709521 0.525914 0.202988
H27   H     H_    0.734901 0.705941 0.502790 0.213189
C60   C     C_1   0.886531 0.511916 0.720191 0.246339
N1    N     N_1   0.856663 0.451552 0.676856 -0.303434
C61   C     C_3   0.249243 0.528779 0.153575 -0.801538
H28   H     H_    0.108756 0.537731 0.124197 0.220936
H29   H     H_    0.247189 0.567858 0.212980 0.202548
H30   H     H_    0.368035 0.550168 0.120311 0.205730
C62   C     C_1   0.186406 0.238851 0.036818 0.275711
N2    N     N_1   0.098950 0.198379 0.987323 -0.314239
C63   C     C_3   0.235910 0.399799 0.008596 -0.785667
H31   H     H_    0.256341 0.465333 0.006663 0.211236
H32   H     H_    0.339256 0.365353 0.966417 0.201138
H33   H     H_    0.086712 0.383159 0.987774 0.214809
C64   C     C_3   0.226583 0.081006 0.618256 -0.767320
H34   H     H_    0.217064 0.015654 0.623998 0.199217
H35   H     H_    0.082219 0.097104 0.597429 0.228865
H36   H     H_    0.338532 0.082918 0.573594 0.205874
C65   C     C_3   0.169349 0.243628 0.573384 -0.773381
H37   H     H_    0.141449 0.289714 0.535959 0.208570
H38   H     H_    0.240823 0.193458 0.533399 0.202991
H39   H     H_    0.025219 0.225915 0.591100 0.232073
C66   C     C_1   0.746960 0.026176 0.663119 0.298346
N3    N     N_1   0.726659 0.095189 0.662302 -0.370574

loop_
_geom_bond_atom_site_label_1
_geom_bond_atom_site_label_2
_ccdc_geom_bond_type
C26   H8    S    
O18   C55   A    
C34   C38   A    
C40   C63   S    
C12   C57   S    
C29   H10   S    
C23   C24   A    
C4    C6    S    
C43   C51   A    
C7    C8    A    
C50   H15   S    
C1    O6    A    
O14   V3    S    
C2    C44   S    
V4    O20   S    
V3    O20   S    
C64   H34   S    
C8    H4    S    
C51   C52   A    
C26   C27   A    
C9    H5    S    
C28   H9    S    
C41   C42   A    
C24   C56   S    
C18   C19   A    
O12   C53   A    
C20   C24   A    
C17   C58   S    
O5    C3    A    
O13   C56   A    
C64   H35   S    
V2    O10   S    
C6    C9    A    
C35   C36   A    
C43   C50   A    
C16   C17   A    
C47   C48   A    
C42   H14   S    
O8    V2    S    
C22   C25   A    
O19   C56   A    
C23   C28   A    
O1    V2    S    
O7    V1    S    
O16   V4    S    
C61   H30   S    
O9    C4    A    
C18   C59   S    
C59   H26   S    
C25   C60   S    
O13   V3    S    
C29   C30   A    
O15   C55   A    
C63   H32   S    
C30   H11   S    
O11   C54   A    
C33   C35   A    
C5    C12   A    
C48   C49   A    
C30   C31   A    
O15   V3    S    
C41   C61   S    
C53   O16   A    
O17   V3    S    
O4    C2    A    
C36   C39   A    
C13   C14   A    
C47   C65   S    
C39   C40   A    
C17   C18   A    
C7    C11   A    
C49   C50   A    
C65   H38   S    
C19   C20   A    
C7    H2    S    
C57   H19   S    
C11   C12   A    
C44   C47   A    
C15   C16   A    
C39   C62   S    
C58   H23   S    
H6    C27   S    
O17   V4    S    
C52   C64   S    
O3    C4    A    
C22   C23   A    
C57   H20   S    
C16   C66   S    
O6    V2    S    
O9    V2    S    
C25   C26   A    
C10   C14   A    
C15   H7    S    
C59   H27   S    
C59   H25   S    
C65   H37   S    
O2    V1    S    
O18   V4    S    
C21   C22   A    
C31   H12   S    
C31   C32   A    
C61   H28   S    
C63   H33   S    
C37   C42   A    
C33   C34   A    
C35   C54   S    
C60   N1    T    
O1    C2    A    
C15   C20   A    
C64   H36   S    
O5    V1    S    
C63   H31   S    
O19   V4    S    
C32   C33   A    
C13   H1    S    
C29   C34   A    
C5    C13   A    
C3    C21   S    
O14   C54   A    
C37   C38   A    
C65   H39   S    
C45   C46   A    
C19   C21   A    
O3    V1    S    
V1    O10   S    
C62   N2    T    
C45   C49   A    
C51   H16   S    
C36   C37   A    
O2    C1    A    
C1    C38   S    
C58   H24   S    
C6    C8    A    
O11   V4    S    
O7    V2    S    
C40   C41   A    
C32   H13   S    
C27   C28   A    
O4    V1    S    
C57   H21   S    
C14   H3    S    
C48   C52   A    
C58   H22   S    
C10   C11   A    
C44   C46   A    
C5    C55   S    
O12   V3    S    
C61   H29   S    
C9    C10   A    
C46   H18   S    
C43   C53   S    
C66   N3    T    
O8    C3    A    
C45   H17   S    
