data_mof_unit_13095.cif
_audit_creation_date              2012-12-11T17:17:03-0500
_audit_creation_method            fapswitch 2.2
_symmetry_space_group_name_H-M    P1
_symmetry_Int_Tables_number       1
_space_group_crystal_system       triclinic
_cell_length_a                    6.941773
_cell_length_b                    13.384921
_cell_length_c                    14.659764
_cell_angle_alpha                 98.883882
_cell_angle_beta                  89.875499
_cell_angle_gamma                 90.223848
_cell_volume                      1345.76042566

loop_
_atom_site_label
_atom_site_type_symbol
_atom_type_description
_atom_site_fract_x
_atom_site_fract_y
_atom_site_fract_z
_atom_type_partial_charge
O1    O     O_R   0.354890 0.151580 0.148210 -0.536123
O2    O     O_R   0.645110 0.848420 0.851790 -0.536123
O3    O     O_R   0.682370 0.152980 0.336770 -0.545538
O4    O     O_R   0.317630 0.847020 0.663230 -0.545538
O5    O     O_R   0.854980 0.348430 0.351800 -0.535903
O6    O     O_R   0.145020 0.651570 0.648200 -0.535903
C1    C     C_R   0.513815 0.131977 0.366739 0.722594
C2    C     C_R   0.486185 0.868023 0.633261 0.722590
O7    O     O_R   0.684450 0.139580 0.148000 -0.539611
O8    O     O_R   0.315550 0.860420 0.852000 -0.539611
O9    O     O_R   0.857080 0.334940 0.161680 -0.540575
O10   O     O_R   0.142920 0.665060 0.838320 -0.540574
C3    C     C_R   0.515499 0.112645 0.114048 0.729219
C4    C     C_R   0.484501 0.887355 0.885952 0.729219
O11   O     O_R   0.352790 0.165070 0.338330 -0.526199
O12   O     O_R   0.647210 0.834930 0.661670 -0.526199
O13   O     O_3   0.522170 0.314120 0.254710 -0.373247
O14   O     O_3   0.477830 0.685880 0.745290 -0.373247
V1    V     V_3+5 0.796120 0.238110 0.249130 1.426561
V2    V     V_3+5 0.203880 0.761890 0.750870 1.426560
O15   O     O_R   0.186930 0.347040 0.163240 -0.544893
O16   O     O_R   0.813070 0.652960 0.836760 -0.544893
C5    C     C_R   0.018483 0.368788 0.133589 0.672845
C6    C     C_R   0.981517 0.631212 0.866411 0.672845
O17   O     O_R   0.184850 0.360440 0.352010 -0.539511
O18   O     O_R   0.815150 0.639560 0.647990 -0.539511
C7    C     C_R   0.015848 0.387317 0.385987 0.735735
C8    C     C_R   0.984152 0.612682 0.614012 0.735735
V3    V     V_3+5 0.296410 0.261900 0.250880 1.430626
V4    V     V_3+5 0.703590 0.738100 0.749120 1.430627
O19   O     O_3   0.020490 0.185890 0.245290 -0.363313
O20   O     O_3   0.979510 0.814110 0.754710 -0.363313
C9    C     C_1   0.005168 0.466902 0.466341 -0.190822
C10   C     C_1   0.994832 0.533097 0.533659 -0.190822
C11   C     C_3   0.082370 0.588992 0.033320 -0.143096
C12   C     C_3   0.917629 0.411008 0.966680 -0.143097
C13   C     C_3   0.906854 0.541860 0.076767 -0.142690
C14   C     C_3   0.093146 0.458140 0.923233 -0.142689
H1    H     H_    0.830198 0.576017 0.140476 0.100373
H2    H     H_    0.169802 0.423983 0.859524 0.100374
H3    H     H_    0.150593 0.662760 0.060158 0.102551
H4    H     H_    0.849407 0.337240 0.939842 0.102551
C15   C     C_3   0.009594 0.438920 0.062751 -0.003110
C16   C     C_3   0.990406 0.561080 0.937249 -0.003111
C17   C     C_3   0.185328 0.485255 0.020105 -0.114959
C18   C     C_3   0.814672 0.514745 0.979895 -0.114959
H5    H     H_    0.338319 0.472884 0.037070 0.106374
H6    H     H_    0.661681 0.527116 0.962930 0.106374
C19   C     C_3   0.397926 0.961406 0.427319 0.491612
C20   C     C_3   0.602073 0.038595 0.572682 0.491611
C21   C     C_3   0.573269 0.908597 0.463495 -0.294433
C22   C     C_3   0.426730 0.091403 0.536505 -0.294431
H7    H     H_    0.632993 0.833754 0.433894 0.123695
H8    H     H_    0.367006 0.166246 0.566106 0.123696
C23   C     C_3   0.493915 0.937608 0.562493 -0.135202
C24   C     C_3   0.506085 0.062392 0.437507 -0.135201
C25   C     C_3   0.315720 0.988756 0.525779 -0.190705
C26   C     C_3   0.684280 0.011244 0.474221 -0.190704
H9    H     H_    0.163429 0.978202 0.545693 0.154527
H10   H     H_    0.836571 0.021798 0.454307 0.154527
C27   C     C_1   0.504910 0.033092 0.033671 -0.194316
C28   C     C_1   0.495090 0.966908 0.966328 -0.194314
O21   O     O_3   0.277651 0.923767 0.352216 -0.555658
C29   C     C_3   0.390857 0.885178 0.274795 0.103665
H11   H     H_    0.456303 0.811988 0.284957 0.116418
H12   H     H_    0.507029 0.938812 0.261566 0.095580
C30   C     C_3   0.262938 0.866688 0.189712 -0.711637
H13   H     H_    0.197603 0.938964 0.177173 0.229698
H14   H     H_    0.349921 0.834993 0.128430 0.165131
H15   H     H_    0.146388 0.812328 0.199764 0.214332
O22   O     O_3   0.722348 0.076234 0.647784 -0.555658
C31   C     C_3   0.609141 0.114819 0.725206 0.103674
H16   H     H_    0.492980 0.061179 0.738437 0.095578
H17   H     H_    0.543679 0.188006 0.715044 0.116416
C32   C     C_3   0.737064 0.133318 0.810289 -0.711635
H18   H     H_    0.853602 0.187684 0.800234 0.214331
H19   H     H_    0.650079 0.165010 0.871571 0.165131
H20   H     H_    0.802414 0.061046 0.822828 0.229697

loop_
_geom_bond_atom_site_label_1
_geom_bond_atom_site_label_2
_ccdc_geom_bond_type
V4    O20   S    
C19   O21   S    
O13   V3    S    
C12   H4    S    
O4    C2    A    
V1    O19   S    
C5    C15   S    
C7    C9    S    
O9    V1    S    
C11   C13   S    
O3    C1    A    
C25   H9    S    
C26   H10   S    
C4    C28   S    
C19   C25   S    
O7    C3    A    
C14   C17   S    
O5    C7    A    
O7    V1    S    
O6    C8    A    
C16   C18   S    
C19   C21   S    
C20   C22   S    
O3    V1    S    
O14   V4    S    
C21   C23   S    
C1    O11   A    
C8    C10   S    
C2    O12   A    
C1    C24   S    
C31   C32   S    
O2    C4    A    
C2    C23   S    
C22   H8    S    
O11   V3    S    
C17   H5    S    
O15   C5    A    
O17   V3    S    
C18   H6    S    
C30   H13   S    
C20   C26   S    
C29   C30   S    
C31   H17   S    
O8    C4    A    
O8    V2    S    
O15   V3    S    
C20   O22   S    
C21   H7    S    
C29   H12   S    
C13   C15   S    
C32   H18   S    
C14   C16   S    
C32   H19   S    
O10   V2    S    
O1    V3    S    
C9    C10   T    
C21   C26   S    
C12   C18   S    
C11   C16   S    
C15   C17   S    
O18   V4    S    
C23   C25   S    
C6    C16   S    
O16   C6    A    
O1    C3    A    
C11   C17   S    
V2    O20   S    
O16   V4    S    
C31   H16   S    
O5    V1    S    
O17   C7    A    
C19   C24   S    
O6    V2    S    
O10   C6    A    
O18   C8    A    
C20   C23   S    
O2    V4    S    
C30   H15   S    
C29   H11   S    
C12   C14   S    
O22   C31   S    
V3    O19   S    
C14   H2    S    
O9    C5    A    
O13   V1    S    
C24   C26   S    
O14   V2    S    
C27   C28   T    
C11   H3    S    
C32   H20   S    
C22   C25   S    
O21   C29   S    
O4    V2    S    
C3    C27   S    
C13   H1    S    
C12   C15   S    
C30   H14   S    
C13   C18   S    
O12   V4    S    
C22   C24   S    
