data_mof_unit_54843.cif
_audit_creation_date              2012-12-10T17:56:41-0500
_audit_creation_method            fapswitch 2.2
_symmetry_space_group_name_H-M    P1
_symmetry_Int_Tables_number       1
_space_group_crystal_system       triclinic
_cell_length_a                    10.955357
_cell_length_b                    9.605899
_cell_length_c                    10.829906
_cell_angle_alpha                 91.883301
_cell_angle_beta                  91.87433
_cell_angle_gamma                 90.731323
_cell_volume                      1138.36224385

loop_
_atom_site_label
_atom_site_type_symbol
_atom_type_description
_atom_site_fract_x
_atom_site_fract_y
_atom_site_fract_z
_atom_type_partial_charge
C1    C     C_R   0.262632 0.500013 0.504791 0.787331
C2    C     C_R   0.737899 0.501736 0.498993 0.837722
C3    C     C_R   0.940274 0.634220 0.517958 -0.055179
C4    C     C_R   0.067683 0.629837 0.533654 -0.068226
C5    C     C_R   0.415870 0.069974 0.428548 -0.012794
C6    C     C_R   0.583855 0.077191 0.571350 0.013893
C7    C     C_R   0.420246 0.921433 0.424396 0.462072
C8    C     C_R   0.578438 0.929331 0.576187 0.501325
C9    C     C_R   0.506796 0.497597 0.262517 0.855395
C10   C     C_R   0.489930 0.503172 0.737634 0.800469
C11   C     C_R   0.642798 0.706888 0.120113 0.284165
C12   C     C_R   0.500887 0.772123 0.911897 0.360455
C13   C     C_R   0.648656 0.841791 0.075432 0.292158
C14   C     C_R   0.569883 0.877193 0.977238 0.308582
C15   C     C_R   0.511270 0.631600 0.946776 -0.087116
C16   C     C_R   0.557954 0.609603 0.066320 -0.105975
C17   C     C_R   0.515733 0.492410 0.127903 -0.016503
C18   C     C_R   0.476300 0.511126 0.872773 -0.051220
C19   C     C_R   0.461412 0.380748 0.059310 -0.112246
C20   C     C_R   0.448799 0.387192 0.931659 -0.119091
C21   C     C_R   0.061263 0.380197 0.486714 -0.121763
C22   C     C_R   0.934794 0.382045 0.481912 -0.099960
C23   C     C_R   0.872355 0.507458 0.497655 -0.074300
C24   C     C_R   0.128892 0.502955 0.511010 -0.105688
Cu1   Cu    Cu3+1 0.500000 0.640660 0.500000 1.107398
Cu2   Cu    Cu3+1 0.500000 0.359340 0.500000 0.980603
H1    H     H_    0.429689 0.288393 0.103902 0.173792
H2    H     H_    0.415318 0.296039 0.878935 0.208358
H3    H     H_    0.106068 0.281933 0.471628 0.216049
H4    H     H_    0.885812 0.284433 0.464287 0.215595
N1    N     N_R   0.500000 0.852070 0.500000 -0.241625
N2    N     N_R   0.500000 0.147940 0.500000 -0.285522
O1    O     O_R   0.319640 0.618740 0.499990 -0.540964
O2    O     O_R   0.680360 0.618740 0.500010 -0.516777
O3    O     O_R   0.319620 0.381170 0.499990 -0.611346
O4    O     O_R   0.680380 0.381170 0.500010 -0.610693
O5    O     O_R   0.500000 0.618810 0.319650 -0.519740
O6    O     O_R   0.500000 0.618810 0.680350 -0.510902
O7    O     O_R   0.499970 0.381240 0.319640 -0.618175
O8    O     O_R   0.500030 0.381240 0.680360 -0.620120
Cl1   Cl    Cl    0.758365 0.649683 0.222162 -0.481062
Cl2   Cl    Cl    0.379738 0.824318 0.813922 -0.559119
Cl3   Cl    Cl    0.748836 0.967603 0.147049 -0.381503
Cl4   Cl    Cl    0.560682 0.052154 0.934027 -0.537241
C25   C     C_2   0.883602 0.773054 0.529018 0.604606
H5    H     H_    0.900164 0.836265 0.612864 0.116770
O9    O     O_2   0.829228 0.823453 0.441568 -0.407658
C26   C     C_2   0.135365 0.756222 0.582644 0.425155
H6    H     H_    0.197006 0.747024 0.661401 0.136701
O10   O     O_2   0.124964 0.868548 0.533990 -0.448851
C27   C     C_2   0.318722 0.138603 0.355075 0.508778
H7    H     H_    0.336449 0.231150 0.305429 0.084553
O11   O     O_2   0.214459 0.091895 0.350047 -0.461894
C28   C     C_2   0.683382 0.151952 0.642783 0.561785
H8    H     H_    0.666205 0.240611 0.702676 0.115920
O12   O     O_2   0.788732 0.113357 0.635383 -0.524540
Cl5   Cl    Cl    0.324692 0.826676 0.316008 -0.469992
Cl6   Cl    Cl    0.667577 0.845841 0.688725 -0.581843

loop_
_geom_bond_atom_site_label_1
_geom_bond_atom_site_label_2
_ccdc_geom_bond_type
Cu1   N1    S    
C15   C18   A    
C6    N2    A    
Cu2   N2    S    
C13   C14   A    
Cu1   O6    S    
C19   H1    S    
C11   C16   A    
C28   H8    S    
C3    C23   A    
C19   C20   A    
C12   C15   A    
C9    O7    A    
Cu1   O2    S    
C10   O6    A    
C5    N2    A    
Cu1   O5    S    
C2    O2    A    
C9    O5    A    
C1    O1    A    
C25   H5    S    
C26   O10   D    
C11   C13   A    
Cu2   O8    S    
C10   C18   S    
C6    C8    A    
C9    C17   S    
C26   H6    S    
C17   C19   A    
C12   C14   A    
C11   Cl1   S    
C18   C20   A    
C25   O9    D    
C4    C24   A    
C28   O12   D    
Cu2   O7    S    
C7    N1    A    
C7    Cl5   S    
C2    O4    A    
C27   H7    S    
C20   H2    S    
Cu2   O3    S    
C13   Cl3   S    
C1    O3    A    
C1    C24   S    
C14   Cl4   S    
C4    C26   S    
C21   C24   A    
Cu2   O4    S    
C2    C23   S    
C5    C7    A    
C22   C23   A    
C5    C27   S    
C10   O8    A    
C12   Cl2   S    
C22   H4    S    
C8    Cl6   S    
Cu1   Cu2   S    
C21   C22   A    
C8    N1    A    
C21   H3    S    
C3    C25   S    
C6    C28   S    
C3    C4    A    
C15   C16   A    
Cu1   O1    S    
C16   C17   A    
C27   O11   D    
