data_mof_unit_49643.cif
_audit_creation_date              2012-12-11T14:29:36-0500
_audit_creation_method            fapswitch 2.2
_symmetry_space_group_name_H-M    P1
_symmetry_Int_Tables_number       1
_space_group_crystal_system       triclinic
_cell_length_a                    6.939122
_cell_length_b                    14.694809
_cell_length_c                    16.292513
_cell_angle_alpha                 90.41088
_cell_angle_beta                  89.865075
_cell_angle_gamma                 89.878421
_cell_volume                      1661.28131368

loop_
_atom_site_label
_atom_site_type_symbol
_atom_type_description
_atom_site_fract_x
_atom_site_fract_y
_atom_site_fract_z
_atom_type_partial_charge
O1    O     O_R   0.494400 0.416610 0.413880 -0.543041
O2    O     O_R   0.823920 0.406790 0.585520 -0.544761
O3    O     O_R   0.994250 0.583390 0.586120 -0.538505
C1    C     C_R   0.654713 0.385241 0.613677 0.745250
O4    O     O_R   0.824110 0.405730 0.414490 -0.541240
O5    O     O_R   0.994440 0.582310 0.413870 -0.537354
C2    C     C_R   0.655080 0.383698 0.386311 0.742439
O6    O     O_R   0.494210 0.417690 0.586130 -0.541964
O7    O     O_3   0.660810 0.557940 0.500000 -0.369322
V1    V     V_3+5 0.935650 0.489250 0.500000 1.407266
O8    O     O_R   0.324160 0.593210 0.414480 -0.547343
C3    C     C_R   0.155485 0.614989 0.386345 0.736075
O9    O     O_R   0.323970 0.594270 0.585510 -0.538355
C4    C     C_R   0.154440 0.616342 0.613650 0.696699
V2    V     V_3+5 0.435660 0.510750 0.500000 1.409414
O10   O     O_3   0.160630 0.442060 0.500000 -0.374286
H1    H     H_    0.344833 0.919538 0.519095 0.112939
C5    C     C_R   0.011199 0.565162 0.773332 -0.150550
C6    C     C_R   0.955243 0.535577 0.850478 -0.172848
C7    C     C_R   0.977850 0.592013 0.918183 -0.173289
C8    C     C_R   0.050979 0.680245 0.909322 0.282251
C9    C     C_R   0.082915 0.716553 0.829379 0.038804
C10   C     C_R   0.076761 0.655242 0.760991 0.028279
C11   C     C_R   0.125742 0.810361 0.816104 -0.193502
C12   C     C_R   0.182704 0.839212 0.736544 0.054289
C13   C     C_R   0.194817 0.775411 0.670409 0.074087
C14   C     C_R   0.141728 0.683446 0.682535 -0.168752
C15   C     C_R   0.227935 0.931542 0.721099 -0.143569
C16   C     C_R   0.286715 0.959675 0.643529 -0.117651
C17   C     C_R   0.300052 0.897229 0.579368 -0.117554
C18   C     C_R   0.253805 0.806240 0.592174 -0.135612
H2    H     H_    0.002393 0.516020 0.723866 0.124718
H3    H     H_    0.903904 0.466650 0.858406 0.133789
H4    H     H_    0.218250 0.983285 0.768466 0.100625
H5    H     H_    0.321403 0.030466 0.633117 0.112438
H6    H     H_    0.262809 0.760811 0.539769 0.101876
C19   C     C_2   0.985336 0.710239 0.283458 -0.125667
C20   C     C_2   0.150441 0.682586 0.319357 -0.313555
H7    H     H_    0.849353 0.682364 0.304657 0.135900
C21   C     C_2   0.972877 0.777227 0.215087 -0.145687
C22   C     C_2   0.125586 0.818177 0.180043 -0.323772
H8    H     H_    0.829271 0.792704 0.192706 0.131936
C23   C     C_2   0.779724 0.209877 0.782907 -0.130337
C24   C     C_2   0.614203 0.179846 0.816796 -0.310926
H9    H     H_    0.916101 0.183332 0.805038 0.134683
H10   H     H_    0.475924 0.205030 0.796302 0.124837
C25   C     C_2   0.791783 0.278386 0.715948 -0.144061
C26   C     C_2   0.638307 0.317816 0.680159 -0.308033
H11   H     H_    0.935641 0.296577 0.695502 0.132920
C27   C     C_2   0.778848 0.208978 0.213673 -0.130630
C28   C     C_2   0.613598 0.181819 0.177452 -0.311767
H12   H     H_    0.914710 0.180333 0.192501 0.136451
H13   H     H_    0.475996 0.209743 0.196491 0.126818
C29   C     C_2   0.791717 0.277378 0.281616 -0.137309
C30   C     C_2   0.638595 0.315509 0.319519 -0.309337
H14   H     H_    0.493469 0.297245 0.301718 0.129120
O11   O     O_R   0.770210 0.079270 0.910680 -0.539732
O12   O     O_R   0.440150 0.091160 0.082270 -0.546877
O13   O     O_R   0.269970 0.914530 0.082860 -0.540966
C31   C     C_R   0.608598 0.113265 0.110507 0.741084
O14   O     O_R   0.440480 0.090100 0.911240 -0.549190
O15   O     O_R   0.270310 0.913460 0.910610 -0.535728
C32   C     C_R   0.609181 0.111869 0.883212 0.745099
O16   O     O_R   0.769870 0.080340 0.082930 -0.540038
O17   O     O_3   0.603660 0.938980 0.996790 -0.371914
V3    V     V_3+5 0.328750 0.007610 0.996740 1.399986
O18   O     O_R   0.940600 0.902510 0.911180 -0.537671
C33   C     C_R   0.110532 0.879164 0.883906 0.784697
O19   O     O_R   0.940270 0.903570 0.082200 -0.540017
C34   C     C_R   0.109142 0.883794 0.111829 0.775948
V4    V     V_3+5 0.828770 0.986010 0.996670 1.415487
O20   O     O_3   0.103730 0.054750 0.996710 -0.378343
H15   H     H_    0.288345 0.708979 0.299635 0.126999
H16   H     H_    0.270352 0.803844 0.200953 0.127036
H17   H     H_    0.493253 0.301157 0.699303 0.128327
H18   H     H_    0.935761 0.296294 0.301214 0.134586
H19   H     H_    0.949770 0.564979 0.978711 0.116020
N1    N     N_2   0.120418 0.725037 0.980869 -0.537396
H20   H     H_    0.039312 0.711816 0.032548 0.247162
C35   C     C_3   0.324015 0.709133 0.994662 -0.519989
H21   H     H_    0.372024 0.745900 0.050541 0.193188
H22   H     H_    0.410420 0.733861 0.941847 0.207454
H23   H     H_    0.352119 0.635333 0.003479 0.181460

loop_
_geom_bond_atom_site_label_1
_geom_bond_atom_site_label_2
_ccdc_geom_bond_type
C30   H14   S    
C6    C7    A    
C2    C30   S    
C1    O6    A    
C25   H11   S    
C12   C15   A    
C13   C14   A    
C16   C17   A    
C7    H19   S    
C15   C16   A    
C19   C21   S    
O13   V3    S    
O5    C3    A    
C17   C18   A    
N1    C35   S    
O12   C31   A    
V2    O10   S    
O14   C32   A    
C5    C6    A    
O16   V4    S    
O19   V4    S    
C22   H16   S    
O8    V2    S    
O14   V3    S    
O12   V3    S    
V3    O20   S    
C8    N1    S    
C27   H12   S    
O1    V2    S    
C10   C14   A    
C4    C14   S    
O7    V1    S    
C21   H8    S    
C15   H4    S    
C13   C18   A    
O9    C4    A    
H1    C17   S    
C26   H17   S    
C35   H23   S    
C24   H10   S    
O11   C32   A    
C9    C10   A    
C24   C32   S    
O15   V3    S    
O18   C33   A    
C11   C12   A    
C35   H22   S    
C6    H3    S    
O4    C2    A    
N1    H20   S    
C12   C13   A    
O17   V4    S    
C5    C10   A    
C28   H13   S    
O2    C1    A    
C23   C24   D    
C19   C20   D    
C25   C26   D    
C27   C28   D    
C27   C29   S    
O11   V4    S    
C23   H9    S    
O3    C4    A    
C29   H18   S    
C21   C22   D    
O6    V2    S    
O9    V2    S    
C9    C11   A    
C5    H2    S    
O2    V1    S    
C1    C26   S    
C29   C30   D    
O1    C2    A    
C35   H21   S    
O5    V1    S    
O8    C3    A    
C16   H5    S    
O15   C33   A    
C31   O16   A    
O7    V2    S    
O4    V1    S    
C19   H7    S    
O3    V1    S    
V1    O10   S    
O18   V4    S    
C3    C20   S    
O19   C34   A    
C11   C33   S    
O13   C34   A    
V4    O20   S    
C7    C8    A    
O17   V3    S    
C18   H6    S    
C28   C31   S    
C8    C9    A    
C23   C25   S    
C22   C34   S    
C20   H15   S    
