data_mof_unit_30940.cif
_audit_creation_date              2012-10-26T20:03:02-0400
_audit_creation_method            fapswitch 2.2
_symmetry_space_group_name_H-M    P1
_symmetry_Int_Tables_number       1
_space_group_crystal_system       triclinic
_cell_length_a                    10.714528
_cell_length_b                    12.388805
_cell_length_c                    13.270586
_cell_angle_alpha                 117.202997
_cell_angle_beta                  76.429767
_cell_angle_gamma                 101.284877
_cell_volume                      1514.97670265

loop_
_atom_site_label
_atom_site_type_symbol
_atom_type_description
_atom_site_fract_x
_atom_site_fract_y
_atom_site_fract_z
_atom_type_partial_charge
Br1   Br    Br    0.378404 0.353933 0.632988 -0.557437
Br2   Br    Br    0.176453 0.855257 0.246614 -0.592990
C1    C     C_R   0.511923 0.854843 0.286825 0.551254
C2    C     C_R   0.500346 0.565720 0.009885 0.037360
C3    C     C_R   0.461321 0.650331 0.124759 0.043598
C4    C     C_R   0.739800 0.998969 0.498845 0.529433
C5    C     C_R   0.458335 0.439866 0.977060 0.039068
C6    C     C_R   0.367961 0.402162 0.054890 0.050253
C7    C     C_R   0.319292 0.488651 0.162725 -0.133998
C8    C     C_R   0.363905 0.610931 0.196734 -0.086249
C9    C     C_R   0.504208 0.349926 0.869178 -0.103508
C10   C     C_R   0.366881 0.191524 0.912737 -0.133258
C11   C     C_R   0.519821 0.772439 0.163784 0.028744
C12   C     C_3   0.122237 0.997564 0.497102 0.050743
C13   C     C_R   0.706236 0.343506 0.325543 -0.160397
C14   C     C_R   0.310704 0.752252 0.629948 0.051647
C15   C     C_R   0.250117 0.643110 0.631400 -0.151314
C16   C     C_R   0.481186 0.145018 0.713277 0.556029
C17   C     C_R   0.313244 0.537937 0.569173 -0.095894
C18   C     C_R   0.442822 0.542624 0.514646 0.015308
C19   C     C_R   0.492108 0.651296 0.500938 0.173581
C20   C     C_R   0.520225 0.441118 0.463758 0.004279
C21   C     C_R   0.631621 0.442491 0.381905 0.012329
C22   C     C_R   0.669444 0.543888 0.358222 -0.176555
C23   C     C_3   0.069596 0.114986 0.597526 -0.264819
C24   C     C_R   0.603172 0.647088 0.418501 -0.108484
C25   C     C_R   0.498254 0.342236 0.495368 0.288059
C26   C     C_R   0.674610 0.245054 0.353540 0.016463
C27   C     C_R   0.260354 0.999346 0.499104 0.587384
C28   C     C_3   0.959180 0.991938 0.382516 -0.205688
C29   C     C_3   0.103987 0.993424 0.382127 0.027217
C30   C     C_3   0.925438 0.114847 0.598122 -0.250282
C31   C     C_3   0.899090 0.884895 0.511623 -0.230755
C32   C     C_3   0.877903 0.997682 0.497835 0.023558
C33   C     C_3   0.041641 0.885821 0.513077 -0.220304
C34   C     C_R   0.324760 0.278255 0.022821 -0.126600
C35   C     C_R   0.454427 0.228064 0.834935 0.006680
C36   C     C_R   0.598202 0.813095 0.084565 -0.117953
C37   C     C_R   0.624319 0.733264 0.969278 -0.131063
C38   C     C_R   0.578387 0.610607 0.932097 -0.104094
Cu1   Cu    Cu3+1 0.529690 0.098270 0.475420 0.989730
Cu2   Cu    Cu3+1 0.470310 0.901730 0.524580 0.912548
H1    H     H_    0.051012 0.889591 0.596493 0.111539
H2    H     H_    0.683988 0.765894 0.908707 0.118349
H3    H     H_    0.924764 0.908379 0.310156 0.154596
H4    H     H_    0.317731 0.673982 0.279056 0.177105
H5    H     H_    0.731602 0.168290 0.309256 0.116769
H6    H     H_    0.753799 0.545082 0.294722 0.117413
H7    H     H_    0.789641 0.342830 0.260691 0.100918
H8    H     H_    0.259520 0.832845 0.674396 0.122896
H9    H     H_    0.256181 0.452764 0.558762 0.153694
H10   H     H_    0.639463 0.719942 0.394466 0.177617
H11   H     H_    0.156605 0.076712 0.374025 0.151047
H12   H     H_    0.868070 0.120059 0.681568 0.122172
H13   H     H_    0.911551 0.197226 0.590235 0.134525
H14   H     H_    0.124264 0.197146 0.588690 0.163978
H15   H     H_    0.840694 0.884985 0.593010 0.137290
H16   H     H_    0.077582 0.799082 0.444098 0.166612
H17   H     H_    0.945734 0.071347 0.369604 0.109352
H18   H     H_    0.152168 0.638789 0.676192 0.107974
H19   H     H_    0.867621 0.799349 0.439392 0.128256
H20   H     H_    0.082197 0.121266 0.681026 0.128828
H21   H     H_    0.327107 0.097162 0.887073 0.128151
H22   H     H_    0.246317 0.461733 0.221254 0.105712
H23   H     H_    0.255397 0.249006 0.081694 0.111399
H24   H     H_    0.577670 0.372101 0.808691 0.128300
H25   H     H_    0.642225 0.906407 0.112125 0.125568
H26   H     H_    0.603157 0.554178 0.841417 0.126529
N1    N     N_R   0.574690 0.246280 0.438200 -0.217985
N2    N     N_R   0.426100 0.754320 0.561190 -0.239425
O1    O     O_R   0.537340 0.972510 0.318130 -0.494671
O2    O     O_R   0.487200 0.806530 0.359650 -0.533039
O3    O     O_R   0.707380 0.082980 0.479220 -0.514964
O4    O     O_R   0.657240 0.917000 0.520740 -0.527230
O5    O     O_R   0.512800 0.193470 0.640350 -0.450943
O6    O     O_R   0.462660 0.027490 0.681870 -0.510746
O7    O     O_R   0.342760 0.083000 0.479260 -0.457379
O8    O     O_R   0.292620 0.917020 0.520780 -0.523830

loop_
_geom_bond_atom_site_label_1
_geom_bond_atom_site_label_2
_ccdc_geom_bond_type
C19   C24   A    
C26   H5    S    
C16   O5    A    
C7    H22   S    
Cu1   Cu2   S    
C28   H3    S    
C26   N1    A    
C23   H14   S    
C12   C29   S    
C5    C6    A    
C5    C9    A    
C33   H16   S    
C16   C35   S    
C22   C24   A    
Cu1   O7    S    
C28   C29   S    
Cu2   N2    S    
C6    C34   A    
C10   C35   A    
C9    C35   A    
C15   C17   A    
C27   O8    A    
C17   C18   A    
C14   C15   A    
C8    H4    S    
C31   H15   S    
C21   C22   A    
C10   C34   A    
C33   H1    S    
C7    C8    A    
C30   H13   S    
C3    C11   A    
C1    C11   S    
C9    H24   S    
Cu1   O1    S    
C23   C30   S    
C13   C21   A    
C2    C5    A    
C30   H12   S    
C4    O4    A    
Cu2   O4    S    
C28   C32   S    
C22   H6    S    
C2    C38   A    
C14   N2    A    
C36   H25   S    
C37   C38   A    
C10   H21   S    
C34   H23   S    
C6    C7    A    
C4    C32   S    
Br2   C29   S    
C30   C32   S    
C1    O1    A    
C24   H10   S    
Cu1   O5    S    
C28   H17   S    
Cu2   O2    S    
C31   C32   S    
C29   H11   S    
C11   C36   A    
C18   C20   A    
Cu2   O8    S    
C20   C25   A    
C12   C27   S    
C12   C33   S    
C4    O3    A    
Cu1   N1    S    
C16   O6    A    
C14   H8    S    
C2    C3    A    
C25   N1    A    
C37   H2    S    
Cu2   O6    S    
C19   N2    A    
C1    O2    A    
C3    C8    A    
C13   C26   A    
C36   C37   A    
C31   C33   S    
C23   H20   S    
C13   H7    S    
C12   C23   S    
C15   H18   S    
Cu1   O3    S    
C17   H9    S    
C27   O7    A    
C18   C19   A    
C31   H19   S    
C38   H26   S    
Br1   C25   S    
C20   C21   A    
