data_mof_unit_10021.cif
_audit_creation_date              2012-12-10T17:07:10-0500
_audit_creation_method            fapswitch 2.2
_symmetry_space_group_name_H-M    P1
_symmetry_Int_Tables_number       1
_space_group_crystal_system       triclinic
_cell_length_a                    17.267266
_cell_length_b                    11.003442
_cell_length_c                    9.947225
_cell_angle_alpha                 110.958584
_cell_angle_beta                  93.375759
_cell_angle_gamma                 93.79294
_cell_volume                      1754.13504094

loop_
_atom_site_label
_atom_site_type_symbol
_atom_type_description
_atom_site_fract_x
_atom_site_fract_y
_atom_site_fract_z
_atom_type_partial_charge
C1    C     C_R   0.494070 0.254386 0.441382 0.861027
C2    C     C_R   0.505959 0.745618 0.558604 0.861182
C3    C     C_2   0.485116 0.114391 0.409834 -0.354765
C4    C     C_2   0.515002 0.885606 0.590075 -0.355721
C5    C     C_2   0.510444 0.067663 0.509115 -0.169142
C6    C     C_2   0.489881 0.932271 0.490600 -0.170075
C7    C     C_2   0.509696 0.506405 0.077054 0.011207
C8    C     C_2   0.490487 0.493139 0.922751 0.011415
C9    C     C_R   0.352354 0.502550 0.520193 0.785276
C10   C     C_R   0.647641 0.497372 0.479792 0.785086
C11   C     C_R   0.269054 0.501869 0.533088 0.001315
C12   C     C_R   0.730922 0.497665 0.466830 0.001760
C13   C     C_R   0.218091 0.414459 0.420426 -0.202894
C14   C     C_R   0.781985 0.585064 0.579316 -0.202951
C15   C     C_R   0.138265 0.414672 0.429398 -0.153085
C16   C     C_R   0.861796 0.584397 0.570329 -0.153081
C17   C     C_R   0.108599 0.504341 0.550272 0.191318
C18   C     C_R   0.891338 0.494290 0.449620 0.191346
C19   C     C_R   0.159747 0.589372 0.664714 -0.189193
C20   C     C_R   0.840095 0.409218 0.335375 -0.189357
C21   C     C_R   0.239860 0.588793 0.655810 -0.209780
C22   C     C_R   0.759996 0.410235 0.344307 -0.208993
C23   C     C_2   0.024591 0.511975 0.558987 -0.233206
C24   C     C_2   0.975321 0.486377 0.440835 -0.233211
Cu1   Cu    Cu3+1 0.513640 0.521550 0.643210 0.940806
Cu2   Cu    Cu3+1 0.486360 0.478450 0.356790 0.940754
H1    H     H_    0.240121 0.345387 0.325990 0.141730
H2    H     H_    0.760047 0.654466 0.673624 0.141629
H3    H     H_    0.720887 0.341740 0.257049 0.136883
H4    H     H_    0.278881 0.657272 0.743227 0.136870
H5    H     H_    0.996378 0.455188 0.334092 0.142984
H6    H     H_    0.003507 0.543159 0.665713 0.142996
H7    H     H_    0.137633 0.658236 0.759157 0.123046
H8    H     H_    0.862118 0.340021 0.241059 0.122976
H9    H     H_    0.899997 0.654786 0.657445 0.122174
H10   H     H_    0.100161 0.344291 0.342121 0.122126
H11   H     H_    0.454305 0.869552 0.393802 0.171146
H12   H     H_    0.546096 0.130365 0.605813 0.171037
H13   H     H_    0.546291 0.949723 0.691393 0.144067
H14   H     H_    0.453716 0.050309 0.308616 0.143976
H15   H     H_    0.583177 0.612671 0.913867 0.200142
H16   H     H_    0.416438 0.388282 0.086533 0.200246
N1    N     N_2   0.465840 0.446060 0.141630 -0.314096
N2    N     N_2   0.534160 0.553940 0.858370 -0.314047
O1    O     O_R   0.507280 0.332200 0.576490 -0.568927
O2    O     O_R   0.492720 0.667800 0.423510 -0.569258
O3    O     O_R   0.484240 0.295800 0.334620 -0.579701
O4    O     O_R   0.515760 0.704200 0.665380 -0.579736
O5    O     O_R   0.399260 0.520290 0.634950 -0.571140
O6    O     O_R   0.600740 0.479710 0.365050 -0.570818
O7    O     O_R   0.376220 0.483890 0.393080 -0.584077
O8    O     O_R   0.623780 0.516110 0.606920 -0.583969
C25   C     C_R   0.419431 0.407922 0.846783 0.215744
C26   C     C_R   0.422232 0.272061 0.788336 -0.134381
C27   C     C_R   0.353980 0.188838 0.732004 -0.156804
C28   C     C_R   0.281876 0.240428 0.740848 -0.132509
C29   C     C_R   0.277999 0.374828 0.808721 -0.144796
C30   C     C_R   0.346426 0.458301 0.863181 -0.146419
H17   H     H_    0.477133 0.231036 0.791004 0.119063
H18   H     H_    0.356865 0.084234 0.684728 0.147186
H19   H     H_    0.228918 0.176004 0.698550 0.130346
H20   H     H_    0.221931 0.414167 0.820153 0.143241
H21   H     H_    0.342703 0.561951 0.918614 0.116897
C31   C     C_R   0.581233 0.590384 0.152501 0.215716
C32   C     C_R   0.653860 0.538788 0.134549 -0.146662
C33   C     C_R   0.722747 0.621155 0.188366 -0.144010
C34   C     C_R   0.719694 0.755631 0.257418 -0.131778
C35   C     C_R   0.647933 0.808443 0.268081 -0.158019
C36   C     C_R   0.579222 0.726359 0.212254 -0.134293
H22   H     H_    0.656936 0.435064 0.078330 0.116422
H23   H     H_    0.778528 0.580888 0.175582 0.142703
H24   H     H_    0.773010 0.819179 0.299249 0.130303
H25   H     H_    0.645659 0.913136 0.316315 0.146824
H26   H     H_    0.524580 0.768386 0.210906 0.119926

loop_
_geom_bond_atom_site_label_1
_geom_bond_atom_site_label_2
_ccdc_geom_bond_type
C8    C25   S    
C3    H14   S    
C2    C4    S    
C23   C24   D    
C1    C3    S    
C25   C26   A    
C22   H3    S    
C7    N1    D    
C9    C11   S    
C21   H4    S    
C26   C27   A    
C2    O4    A    
C13   H1    S    
C33   H23   S    
C9    O7    A    
C4    H13   S    
C20   C22   A    
C25   C30   A    
C20   H8    S    
C31   C32   A    
C27   C28   A    
C13   C15   A    
C33   C34   A    
Cu1   Cu2   S    
C24   H5    S    
C10   O8    A    
C36   H26   S    
C1    O1    A    
C8    N2    D    
Cu2   O7    S    
C2    O2    A    
C11   C13   A    
Cu1   O4    S    
C27   H18   S    
C29   C30   A    
C17   C23   S    
C10   C12   S    
Cu2   O3    S    
C18   C24   S    
Cu1   N2    S    
C16   C18   A    
C19   C21   A    
C12   C14   A    
Cu2   N1    S    
C32   C33   A    
C18   C20   A    
C26   H17   S    
Cu2   O6    S    
C16   H9    S    
C5    C6    S    
H15   N2    S    
C14   C16   A    
C7    C31   S    
Cu1   O8    S    
C7    C8    S    
H16   N1    S    
Cu2   O2    S    
Cu1   O1    S    
C11   C21   A    
C32   H22   S    
C10   O6    A    
C12   C22   A    
C15   H10   S    
C29   H20   S    
C9    O5    A    
C28   C29   A    
C4    C6    D    
C34   H24   S    
C19   H7    S    
C30   H21   S    
C15   C17   A    
C28   H19   S    
C17   C19   A    
C14   H2    S    
C35   H25   S    
C5    H12   S    
C31   C36   A    
C1    O3    A    
C34   C35   A    
C23   H6    S    
C6    H11   S    
C35   C36   A    
C3    C5    D    
Cu1   O5    S    
