data_mof_unit_65734.cif
_audit_creation_date              2012-12-10T19:02:12-0500
_audit_creation_method            fapswitch 2.2
_symmetry_space_group_name_H-M    P1
_symmetry_Int_Tables_number       1
_space_group_crystal_system       triclinic
_cell_length_a                    13.369543
_cell_length_b                    14.259326
_cell_length_c                    16.873854
_cell_angle_alpha                 90.012048
_cell_angle_beta                  83.902616
_cell_angle_gamma                 89.997593
_cell_volume                      3198.64445026

loop_
_atom_site_label
_atom_site_type_symbol
_atom_type_description
_atom_site_fract_x
_atom_site_fract_y
_atom_site_fract_z
_atom_type_partial_charge
C1    C     C_R   0.500001 0.673445 0.499983 0.969779
C2    C     C_1   0.169423 0.500007 0.499987 0.111223
C3    C     C_1   0.950475 0.500012 0.500007 -0.027263
C4    C     C_1   0.049524 0.500012 0.499998 -0.027653
C5    C     C_R   0.485356 0.499424 0.655539 1.085229
C6    C     C_R   0.514639 0.499003 0.344482 1.087115
C7    C     C_R   0.473459 0.523964 0.739382 -0.231693
C8    C     C_R   0.526757 0.523606 0.260719 -0.230451
C9    C     C_R   0.530385 0.476564 0.791438 0.229787
C10   C     C_R   0.470665 0.475663 0.208435 0.231173
C11   C     C_R   0.519771 0.501640 0.872516 0.306460
C12   C     C_R   0.500002 0.326543 0.500002 0.925117
C13   C     C_R   0.478854 0.502666 0.127840 0.309400
C14   C     C_R   0.464545 0.583142 0.897193 -0.078974
C15   C     C_R   0.535692 0.583224 0.103010 -0.082714
C16   C     C_R   0.410448 0.632632 0.844095 0.331073
C17   C     C_R   0.592994 0.630296 0.155441 0.325808
C18   C     C_R   0.410069 0.599318 0.765419 0.230537
C19   C     C_R   0.586546 0.601713 0.235822 0.234160
C20   C     C_2   0.458771 0.614073 0.980676 0.468319
C21   C     C_2   0.542977 0.612838 0.019114 0.467626
C22   C     C_1   0.500008 0.774079 0.499940 -0.181710
C23   C     C_1   0.500010 0.225890 0.499973 -0.181492
C24   C     C_1   0.500017 0.858641 0.499915 0.008441
C25   C     C_1   0.500016 0.141322 0.499947 0.013268
C26   C     C_1   0.500022 0.957698 0.499909 0.029035
C27   C     C_1   0.500021 0.042260 0.499920 0.029939
C28   C     C_1   0.830577 0.500007 0.500016 0.113541
H1    H     H_    0.650142 0.400178 0.795507 0.360515
H2    H     H_    0.565129 0.381628 0.910265 0.358765
H3    H     H_    0.351286 0.398485 0.205224 0.360465
H4    H     H_    0.637526 0.718324 0.276072 0.345139
H5    H     H_    0.290612 0.666996 0.742062 0.356430
H6    H     H_    0.633725 0.653260 0.927365 0.316818
H7    H     H_    0.369885 0.658942 0.071936 0.317296
H8    H     H_    0.357138 0.756359 0.824223 0.345879
H9    H     H_    0.712428 0.707405 0.157797 0.359132
H10   H     H_    0.432228 0.383724 0.088831 0.359625
N1    N     N_1   0.738130 0.500000 0.500020 -0.053532
N2    N     N_1   0.261870 0.500000 0.499980 -0.053877
O1    O     O_R   0.423530 0.626280 0.499990 -0.593066
O2    O     O_3   0.408213 0.403679 0.238046 -0.753316
O3    O     O_3   0.632289 0.651631 0.292319 -0.748969
O4    O     O_3   0.352094 0.640927 0.712103 -0.749701
O5    O     O_3   0.638573 0.621298 0.979020 -0.672995
O6    O     O_3   0.363626 0.626863 0.020535 -0.669485
O7    O     O_3   0.361485 0.714095 0.870280 -0.704203
O8    O     O_3   0.654013 0.703504 0.126438 -0.704838
O9    O     O_3   0.435252 0.450228 0.071803 -0.693450
O10   O     O_3   0.561071 0.447601 0.928722 -0.693357
O11   O     O_R   0.576470 0.373720 0.500010 -0.604044
O12   O     O_R   0.576470 0.626280 0.500010 -0.593108
O13   O     O_R   0.423530 0.373720 0.499990 -0.603960
O14   O     O_R   0.414510 0.500000 0.615790 -0.582855
O15   O     O_R   0.585490 0.500000 0.384210 -0.582716
O16   O     O_R   0.567420 0.500000 0.615810 -0.596599
O17   O     O_R   0.432580 0.500000 0.384190 -0.597391
O18   O     O_3   0.594380 0.405828 0.761558 -0.752197
Zn1   Zn    Zn3+2 0.397910 0.500000 0.499990 1.028424
Zn2   Zn    Zn3+2 0.602090 0.500000 0.500010 1.030096

loop_
_geom_bond_atom_site_label_1
_geom_bond_atom_site_label_2
_ccdc_geom_bond_type
C2    C4    S    
C15   C17   A    
H3    O2    S    
C18   O4    S    
C10   O2    S    
C5    C7    S    
C5    O16   A    
C12   O13   A    
C12   C23   S    
C17   O8    S    
C6    O15   A    
C7    C18   A    
C7    C9    A    
C23   C25   T    
H2    O10   S    
N2    Zn1   S    
C1    C22   S    
C11   O10   S    
O15   Zn2   S    
H1    O18   S    
H9    O8    S    
C9    C11   A    
C6    O17   A    
C26   C27   T    
H8    O7    S    
C13   O9    S    
N1    Zn2   S    
C16   O7    S    
C1    O1    A    
C3    C28   S    
C11   C14   A    
H4    O3    S    
C19   O3    S    
C21   O5    S    
O14   Zn1   S    
C13   C15   A    
O13   Zn1   S    
C1    O12   A    
C22   C24   T    
O17   Zn1   S    
C8    C19   A    
C25   C27   S    
C3    C4    T    
C2    N2    T    
C5    O14   A    
C15   C21   S    
C12   O11   A    
H10   O9    S    
C20   C21   D    
O1    Zn1   S    
C14   C20   S    
C8    C10   A    
C9    O18   S    
H6    O5    S    
C6    C8    S    
O11   Zn2   S    
O12   Zn2   S    
C28   N1    T    
C17   C19   A    
C14   C16   A    
H7    O6    S    
C16   C18   A    
C20   O6    S    
O16   Zn2   S    
C24   C26   S    
H5    O4    S    
C10   C13   A    
