data_mof_unit_44738.cif
_audit_creation_date              2012-12-11T15:48:02-0500
_audit_creation_method            fapswitch 2.2
_symmetry_space_group_name_H-M    P1
_symmetry_Int_Tables_number       1
_space_group_crystal_system       triclinic
_cell_length_a                    6.916738
_cell_length_b                    17.657043
_cell_length_c                    19.422273
_cell_angle_alpha                 108.412297
_cell_angle_beta                  89.603931
_cell_angle_gamma                 90.438534
_cell_volume                      2250.50617279

loop_
_atom_site_label
_atom_site_type_symbol
_atom_type_description
_atom_site_fract_x
_atom_site_fract_y
_atom_site_fract_z
_atom_type_partial_charge
O1    O     O_R   0.494330 0.415710 0.413720 -0.547748
O2    O     O_R   0.819360 0.430070 0.560210 -0.526868
O3    O     O_R   0.994320 0.584290 0.586280 -0.550406
C1    C     C_R   0.651881 0.417591 0.584329 0.739173
O4    O     O_R   0.823740 0.406290 0.412670 -0.545230
O5    O     O_R   0.998730 0.560340 0.437690 -0.540958
C2    C     C_R   0.654785 0.383077 0.384618 0.686451
O6    O     O_R   0.489920 0.439660 0.562310 -0.530293
O7    O     O_3   0.662330 0.550570 0.508380 -0.362938
V1    V     V_3+5 0.935370 0.490620 0.498440 1.489054
O8    O     O_R   0.328720 0.569930 0.439790 -0.540396
C3    C     C_R   0.160620 0.585087 0.418164 0.708849
O9    O     O_R   0.324340 0.593710 0.587330 -0.514159
C4    C     C_R   0.154424 0.617422 0.615132 0.742182
V2    V     V_3+5 0.435940 0.509380 0.501560 1.512102
O10   O     O_3   0.159110 0.449430 0.491620 -0.363267
C5    C     C_R   0.278896 0.750858 0.696590 0.181004
C6    C     C_R   0.270900 0.815687 0.761846 -0.017165
C7    C     C_R   0.123181 0.819120 0.813554 -0.171985
C8    C     C_R   0.981566 0.759633 0.797936 -0.116904
H1    H     H_    0.867589 0.763311 0.837454 0.170610
C9    C     C_R   0.986552 0.694189 0.734175 -0.017476
C10   C     C_R   0.140852 0.687534 0.683023 -0.173802
C11   C     C_R   0.301484 0.628007 0.317033 -0.153845
C12   C     C_R   0.153644 0.633860 0.368380 -0.083766
C13   C     C_R   0.998614 0.685362 0.371237 -0.150087
C14   C     C_R   0.992163 0.731643 0.324346 0.099893
C15   C     C_R   0.139648 0.724803 0.271911 0.045292
C16   C     C_R   0.295206 0.671757 0.267348 0.028897
C17   C     C_R   0.839255 0.784563 0.329296 -0.169219
C18   C     C_R   0.829784 0.831234 0.283261 0.153246
C19   C     C_R   0.974117 0.824501 0.229814 0.097704
C20   C     C_R   0.130211 0.770900 0.224181 0.023223
C21   C     C_R   0.276586 0.763767 0.171132 0.042635
C22   C     C_R   0.429524 0.708899 0.165002 0.151597
C23   C     C_R   0.438907 0.663074 0.213053 0.133174
C24   C     C_R   0.966306 0.869963 0.181988 -0.141077
C25   C     C_R   0.112176 0.864641 0.130324 -0.094078
C26   C     C_R   0.266356 0.812102 0.125538 -0.119835
H2    H     H_    0.418712 0.587629 0.315852 0.150809
H3    H     H_    0.884207 0.690351 0.410871 0.135159
H4    H     H_    0.726415 0.790064 0.369555 0.161451
H5    H     H_    0.848661 0.910844 0.185004 0.152447
H6    H     H_    0.376375 0.809307 0.085164 0.155643
C27   C     C_R   0.772663 0.189872 0.875487 -0.207105
C28   C     C_R   0.621705 0.134961 0.869881 -0.063718
C29   C     C_R   0.471993 0.130592 0.820483 -0.136741
C30   C     C_R   0.474902 0.178962 0.775567 0.091425
C31   C     C_R   0.623425 0.236234 0.782852 0.103340
C32   C     C_R   0.771147 0.243729 0.834834 0.008891
C33   C     C_R   0.330758 0.170667 0.723498 -0.167135
C34   C     C_R   0.334991 0.216414 0.676535 0.176081
C35   C     C_R   0.484104 0.273331 0.682244 0.075605
C36   C     C_R   0.626264 0.284467 0.736882 0.033689
C37   C     C_R   0.770960 0.343662 0.745702 -0.012063
C38   C     C_R   0.889730 0.362616 0.808421 -0.032322
C39   C     C_R   0.908531 0.306438 0.846561 -0.057225
C40   C     C_R   0.494081 0.319334 0.634984 -0.153205
C41   C     C_R   0.647324 0.372689 0.637949 -0.089688
C42   C     C_R   0.793349 0.381786 0.691554 0.072890
H7    H     H_    0.885909 0.191923 0.914086 0.106493
H8    H     H_    0.354747 0.088210 0.816009 0.146361
H9    H     H_    0.215686 0.127231 0.718314 0.162013
H10   H     H_    0.386705 0.311751 0.593138 0.173411
C43   C     C_R   0.811874 0.276051 0.281647 -0.127922
H11   H     H_    0.952817 0.294992 0.304926 0.117572
C44   C     C_R   0.800746 0.212311 0.216764 -0.132923
H12   H     H_    0.933665 0.184041 0.192221 0.118417
C45   C     C_R   0.620948 0.185392 0.184160 -0.045623
C46   C     C_R   0.452591 0.224069 0.218390 -0.131824
H13   H     H_    0.311656 0.205122 0.195106 0.116377
C47   C     C_R   0.463720 0.287815 0.283277 -0.127945
H14   H     H_    0.330813 0.316092 0.307826 0.117498
C48   C     C_R   0.643524 0.314721 0.315885 -0.041349
O11   O     O_R   0.774940 0.060470 0.937800 -0.541283
O12   O     O_R   0.440880 0.093730 0.087350 -0.543993
O13   O     O_R   0.266130 0.939630 0.062280 -0.537245
C49   C     C_R   0.609776 0.117006 0.115442 0.694725
O14   O     O_R   0.445480 0.069960 0.939820 -0.546729
O15   O     O_R   0.270770 0.915690 0.913690 -0.550258
C50   C     C_R   0.614369 0.084624 0.917934 0.709837
O16   O     O_R   0.770300 0.084410 0.086380 -0.544743
O17   O     O_3   0.602600 0.949510 0.991670 -0.367651
V3    V     V_3+5 0.329470 0.009370 0.001550 1.437567
O18   O     O_R   0.940760 0.906160 0.912560 -0.541637
C51   C     C_R   0.110340 0.885188 0.883507 0.712107
O19   O     O_R   0.936150 0.929930 0.060100 -0.535974
C52   C     C_R   0.104344 0.914638 0.081602 0.720854
V4    V     V_3+5 0.828930 0.990450 0.998310 1.449383
O20   O     O_3   0.105670 0.050490 0.008320 -0.375762
I1    I     I_    0.496634 0.755112 0.617750 -0.297937
I2    I     I_    0.646434 0.693288 0.081866 -0.306709
I3    I     I_    0.668231 0.578279 0.201236 -0.360413
I4    I     I_    0.111197 0.193001 0.597823 -0.348908
I5    I     I_    0.071073 0.434859 0.682219 -0.406604
C53   C     C_2   0.949294 0.447815 0.843404 0.517426
H15   H     H_    0.887477 0.493985 0.824536 0.063224
O21   O     O_2   0.059802 0.468591 0.894752 -0.476893
C54   C     C_2   0.413259 0.881567 0.774217 0.421789
H16   H     H_    0.524655 0.889409 0.814984 0.056454
O22   O     O_2   0.405383 0.927876 0.739116 -0.518985
C55   C     C_2   0.067340 0.314716 0.899675 0.505598
H17   H     H_    0.039365 0.307820 0.952372 0.028510
O23   O     O_2   0.232566 0.328336 0.884189 -0.497855
C56   C     C_2   0.828407 0.633927 0.724858 0.411393
H18   H     H_    0.842998 0.573748 0.689100 0.075001
O24   O     O_2   0.676386 0.651120 0.758427 -0.528328
I6    I     I_    0.593606 0.911718 0.300380 -0.398331

loop_
_geom_bond_atom_site_label_1
_geom_bond_atom_site_label_2
_ccdc_geom_bond_type
O19   C52   A    
C18   I6    S    
C7    C8    A    
C5    I1    S    
O15   V3    S    
C7    C51   S    
O12   V3    S    
C29   H8    S    
C35   C36   A    
C39   C55   S    
C56   O24   D    
C16   C23   A    
C13   C14   A    
C5    C10   A    
O16   V4    S    
C15   C16   A    
O12   C49   A    
C21   C22   A    
O5    C3    A    
C17   C18   A    
C31   C36   A    
C38   C39   A    
C6    C7    A    
C11   C16   A    
O15   C51   A    
C28   C29   A    
O8    V2    S    
C23   I3    S    
C30   C33   A    
C29   C30   A    
O13   C52   A    
C43   C44   A    
C53   O21   D    
C34   I4    S    
C46   H13   S    
O1    V2    S    
O7    V1    S    
C1    O6    A    
C22   I2    S    
C41   C42   A    
C37   C42   A    
C14   C17   A    
O14   V3    S    
C45   C49   S    
C45   C46   A    
V3    O20   S    
C20   C21   A    
C2    C48   S    
C40   H10   S    
O17   V4    S    
C21   C26   A    
C33   H9    S    
C11   C12   A    
C47   C48   A    
O14   C50   A    
O18   V4    S    
O11   C50   A    
O13   V3    S    
C12   C13   A    
O18   C51   A    
C43   C48   A    
C44   H12   S    
C25   C52   S    
C44   C45   A    
C22   C23   A    
C4    C10   S    
C24   H5    S    
O2    C1    A    
C24   C25   A    
C28   C50   S    
C49   O16   A    
O17   V3    S    
C35   C40   A    
C53   H15   S    
C37   C38   A    
C5    C6    A    
C19   C24   A    
C55   O23   D    
O3    C4    A    
C30   C31   A    
C54   O22   D    
C8    C9    A    
C15   C20   A    
C31   C32   A    
O6    V2    S    
O19   V4    S    
C6    C54   S    
O2    V1    S    
C34   C35   A    
O4    C2    A    
C38   C53   S    
C36   C37   A    
O1    C2    A    
C32   C39   A    
C18   C19   A    
C47   H14   S    
O5    V1    S    
O8    C3    A    
C26   H6    S    
C9    C56   S    
C56   H18   S    
C54   H16   S    
C3    C12   S    
C19   C20   A    
O9    V2    S    
C40   C41   A    
C33   C34   A    
O3    V1    S    
V1    O10   S    
C25   C26   A    
C27   C32   A    
C1    C41   S    
C27   H7    S    
C11   H2    S    
O7    V2    S    
C55   H17   S    
O11   V4    S    
C42   I5    S    
C27   C28   A    
O4    V1    S    
C8    H1    S    
C43   H11   S    
C14   C15   A    
C9    C10   A    
C17   H4    S    
C46   C47   A    
V4    O20   S    
O9    C4    A    
V2    O10   S    
C13   H3    S    
