data_mof_unit_16745.cif
_audit_creation_date              2012-12-10T19:46:52-0500
_audit_creation_method            fapswitch 2.2
_symmetry_space_group_name_H-M    P1
_symmetry_Int_Tables_number       1
_space_group_crystal_system       triclinic
_cell_length_a                    10.93418
_cell_length_b                    10.908261
_cell_length_c                    13.121782
_cell_angle_alpha                 90.348555
_cell_angle_beta                  90.055725
_cell_angle_gamma                 89.051301
_cell_volume                      1564.82876129

loop_
_atom_site_label
_atom_site_type_symbol
_atom_type_description
_atom_site_fract_x
_atom_site_fract_y
_atom_site_fract_z
_atom_type_partial_charge
C1    C     C_R   0.493670 0.259700 0.499457 0.837405
C2    C     C_R   0.506322 0.740300 0.500542 0.837386
C3    C     C_R   0.872916 0.501081 0.500486 -0.161073
C4    C     C_R   0.127085 0.498959 0.499517 -0.161091
C5    C     C_R   0.937509 0.431467 0.574123 -0.050706
C6    C     C_R   0.062493 0.568585 0.425888 -0.050694
C7    C     C_R   0.283713 0.223371 0.202388 -0.134070
C8    C     C_R   0.716519 0.776740 0.797503 -0.134094
C9    C     C_R   0.313975 0.171135 0.296873 0.228978
C10   C     C_R   0.686159 0.828993 0.703045 0.228914
C11   C     C_R   0.432196 0.117978 0.310786 0.118904
C12   C     C_R   0.567871 0.882017 0.689183 0.118900
C13   C     C_R   0.515611 0.116889 0.229387 -0.189375
C14   C     C_R   0.484478 0.882948 0.770595 -0.189296
C15   C     C_R   0.483534 0.168599 0.135848 -0.144534
C16   C     C_R   0.516648 0.831214 0.864104 -0.144521
C17   C     C_R   0.367808 0.221719 0.122401 -0.165030
C18   C     C_R   0.632446 0.778231 0.877505 -0.165021
C19   C     C_R   0.480582 0.933461 0.410521 -0.259503
C20   C     C_R   0.519384 0.066536 0.589479 -0.259468
C21   C     C_R   0.507167 0.872865 0.501619 -0.091395
C22   C     C_R   0.492804 0.127135 0.498380 -0.091409
C23   C     C_R   0.259672 0.500156 0.499869 0.853096
C24   C     C_R   0.740328 0.499879 0.500131 0.853156
C25   C     C_R   0.529722 0.939896 0.591884 0.005044
C26   C     C_R   0.470256 0.060103 0.408112 0.005034
C27   C     C_1   0.500123 0.500156 0.173580 0.151103
C28   C     C_1   0.499878 0.499846 0.826419 0.151115
C29   C     C_1   0.500079 0.500117 0.050683 -0.109763
C30   C     C_1   0.499923 0.499886 0.949317 -0.109795
C31   C     C_R   0.221568 0.822952 0.285865 -0.148218
C32   C     C_R   0.778388 0.177187 0.714217 -0.148213
C33   C     C_R   0.164944 0.757619 0.363482 -0.155468
C34   C     C_R   0.835018 0.242480 0.636579 -0.155426
C35   C     C_R   0.128489 0.636623 0.345893 0.144114
C36   C     C_R   0.871519 0.363467 0.654143 0.144144
C37   C     C_R   0.150495 0.581378 0.250574 -0.099446
C38   C     C_R   0.849556 0.418741 0.749456 -0.099468
C39   C     C_R   0.209278 0.646410 0.173874 -0.144523
C40   C     C_R   0.790770 0.353748 0.826178 -0.144508
C41   C     C_R   0.244717 0.767231 0.191480 -0.115134
C42   C     C_R   0.755284 0.232937 0.808597 -0.115109
C43   C     C_R   0.934453 0.572018 0.427429 0.120749
C44   C     C_R   0.065548 0.428019 0.572572 0.120782
Cu1   Cu    Cu3+1 0.499990 0.499990 0.592680 0.980793
Cu2   Cu    Cu3+1 0.500010 0.500010 0.407320 0.980779
H1    H     H_    0.289498 0.817894 0.131878 0.123677
H2    H     H_    0.710500 0.182303 0.868215 0.123651
H3    H     H_    0.605890 0.076016 0.238617 0.133310
H4    H     H_    0.394145 0.923710 0.761398 0.133284
H5    H     H_    0.548550 0.167569 0.073671 0.134532
H6    H     H_    0.451647 0.832113 0.926291 0.134538
H7    H     H_    0.464856 0.881826 0.341035 0.165024
H8    H     H_    0.535121 0.118170 0.658963 0.164994
H9    H     H_    0.247198 0.916909 0.298752 0.148555
H10   H     H_    0.752720 0.083238 0.701350 0.148533
H11   H     H_    0.147537 0.801650 0.436358 0.124844
H12   H     H_    0.852392 0.198428 0.563707 0.124830
H13   H     H_    0.122207 0.488224 0.236013 0.112274
H14   H     H_    0.877879 0.511889 0.763996 0.112271
H15   H     H_    0.226746 0.603394 0.100659 0.126468
H16   H     H_    0.773336 0.396787 0.899389 0.126479
H17   H     H_    0.343148 0.261752 0.049802 0.138800
H18   H     H_    0.657178 0.738182 0.950081 0.138776
H19   H     H_    0.194037 0.264453 0.190338 0.125729
H20   H     H_    0.806255 0.735773 0.809515 0.125745
N1    N     N_1   0.500030 0.500030 0.268070 -0.132003
N2    N     N_1   0.499970 0.499970 0.731930 -0.131995
O1    O     O_R   0.499980 0.319630 0.578260 -0.583346
O2    O     O_R   0.500020 0.680370 0.421740 -0.583352
O3    O     O_R   0.500000 0.319650 0.421740 -0.569411
O4    O     O_R   0.500000 0.680350 0.578260 -0.569437
O5    O     O_R   0.319630 0.500000 0.578260 -0.579730
O6    O     O_R   0.680370 0.500000 0.421740 -0.579733
O7    O     O_R   0.319650 0.500020 0.421740 -0.572928
O8    O     O_R   0.680350 0.499980 0.578260 -0.572884
C45   C     C_3   0.862988 0.654258 0.354166 -0.822615
H21   H     H_    0.919632 0.721937 0.314172 0.227789
H22   H     H_    0.818227 0.597412 0.294934 0.241761
H23   H     H_    0.792800 0.708932 0.396407 0.220724
C46   C     C_3   0.137009 0.345764 0.645826 -0.822578
H24   H     H_    0.080361 0.278076 0.685807 0.227767
H25   H     H_    0.207197 0.291096 0.603580 0.220735
H26   H     H_    0.181766 0.402597 0.705068 0.241751
C47   C     C_3   0.217088 0.171666 0.378509 -0.940403
H27   H     H_    0.246886 0.124656 0.449089 0.232985
H28   H     H_    0.191225 0.267634 0.398073 0.240953
H29   H     H_    0.134718 0.124384 0.349653 0.231045
C48   C     C_3   0.783018 0.828624 0.621384 -0.940489
H30   H     H_    0.753112 0.875574 0.550807 0.233041
H31   H     H_    0.865311 0.876063 0.650208 0.231065
H32   H     H_    0.809044 0.732697 0.601816 0.240925

loop_
_geom_bond_atom_site_label_1
_geom_bond_atom_site_label_2
_ccdc_geom_bond_type
C8    H20   S    
C27   C29   S    
C24   O6    A    
C46   H24   S    
C39   C41   A    
C45   H21   S    
C3    C43   A    
C1    O3    A    
Cu1   O8    S    
C35   C37   A    
C23   O5    A    
C47   H27   S    
C45   H23   S    
C20   C25   A    
C5    C36   S    
C40   H16   S    
C6    C35   S    
Cu1   O5    S    
C19   C26   A    
C9    C47   S    
C10   C48   S    
C7    C17   A    
C31   C33   A    
C14   C16   A    
C15   H5    S    
C48   H31   S    
C19   H7    S    
C40   C42   A    
C1    C22   S    
Cu1   O4    S    
C3    C24   S    
C2    C21   S    
C2    O4    A    
Cu2   O7    S    
C46   H25   S    
C45   H22   S    
C39   H15   S    
C47   H28   S    
Cu1   O1    S    
C20   H8    S    
C44   C46   S    
C23   O7    A    
C4    C23   S    
C24   O8    A    
C4    C44   A    
C11   C26   S    
Cu1   Cu2   S    
C1    O1    A    
C32   C34   A    
C29   C30   T    
C7    H19   S    
Cu1   N2    S    
C41   H1    S    
C16   C18   A    
C42   H2    S    
C48   H32   S    
C9    C11   A    
Cu2   O3    S    
C37   H13   S    
C10   C12   A    
C13   H3    S    
C4    C6    A    
C5    C44   A    
C20   C22   A    
C6    C43   A    
C13   C15   A    
C38   H14   S    
Cu2   O6    S    
C46   H26   S    
C47   H29   S    
C15   C17   A    
C21   C25   A    
C33   H11   S    
C31   C41   A    
C28   N2    T    
C16   H6    S    
C12   C14   A    
C3    C5    A    
C43   C45   S    
C12   C25   S    
C36   C38   A    
Cu2   N1    S    
C37   C39   A    
C17   H17   S    
C38   C40   A    
C11   C13   A    
C18   H18   S    
C14   H4    S    
C28   C30   S    
C33   C35   A    
C34   C36   A    
C8    C18   A    
Cu2   O2    S    
C27   N1    T    
C7    C9    A    
C8    C10   A    
C22   C26   A    
C34   H12   S    
C32   C42   A    
C31   H9    S    
C48   H30   S    
C2    O2    A    
C32   H10   S    
C19   C21   A    
