data_mof_unit_7745.cif
_audit_creation_date              2012-12-10T19:41:50-0500
_audit_creation_method            fapswitch 2.2
_symmetry_space_group_name_H-M    P1
_symmetry_Int_Tables_number       1
_space_group_crystal_system       triclinic
_cell_length_a                    18.351155
_cell_length_b                    18.483364
_cell_length_c                    18.33899
_cell_angle_alpha                 119.828395
_cell_angle_beta                  89.92303
_cell_angle_gamma                 120.217886
_cell_volume                      4398.32453261

loop_
_atom_site_label
_atom_site_type_symbol
_atom_type_description
_atom_site_fract_x
_atom_site_fract_y
_atom_site_fract_z
_atom_type_partial_charge
C1    C     C_R   0.140859 0.780252 0.141487 0.887853
C2    C     C_R   0.815181 0.109048 0.807527 -0.193526
C3    C     C_R   0.799718 0.053998 0.845925 0.356366
C4    C     C_R   0.861606 0.220034 0.860641 0.931059
C5    C     C_R   0.748771 0.946097 0.790896 0.308825
C6    C     C_R   0.708296 0.891986 0.697683 -0.158934
C7    C     C_R   0.736925 0.949231 0.661677 -0.100572
C8    C     C_3   0.692707 0.945635 0.589814 0.128732
C9    C     C_3   0.753016 0.064009 0.650166 0.587518
C10   C     C_R   0.718915 0.420463 0.167490 -0.000992
C11   C     C_R   0.807413 0.502876 0.198544 -0.120382
C12   C     C_R   0.556487 0.400739 0.735754 0.372050
C13   C     C_R   0.842180 0.592179 0.285572 0.325530
C14   C     C_R   0.790083 0.592783 0.343288 -0.148217
C15   C     C_R   0.700317 0.505516 0.309091 -0.101223
C16   C     C_R   0.139691 0.501757 0.859719 0.855042
C17   C     C_R   0.666667 0.422246 0.220724 -0.054225
C18   C     C_3   0.609697 0.307724 0.173846 -0.357546
C19   C     C_3   0.669811 0.306375 0.113749 0.580870
C20   C     C_R   0.160653 0.945776 0.226813 -0.000248
C21   C     C_R   0.198616 0.892066 0.206064 -0.068863
C22   C     C_R   0.290546 0.948356 0.254847 -0.134081
C23   C     C_R   0.649109 0.447202 0.742531 -0.057539
C24   C     C_R   0.342243 0.056538 0.315583 -0.123230
C25   C     C_R   0.304531 0.108948 0.320275 -0.062192
C26   C     C_R   0.212133 0.050820 0.280974 0.011296
C27   C     C_3   0.153700 0.056740 0.230520 0.113692
C28   C     C_R   0.859924 0.499523 0.139528 0.930646
C29   C     C_3   0.094467 0.937902 0.170140 0.142012
C30   C     C_R   0.285076 0.565078 0.227346 -0.140047
C31   C     C_R   0.195016 0.486399 0.181574 -0.132266
C32   C     C_R   0.160695 0.396741 0.178288 0.343346
C33   C     C_R   0.212879 0.396600 0.234928 -0.147646
C34   C     C_R   0.704726 0.447776 0.797912 -0.062653
C35   C     C_R   0.301087 0.486058 0.292542 -0.148277
C36   C     C_R   0.336022 0.565054 0.281749 -0.071736
C37   C     C_3   0.390026 0.678129 0.347403 0.591279
C38   C     C_3   0.334914 0.678656 0.284757 0.591321
C39   C     C_R   0.281329 0.536729 0.833014 0.000976
C40   C     C_R   0.139801 0.497117 0.136924 0.899937
C41   C     C_R   0.193562 0.502622 0.801589 -0.077799
C42   C     C_R   0.157982 0.465215 0.711680 -0.119302
C43   C     C_R   0.213691 0.470108 0.658526 -0.120949
C44   C     C_R   0.302957 0.506399 0.693713 -0.099542
C45   C     C_R   0.796639 0.492174 0.803294 -0.185727
C46   C     C_R   0.334270 0.538517 0.780466 -0.004566
C47   C     C_3   0.419116 0.630786 0.857461 0.095050
C48   C     C_3   0.358935 0.630406 0.916945 0.072031
C49   C     C_R   0.641214 0.501456 0.361650 0.877338
C50   C     C_R   0.359941 0.502633 0.639439 0.907706
C51   C     C_R   0.642359 0.780235 0.640365 0.926188
C52   C     C_R   0.859070 0.498942 0.859921 0.973346
C53   C     C_R   0.359863 0.220012 0.363467 0.905614
C54   C     C_R   0.359050 0.496639 0.357318 0.894684
C55   C     C_R   0.638648 0.498796 0.639987 0.972997
C56   C     C_R   0.832531 0.535909 0.756746 0.320722
C57   C     C_R   0.666230 0.404016 0.845750 0.353968
C58   C     C_R   0.581094 0.378321 0.851395 -0.183811
C59   C     C_R   0.525429 0.374403 0.795044 -0.159385
C60   C     C_2   0.832730 0.678171 0.440243 1.003069
C61   C     C_2   0.618105 0.275481 0.233544 1.015045
C62   C     C_2   0.513127 0.257846 0.126406 0.996105
C63   C     C_2   0.336094 0.898161 0.240815 1.050976
C64   C     C_2   0.435251 0.113420 0.372588 1.016962
C65   C     C_2   0.111221 0.105854 0.287710 0.937416
C66   C     C_2   0.001927 0.885039 0.176487 0.932999
C67   C     C_R   0.778734 0.534964 0.702661 0.317509
C68   C     C_2   0.170738 0.302137 0.231323 1.053618
C69   C     C_2   0.548708 0.350410 0.913955 1.102403
C70   C     C_2   0.066193 0.430597 0.674469 1.008015
C71   C     C_2   0.180202 0.445926 0.569902 1.001931
C72   C     C_2   0.468267 0.725850 0.857521 1.087657
C73   C     C_2   0.375225 0.610751 0.983789 1.087948
C74   C     C_2   0.434289 0.343676 0.799342 1.083144
C75   C     C_2   0.710013 0.898165 0.503389 1.041971
C76   C     C_R   0.688401 0.492161 0.695625 -0.185324
C77   C     C_R   0.788719 0.054244 0.715292 -0.103860
Cl1   Cl    Cl    0.948174 0.598708 0.770470 -0.426957
Cl2   Cl    Cl    0.091422 0.879743 0.056063 -0.387942
Cl3   Cl    Cl    0.051516 0.284863 0.105860 -0.407804
Cl4   Cl    Cl    0.372084 0.713149 0.452616 -0.373479
Cl5   Cl    Cl    0.504482 0.732604 0.355204 -0.382928
Cl6   Cl    Cl    0.266455 0.721667 0.328640 -0.418310
Cl7   Cl    Cl    0.393175 0.730091 0.226346 -0.422479
Cl8   Cl    Cl    0.491731 0.596135 0.868734 -0.464318
Cl9   Cl    Cl    0.349912 0.736226 0.966348 -0.449393
Cl10  Cl    Cl    0.474421 0.368961 0.652500 -0.538827
Cl11  Cl    Cl    0.826647 0.591894 0.645301 -0.449476
Cl12  Cl    Cl    0.576717 0.889516 0.575582 -0.369459
Cl13  Cl    Cl    0.838010 0.115168 0.962535 -0.310604
Cl14  Cl    Cl    0.737799 0.882776 0.842278 -0.390501
Cl15  Cl    Cl    0.840141 0.127146 0.614719 -0.420436
Cl16  Cl    Cl    0.696397 0.124785 0.689925 -0.361279
Cl17  Cl    Cl    0.951807 0.701495 0.322199 -0.460180
Cl18  Cl    Cl    0.738396 0.266366 0.123037 -0.383266
Cl19  Cl    Cl    0.617535 0.248070 0.999350 -0.423365
Cl20  Cl    Cl    0.714448 0.364994 0.889469 -0.521185
Cl21  Cl    Cl    0.214386 0.116672 0.177835 -0.481143
H1    H     H_    0.820981 0.768913 0.553628 0.365879
H2    H     H_    0.988460 0.462592 0.638861 0.390145
H3    H     H_    0.084289 0.345006 0.449354 0.391070
H4    H     H_    0.576885 0.871252 0.918791 0.389881
H5    H     H_    0.330369 0.516241 0.023433 0.366528
H6    H     H_    0.359323 0.370664 0.875139 0.370282
H7    H     H_    0.750233 0.811138 0.426154 0.374711
H8    H     H_    0.697222 0.302973 0.333729 0.376309
H9    H     H_    0.393919 0.127017 0.036566 0.387641
H10   H     H_    0.396441 0.839629 0.163952 0.409031
H11   H     H_    0.558830 0.146165 0.379486 0.371439
H12   H     H_    0.107492 0.186762 0.410643 0.390857
H13   H     H_    0.920798 0.814647 0.228088 0.379256
H14   H     H_    0.091278 0.148016 0.147484 0.415100
H15   H     H_    0.451097 0.249440 0.932430 0.382373
O1    O     O_3   0.000000 0.500000 0.000000 -0.567548
O2    O     O_R   0.323450 0.268330 0.384170 -0.595704
O3    O     O_R   0.444860 0.560620 0.384150 -0.592150
O4    O     O_R   0.055050 0.731580 0.115780 -0.604448
O5    O     O_R   0.615780 0.439200 0.555040 -0.598351
O6    O     O_R   0.323420 0.439190 0.384160 -0.611403
O7    O     O_R   0.615760 0.560630 0.676470 -0.582013
O8    O     O_R   0.615740 0.731500 0.676460 -0.601175
O9    O     O_R   0.444900 0.268330 0.384170 -0.633122
O10   O     O_R   0.615750 0.560630 0.384150 -0.575866
O11   O     O_R   0.323430 0.439200 0.555040 -0.625196
O12   O     O_R   0.055090 0.439280 0.823480 -0.634308
O13   O     O_R   0.884220 0.268410 0.823490 -0.588401
O14   O     O_R   0.176520 0.560720 0.944920 -0.592650
O15   O     O_R   0.884200 0.439290 0.115800 -0.582947
O16   O     O_R   0.176530 0.560720 0.115800 -0.613337
O17   O     O_R   0.884180 0.560710 0.944910 -0.602001
O18   O     O_R   0.055100 0.439290 0.115810 -0.583330
O19   O     O_R   0.884190 0.439280 0.823480 -0.582486
O20   O     O_2   0.910079 0.717683 0.478941 -0.476370
O21   O     O_R   0.784602 0.711787 0.488371 -0.777041
O22   O     O_2   0.553126 0.200719 0.225746 -0.523789
O23   O     O_R   0.884180 0.560710 0.115790 -0.595581
O24   O     O_R   0.700374 0.331574 0.297941 -0.723393
O25   O     O_2   0.484155 0.309342 0.143669 -0.599418
O26   O     O_R   0.456757 0.151818 0.063480 -0.665990
O27   O     O_2   0.360210 0.894054 0.299843 -0.505634
O28   O     O_R   0.358315 0.864278 0.163309 -0.664820
O29   O     O_2   0.456609 0.169458 0.453602 -0.543523
O30   O     O_R   0.498025 0.103154 0.333695 -0.716523
O31   O     O_2   0.048403 0.097501 0.252525 -0.529579
O32   O     O_R   0.142233 0.158811 0.380385 -0.740847
O33   O     O_2   0.941269 0.873605 0.133900 -0.485752
O34   O     O_R   0.176500 0.731590 0.115790 -0.619430
O35   O     O_R   0.985411 0.848972 0.230262 -0.742688
O36   O     O_2   0.155107 0.302466 0.296224 -0.554565
O37   O     O_R   0.137361 0.209973 0.148919 -0.675193
O38   O     O_2   0.595119 0.407515 0.992376 -0.541718
O39   O     O_R   0.465418 0.259435 0.883379 -0.727554
O40   O     O_2   0.002871 0.342860 0.643843 -0.486405
O41   O     O_R   0.053296 0.496764 0.670020 -0.715430
O42   O     O_2   0.222542 0.508735 0.553010 -0.536904
O43   O     O_R   0.099911 0.352178 0.506650 -0.760025
O44   O     O_2   0.436157 0.729133 0.801738 -0.585069
O45   O     O_R   0.884220 0.268420 0.944930 -0.575542
O46   O     O_R   0.550354 0.811767 0.924316 -0.651206
O47   O     O_2   0.444474 0.675933 0.047516 -0.470614
O48   O     O_R   0.311565 0.519277 0.973622 -0.803387
O49   O     O_2   0.368367 0.269295 0.733221 -0.501393
O50   O     O_R   0.424258 0.398770 0.880187 -0.749963
O51   O     O_2   0.697203 0.913227 0.448411 -0.467046
O52   O     O_R   0.741491 0.838400 0.486420 -0.745843
O53   O     O_3   0.499960 0.499910 0.499960 -0.556944
O54   O     O_R   0.615770 0.439200 0.384160 -0.645304
O55   O     O_R   0.444870 0.560630 0.676470 -0.603129
O56   O     O_R   0.615730 0.731500 0.555020 -0.582461
Zn1   Zn    Zn3+2 0.956630 0.413250 0.869870 1.125359
Zn2   Zn    Zn3+2 0.130130 0.586750 0.043370 1.090544
Zn3   Zn    Zn3+2 0.956630 0.413250 0.043380 1.153027
Zn4   Zn    Zn3+2 0.956610 0.586750 0.043370 1.117928
Zn5   Zn    Zn3+2 0.543330 0.586660 0.630080 1.133184
Zn6   Zn    Zn3+2 0.543320 0.586660 0.456570 1.113373
Zn7   Zn    Zn3+2 0.369830 0.413160 0.456580 1.109639
Zn8   Zn    Zn3+2 0.543350 0.413170 0.456590 1.082180

loop_
_geom_bond_atom_site_label_1
_geom_bond_atom_site_label_2
_ccdc_geom_bond_type
O9    Zn8   S    
C40   O16   A    
C27   Cl21  S    
C1    C21   S    
C9    Cl16  S    
C38   Cl6   S    
C27   C29   S    
C70   O40   D    
C41   C42   A    
C35   C36   A    
C23   C76   A    
O45   Zn3   S    
H6    O50   S    
C7    C8    S    
C39   C41   A    
O55   Zn5   S    
C12   C23   A    
O53   Zn6   S    
O2    Zn7   S    
C72   O46   S    
C64   O29   D    
C3    Cl13  S    
C27   C65   S    
C5    C6    A    
C47   Cl8   S    
C36   C37   S    
C25   C53   S    
C49   O54   A    
C53   O9    A    
C30   C31   A    
C10   C17   A    
O14   Zn2   S    
C49   O10   A    
C42   C70   S    
C56   Cl1   S    
C31   C40   S    
C30   C38   S    
C15   C17   A    
C18   C19   S    
C63   O27   D    
C55   O7    A    
O4    Zn4   S    
H14   O37   S    
C73   O48   S    
C68   O36   D    
C22   C63   S    
O23   Zn4   S    
C12   C59   A    
O1    Zn4   S    
C4    O45   A    
O8    Zn5   S    
C45   C56   A    
O34   Zn2   S    
C8    C9    S    
C54   O3    A    
C34   C57   A    
C62   O26   S    
H12   O32   S    
C16   O12   A    
C66   O35   S    
O3    Zn6   S    
C7    C77   A    
C71   O42   D    
C24   C64   S    
C28   O23   A    
C13   C14   A    
C35   C54   S    
H15   O39   S    
C37   Cl4   S    
O19   Zn1   S    
C9    Cl15  S    
H10   O28   S    
C44   C46   A    
C20   C29   S    
O17   Zn4   S    
O56   Zn6   S    
O1    Zn2   S    
C54   O6    A    
O18   Zn3   S    
O53   Zn5   S    
H5    O48   S    
C69   O38   D    
C51   O56   A    
C50   O11   A    
C24   C25   A    
H11   O30   S    
C74   O49   D    
C65   O31   D    
C18   C62   S    
H8    O24   S    
C1    O4    A    
H3    O43   S    
C25   C26   A    
C8    C75   S    
C72   O44   D    
H1    O21   S    
C75   O51   D    
C52   O19   A    
C2    C4    S    
C43   C44   A    
C37   C38   S    
O13   Zn1   S    
O6    Zn7   S    
C32   Cl3   S    
C47   C48   S    
C29   Cl2   S    
C10   C19   S    
C23   C34   A    
C57   Cl20  S    
C17   C18   S    
C63   O28   S    
C75   O52   S    
O53   Zn8   S    
C9    C77   S    
C62   O25   D    
C73   O47   D    
O12   Zn1   S    
C59   C74   S    
C5    Cl14  S    
C34   C45   A    
C58   C69   S    
C39   C46   A    
C55   C76   S    
O7    Zn5   S    
O54   Zn8   S    
C40   O18   A    
O15   Zn3   S    
C26   C27   S    
C6    C51   S    
C48   Cl9   S    
C37   Cl5   S    
C1    O34   A    
C42   C43   A    
C65   O32   S    
C60   O21   S    
C19   Cl18  S    
C61   O22   D    
H2    O41   S    
O1    Zn1   S    
C46   C47   S    
C43   C71   S    
C12   Cl10  S    
C38   Cl7   S    
C70   O41   S    
C69   O39   S    
C48   C73   S    
O16   Zn2   S    
C31   C32   A    
C3    C5    A    
H4    O46   S    
O1    Zn3   S    
O10   Zn6   S    
C18   C61   S    
C67   Cl11  S    
C6    C7    A    
O11   Zn7   S    
C64   O30   S    
C4    O13   A    
C56   C67   A    
C14   C60   S    
O53   Zn7   S    
C8    Cl12  S    
C45   C52   S    
C30   C36   A    
C13   Cl17  S    
C52   O17   A    
C32   C33   A    
C2    C3    A    
C58   C59   A    
C2    C77   A    
H13   O35   S    
C50   O55   A    
C11   C13   A    
C61   O24   S    
C57   C58   A    
C74   O50   S    
C20   C26   A    
C11   C28   S    
C51   O8    A    
C71   O43   S    
C60   O20   D    
C33   C35   A    
H7    O52   S    
C22   C24   A    
C15   C49   S    
H9    O26   S    
C16   O14   A    
C47   C72   S    
C66   O33   D    
C68   O37   S    
C10   C11   A    
C29   C66   S    
O5    Zn8   S    
C53   O2    A    
C20   C21   A    
C44   C50   S    
C14   C15   A    
C67   C76   A    
C21   C22   A    
C16   C41   S    
C19   Cl19  S    
C28   O15   A    
C33   C68   S    
C39   C48   S    
C55   O5    A    
