data_mof_unit_28660.cif
_audit_creation_date              2012-12-10T20:35:53-0500
_audit_creation_method            fapswitch 2.2
_symmetry_space_group_name_H-M    P1
_symmetry_Int_Tables_number       1
_space_group_crystal_system       triclinic
_cell_length_a                    15.725082
_cell_length_b                    10.658679
_cell_length_c                    9.861898
_cell_angle_alpha                 89.533345
_cell_angle_beta                  89.544712
_cell_angle_gamma                 90.1219
_cell_volume                      1652.82794946

loop_
_atom_site_label
_atom_site_type_symbol
_atom_type_description
_atom_site_fract_x
_atom_site_fract_y
_atom_site_fract_z
_atom_type_partial_charge
C1    C     C_R   0.502874 0.259968 0.500547 0.890625
C2    C     C_R   0.518643 0.129095 0.502659 -0.146692
C3    C     C_R   0.551112 0.069235 0.387542 -0.257369
C4    C     C_R   0.338345 0.499900 0.500536 0.909047
C5    C     C_R   0.555875 0.938647 0.384975 0.147990
C6    C     C_R   0.523951 0.871309 0.499724 -0.164573
C7    C     C_R   0.509696 0.934735 0.620831 0.101945
C8    C     C_3   0.439217 0.923577 0.723176 -0.468045
C9    C     C_3   0.437770 0.065759 0.725266 -0.482668
C10   C     C_R   0.436315 0.441832 0.072934 0.185691
C11   C     C_R   0.566298 0.548680 0.070602 -0.135902
C12   C     C_3   0.950602 0.363277 0.513119 -0.402870
C13   C     C_R   0.565979 0.549682 0.926728 -0.141672
C14   C     C_R   0.437241 0.438148 0.930197 0.193457
C15   C     C_3   0.343558 0.464950 0.925881 -0.086019
C16   C     C_R   0.506340 0.739836 0.499166 0.877707
C17   C     C_3   0.344400 0.475004 0.079982 -0.489510
C18   C     C_R   0.661757 0.499940 0.499408 0.895087
C19   C     C_3   0.048617 0.363488 0.514238 -0.388401
C20   C     C_3   0.049544 0.565167 0.365024 0.050099
C21   C     C_3   0.951434 0.552463 0.359379 -0.422193
C22   C     C_1   0.750699 0.499358 0.497956 -0.196340
C23   C     C_3   0.917532 0.498901 0.496008 0.336600
C24   C     C_3   0.083014 0.499605 0.497356 0.362566
C25   C     C_3   0.593928 0.878633 0.259673 -0.380731
C26   C     C_3   0.530324 0.875561 0.143309 -0.834165
C27   C     C_3   0.289407 0.356235 0.868140 -0.331857
C28   C     C_3   0.294437 0.230625 0.944765 -0.898099
C29   C     C_3   0.094511 0.534397 0.228189 -0.400233
C30   C     C_3   0.097853 0.396052 0.189231 -0.873813
C31   C     C_3   0.950480 0.579890 0.614733 -0.407343
C32   C     C_3   0.048630 0.575422 0.619660 -0.477193
C33   C     C_1   0.826065 0.498920 0.496678 -0.117190
C34   C     C_1   0.174342 0.499414 0.500490 -0.123275
C35   C     C_1   0.249591 0.499543 0.501407 -0.224661
C36   C     C_R   0.507954 0.062189 0.622626 0.136259
H1    H     H_    0.927661 0.303567 0.428761 0.163240
H2    H     H_    0.306484 0.404410 0.137275 0.221350
H3    H     H_    0.062427 0.667405 0.377340 0.100983
H4    H     H_    0.931636 0.490388 0.275164 0.180422
H5    H     H_    0.922913 0.646239 0.338937 0.138342
H6    H     H_    0.069058 0.531335 0.716852 0.179428
H7    H     H_    0.074564 0.672724 0.617873 0.164307
H8    H     H_    0.923776 0.544900 0.712903 0.175232
H9    H     H_    0.925958 0.321564 0.609614 0.169172
H10   H     H_    0.929311 0.678793 0.601363 0.166722
H11   H     H_    0.472965 0.820406 0.172270 0.276268
H12   H     H_    0.070638 0.323260 0.612433 0.157683
H13   H     H_    0.510671 0.972267 0.115005 0.244111
H14   H     H_    0.560368 0.831585 0.053267 0.232996
H15   H     H_    0.650529 0.933785 0.226210 0.183207
H16   H     H_    0.618548 0.783232 0.281253 0.210627
H17   H     H_    0.461005 0.881131 0.820199 0.208282
H18   H     H_    0.378182 0.106812 0.684381 0.198637
H19   H     H_    0.459625 0.105276 0.822907 0.206817
H20   H     H_    0.254943 0.232571 0.038428 0.252167
H21   H     H_    0.360968 0.207216 0.971199 0.259309
H22   H     H_    0.268935 0.154856 0.879934 0.243089
H23   H     H_    0.569544 0.123160 0.298294 0.175030
H24   H     H_    0.221841 0.386394 0.865483 0.192364
H25   H     H_    0.309448 0.339326 0.761878 0.224472
H26   H     H_    0.147793 0.346867 0.247915 0.250494
H27   H     H_    0.035361 0.349407 0.204449 0.254503
H28   H     H_    0.115544 0.388658 0.080352 0.243766
H29   H     H_    0.061489 0.586602 0.145980 0.196429
H30   H     H_    0.160722 0.571171 0.229675 0.205753
H31   H     H_    0.380439 0.881614 0.680690 0.196536
H32   H     H_    0.618942 0.590669 0.123695 0.148294
H33   H     H_    0.073274 0.299913 0.435204 0.175091
H34   H     H_    0.618163 0.592991 0.871585 0.151784
H35   H     H_    0.330002 0.556280 0.875112 0.151540
H36   H     H_    0.334447 0.572653 0.115639 0.180021
N1    N     N_R   0.499430 0.499140 0.142800 -0.105834
N2    N     N_R   0.499430 0.499180 0.857150 -0.122008
O1    O     O_R   0.500010 0.316790 0.614690 -0.612520
O2    O     O_R   0.500000 0.316760 0.385350 -0.619185
O3    O     O_R   0.377150 0.500020 0.614720 -0.634216
O4    O     O_R   0.377140 0.499990 0.385380 -0.610665
O5    O     O_R   0.500000 0.683240 0.614650 -0.615193
O6    O     O_R   0.499990 0.683210 0.385310 -0.613832
O7    O     O_R   0.622860 0.500010 0.614620 -0.618309
O8    O     O_R   0.622850 0.499980 0.385280 -0.627628
Zn1   Zn    Zn3+2 0.500010 0.500020 0.653130 0.932567
Zn2   Zn    Zn3+2 0.499990 0.499980 0.346870 0.932097

loop_
_geom_bond_atom_site_label_1
_geom_bond_atom_site_label_2
_ccdc_geom_bond_type
C30   H28   S    
C7    C36   A    
N2    Zn1   S    
O6    Zn2   S    
O2    Zn2   S    
C24   C32   S    
C28   H20   S    
C7    C8    S    
C28   H21   S    
C12   C23   S    
C14   N2    A    
C34   C35   T    
C27   H24   S    
C26   H14   S    
C5    C6    A    
C10   N1    A    
C13   H34   S    
O3    Zn1   S    
C10   C17   S    
C18   O7    A    
C1    C2    S    
C12   H1    S    
C27   H25   S    
C20   C24   S    
C8    C9    S    
C23   C33   S    
C31   H10   S    
C9    C36   S    
C9    H19   S    
C29   H29   S    
N1    Zn2   S    
C4    C35   S    
C30   H27   S    
O7    Zn1   S    
C20   C29   S    
C31   H8    S    
C1    O1    A    
C11   N1    A    
C26   H13   S    
C20   H3    S    
C19   H12   S    
C25   C26   S    
C24   C34   S    
C16   O6    A    
C23   C31   S    
C25   H15   S    
C4    O4    A    
C29   C30   S    
C15   C27   S    
C31   C32   S    
C13   N2    A    
C26   H11   S    
C8    H31   S    
C5    C25   S    
O8    Zn2   S    
C30   H26   S    
C10   C14   A    
C21   H5    S    
C19   H33   S    
C11   H32   S    
C2    C36   A    
C15   C17   S    
C22   C33   T    
C18   C22   S    
C1    O2    A    
C12   H9    S    
C3    C5    A    
C8    H17   S    
C6    C7    A    
C28   H22   S    
C15   H35   S    
C16   O5    A    
C21   C23   S    
C19   C24   S    
C25   H16   S    
C4    O3    A    
O5    Zn1   S    
C11   C13   A    
O1    Zn1   S    
C21   H4    S    
C12   C19   S    
C18   O8    A    
C32   H7    S    
C2    C3    A    
C17   H2    S    
C6    C16   S    
C29   H30   S    
O4    Zn2   S    
C20   C21   S    
C17   H36   S    
C27   C28   S    
C32   H6    S    
C14   C15   S    
C9    H18   S    
C3    H23   S    
