data_mof_unit_60538.cif
_audit_creation_date              2012-12-10T17:35:32-0500
_audit_creation_method            fapswitch 2.2
_symmetry_space_group_name_H-M    P1
_symmetry_Int_Tables_number       1
_space_group_crystal_system       triclinic
_cell_length_a                    37.007169
_cell_length_b                    30.109132
_cell_length_c                    21.47375
_cell_angle_alpha                 89.992292
_cell_angle_beta                  54.360696
_cell_angle_gamma                 89.995254
_cell_volume                      19445.6700111

loop_
_atom_site_label
_atom_site_type_symbol
_atom_type_description
_atom_site_fract_x
_atom_site_fract_y
_atom_site_fract_z
_atom_type_partial_charge
C1    C     C_R   0.913257 0.499989 0.586685 0.910686
C2    C     C_R   0.342701 0.473036 0.115193 -0.215604
C3    C     C_R   0.967303 0.842931 0.066414 0.571195
C4    C     C_R   0.500004 0.365532 0.000009 -0.388219
C5    C     C_R   0.000004 0.865532 0.000008 -0.388203
C6    C     C_R   0.466606 0.296599 0.066862 -0.132334
C7    C     C_R   0.533407 0.296605 0.933158 -0.132344
C8    C     C_R   0.966598 0.796600 0.066854 -0.132323
C9    C     C_R   0.033415 0.796606 0.933167 -0.132338
C10   C     C_R   0.500006 0.273411 0.000010 -0.255796
C11   C     C_R   0.000006 0.773412 0.000010 -0.255781
C12   C     C_R   0.433357 0.272865 0.132262 0.722330
C13   C     C_R   0.157299 0.973042 0.884825 -0.215554
C14   C     C_R   0.566655 0.272878 0.867758 0.722341
C15   C     C_R   0.933342 0.772866 0.132246 0.722362
C16   C     C_R   0.066671 0.772878 0.867775 0.722361
C17   C     C_R   0.933186 0.726682 0.131284 -0.336722
C18   C     C_R   0.066825 0.726694 0.868734 -0.336720
C19   C     C_R   0.433201 0.226681 0.131300 -0.336784
C20   C     C_R   0.566809 0.226694 0.868716 -0.336772
C21   C     C_R   0.966248 0.703608 0.065788 0.053956
C22   C     C_R   0.033761 0.703614 0.934227 0.053991
C23   C     C_R   0.466255 0.203607 0.065796 0.053966
C24   C     C_R   0.842701 0.973044 0.115182 -0.215583
C25   C     C_R   0.533753 0.203613 0.934218 0.053964
C26   C     C_3   0.032881 0.536740 0.180976 -0.434667
C27   C     C_3   0.965885 0.535670 0.820103 -0.433012
C28   C     C_3   0.533844 0.035918 0.180125 -0.433385
C29   C     C_3   0.466018 0.035787 0.819984 -0.433202
C30   C     C_R   0.000005 0.726910 0.000009 0.135504
C31   C     C_R   0.500005 0.226909 0.000008 0.135488
C32   C     C_R   0.966196 0.657458 0.064997 -0.218236
C33   C     C_R   0.033808 0.657464 0.935013 -0.218314
C34   C     C_R   0.466203 0.157457 0.065005 -0.218366
C35   C     C_R   0.634597 0.499787 0.865008 -0.050832
C36   C     C_R   0.533801 0.157463 0.935003 -0.218358
C37   C     C_R   0.000001 0.634625 0.000003 -0.064555
C38   C     C_R   0.500000 0.134625 0.000002 -0.064482
C39   C     C_R   0.520484 0.657583 0.028232 -0.214488
C40   C     C_R   0.479528 0.657593 0.971733 -0.214485
C41   C     C_R   0.020499 0.157583 0.028205 -0.214505
C42   C     C_R   0.979515 0.157592 0.971756 -0.214506
C43   C     C_R   0.500005 0.634714 0.999985 -0.067942
C44   C     C_R   0.000006 0.134714 0.999984 -0.067921
C45   C     C_R   0.478964 0.703745 0.972301 0.051384
C46   C     C_R   0.365403 0.499788 0.134991 -0.050817
C47   C     C_R   0.521050 0.703736 0.027662 0.051393
C48   C     C_R   0.978951 0.203744 0.972324 0.051394
C49   C     C_R   0.021066 0.203735 0.027632 0.051402
C50   C     C_R   0.500007 0.727038 0.999982 0.133893
C51   C     C_R   0.000009 0.227037 0.999978 0.133886
C52   C     C_R   0.457628 0.726831 0.945821 -0.333319
C53   C     C_R   0.542385 0.726811 0.054144 -0.333351
C54   C     C_R   0.957601 0.226830 0.945871 -0.333344
C55   C     C_R   0.042416 0.226811 0.054085 -0.333357
C56   C     C_R   0.956832 0.273015 0.946769 0.718515
C57   C     C_R   0.134597 0.999787 0.865008 -0.050834
C58   C     C_R   0.043184 0.272995 0.053191 0.718420
C59   C     C_R   0.456859 0.773016 0.946718 0.718526
C60   C     C_R   0.543152 0.772996 0.053252 0.718502
C61   C     C_R   0.977967 0.296736 0.973679 -0.126304
C62   C     C_R   0.022047 0.296726 0.026286 -0.126153
C63   C     C_R   0.477980 0.796737 0.973655 -0.126258
C64   C     C_R   0.522029 0.796727 0.026320 -0.126238
C65   C     C_3   0.014615 0.453722 0.269404 -0.342447
C66   C     C_3   0.987218 0.453288 0.728866 -0.340943
C67   C     C_3   0.513200 0.953389 0.270751 -0.341270
C68   C     C_R   0.865403 0.999788 0.134991 -0.050830
C69   C     C_3   0.487015 0.953332 0.729060 -0.341107
C70   C     C_R   0.000007 0.273538 0.999981 -0.256079
C71   C     C_R   0.500005 0.773539 0.999985 -0.256077
C72   C     C_R   0.977751 0.343065 0.974865 0.561991
C73   C     C_R   0.022258 0.343055 0.025111 0.561743
C74   C     C_R   0.477764 0.843066 0.974840 0.561932
C75   C     C_R   0.522240 0.843055 0.025145 0.561913
C76   C     C_R   0.000002 0.365621 0.999993 -0.380914
C77   C     C_R   0.500001 0.865621 0.999996 -0.381016
C78   C     C_3   0.954050 0.511695 0.333654 -0.539037
C79   C     C_R   0.657469 0.526451 0.799503 -0.241616
C80   C     C_3   0.045623 0.513438 0.666754 -0.538680
C81   C     C_3   0.454294 0.013048 0.333333 -0.538819
C82   C     C_3   0.545663 0.013244 0.666706 -0.538767
C83   C     C_3   0.001358 0.500067 0.309071 0.049309
C84   C     C_3   0.998787 0.500066 0.690794 0.049270
C85   C     C_3   0.501242 0.000073 0.309179 0.049260
C86   C     C_3   0.498772 0.000064 0.690807 0.049272
C87   C     C_3   0.999984 0.501075 0.189583 0.057250
C88   C     C_3   0.000025 0.501220 0.810417 0.057922
C89   C     C_3   0.499978 0.001194 0.189581 0.057755
C90   C     C_R   0.342532 0.526463 0.200473 -0.241608
C91   C     C_3   0.500024 0.001203 0.810417 0.057820
C92   C     C_3   0.015085 0.454847 0.197496 -0.350127
C93   C     C_3   0.986620 0.454465 0.800895 -0.351216
C94   C     C_3   0.513761 0.954551 0.198759 -0.351018
C95   C     C_3   0.486434 0.954503 0.801072 -0.351060
C96   C     C_R   0.157469 0.026453 0.799505 -0.241623
C97   C     C_R   0.086744 0.499989 0.413317 0.909319
C98   C     C_R   0.842531 0.026454 0.200484 -0.241622
C99   C     C_R   0.703676 0.527169 0.753583 0.120411
C100  C     C_R   0.296324 0.527180 0.246393 0.120415
C101  C     C_R   0.203676 0.027170 0.753585 0.120418
C102  C     C_R   0.796324 0.027172 0.246403 0.120414
C103  C     C_R   0.726817 0.499759 0.772744 0.061200
C104  C     C_R   0.273184 0.499761 0.227255 0.061156
C105  C     C_R   0.226817 0.999759 0.772744 0.061192
C106  C     C_R   0.773183 0.999761 0.227254 0.061187
C107  C     C_R   0.703500 0.472314 0.838317 0.113315
C108  C     C_R   0.413256 0.999989 0.586685 0.910388
C109  C     C_R   0.296501 0.472306 0.161704 0.113356
C110  C     C_R   0.203499 0.972312 0.838315 0.113300
C111  C     C_R   0.796501 0.972315 0.161692 0.113325
C112  C     C_R   0.727078 0.554869 0.689176 -0.199995
C113  C     C_R   0.272922 0.554890 0.310777 -0.199941
C114  C     C_R   0.227078 0.054872 0.689180 -0.199998
C115  C     C_R   0.772921 0.054874 0.310799 -0.199988
C116  C     C_R   0.773376 0.555609 0.643849 -0.204026
C117  C     C_R   0.226624 0.555629 0.356105 -0.203987
C118  C     C_R   0.273376 0.055612 0.643853 -0.204047
C119  C     C_R   0.586744 0.999989 0.413315 0.910262
C120  C     C_R   0.726623 0.055613 0.356126 -0.204038
C121  C     C_R   0.796598 0.528219 0.662038 0.124653
C122  C     C_R   0.203402 0.528229 0.337939 0.124523
C123  C     C_R   0.296598 0.028220 0.662040 0.124656
C124  C     C_R   0.703402 0.028221 0.337949 0.124636
C125  C     C_R   0.001287 0.499933 0.377357 0.888006
C126  C     C_R   0.998876 0.499923 0.622488 0.888358
C127  C     C_R   0.501156 0.999929 0.377481 0.888347
C128  C     C_R   0.498860 0.999923 0.622503 0.888362
C129  C     C_R   0.773278 0.499823 0.726370 0.060128
C130  C     C_3   0.952873 0.511199 0.263380 -0.379065
C131  C     C_R   0.226723 0.499824 0.273630 0.060236
C132  C     C_R   0.273278 0.999823 0.726370 0.060150
C133  C     C_R   0.726723 0.999825 0.273628 0.060163
C134  C     C_R   0.796418 0.471508 0.744353 0.109161
C135  C     C_R   0.203583 0.471498 0.255672 0.109782
C136  C     C_R   0.296418 0.971506 0.744351 0.109201
C137  C     C_R   0.703582 0.971508 0.255658 0.109288
C138  C     C_R   0.773021 0.444026 0.809039 -0.187124
C139  C     C_R   0.226980 0.444008 0.191008 -0.187733
C140  C     C_R   0.273021 0.944023 0.809036 -0.187176
C141  C     C_3   0.046763 0.513011 0.737072 -0.380102
C142  C     C_R   0.726979 0.944026 0.190983 -0.187276
C143  C     C_R   0.726721 0.444644 0.856146 -0.191049
C144  C     C_R   0.273280 0.444627 0.143899 -0.190949
C145  C     C_R   0.226721 0.944641 0.856142 -0.190999
C146  C     C_R   0.773280 0.944645 0.143875 -0.191023
C147  C     C_R   0.842800 0.528568 0.616963 -0.256991
C148  C     C_R   0.157201 0.528577 0.383015 -0.256568
C149  C     C_R   0.342800 0.028569 0.616965 -0.257070
C150  C     C_R   0.657200 0.028569 0.383025 -0.257018
C151  C     C_R   0.865454 0.499988 0.634435 -0.057984
C152  C     C_3   0.453151 0.012616 0.263024 -0.379862
C153  C     C_R   0.134547 0.499988 0.365567 -0.057148
C154  C     C_R   0.365454 0.999988 0.634436 -0.057838
C155  C     C_R   0.634546 0.999988 0.365566 -0.057747
C156  C     C_R   0.842621 0.471328 0.697267 -0.204189
C157  C     C_R   0.157381 0.471318 0.302760 -0.205661
C158  C     C_R   0.342621 0.971326 0.697265 -0.204303
C159  C     C_R   0.657380 0.971327 0.302746 -0.204480
C160  C     C_R   0.000000 0.586723 0.000001 0.863392
C161  C     C_R   0.500000 0.086723 0.000000 0.863117
C162  C     C_R   0.999877 0.501050 0.121494 0.866117
C163  C     C_3   0.546806 0.012814 0.737020 -0.379985
C164  C     C_R   0.000118 0.501214 0.878519 0.865728
C165  C     C_R   0.499881 0.001181 0.121483 0.865845
C166  C     C_R   0.500119 0.001195 0.878517 0.865796
C167  C     C_R   0.000000 0.413322 0.999997 1.033816
C168  C     C_R   0.500000 0.913322 0.999999 1.034069
C169  C     C_3   0.034484 0.535529 0.250946 0.488270
C170  C     C_3   0.964374 0.534316 0.750044 0.486330
C171  C     C_3   0.535363 0.034606 0.250180 0.486779
C172  C     C_3   0.464500 0.034452 0.749931 0.486550
C173  C     C_R   0.500000 0.413289 0.000004 1.031309
C174  C     C_R   0.657299 0.473043 0.884827 -0.215589
C175  C     C_R   0.000000 0.913289 0.000003 1.031344
C176  C     C_R   0.586729 0.499922 0.913109 0.898652
C177  C     C_R   0.413271 0.499923 0.086890 0.898655
C178  C     C_R   0.086729 0.999922 0.913109 0.898664
C179  C     C_R   0.913271 0.999923 0.086890 0.898665
C180  C     C_R   0.500001 0.586754 0.999995 0.865791
C181  C     C_R   0.000001 0.086753 0.999995 0.865780
C182  C     C_R   0.532699 0.342937 0.933599 0.571190
C183  C     C_R   0.467311 0.342931 0.066421 0.571179
C184  C     C_R   0.032708 0.842937 0.933606 0.571199
F1    F     F_    0.077329 0.526065 0.227885 -0.670530
F2    F     F_    0.599220 0.294036 0.802838 -0.594749
F3    F     F_    0.900769 0.794018 0.197160 -0.594742
F4    F     F_    0.099245 0.794036 0.802862 -0.594728
F5    F     F_    0.935543 0.294183 0.920937 -0.601412
F6    F     F_    0.064473 0.294153 0.079025 -0.601603
F7    F     F_    0.435584 0.794184 0.920859 -0.601413
F8    F     F_    0.564426 0.794154 0.079114 -0.601457
F9    F     F_    0.957030 0.366623 0.950047 -0.613707
F10   F     F_    0.042979 0.366603 0.049929 -0.613981
F11   F     F_    0.457057 0.866625 0.949995 -0.613769
F12   F     F_    0.921919 0.523261 0.772685 -0.671293
F13   F     F_    0.542946 0.866604 0.049993 -0.613779
F14   F     F_    0.577909 0.023921 0.227466 -0.671123
F15   F     F_    0.422000 0.023574 0.772615 -0.671208
F16   F     F_    0.564194 0.366453 0.870647 -0.591656
F17   F     F_    0.435815 0.366441 0.129372 -0.591665
F18   F     F_    0.064209 0.866454 0.870662 -0.591660
F19   F     F_    0.935800 0.866442 0.129357 -0.591665
F20   F     F_    0.400793 0.294017 0.197184 -0.594763
H1    H     H_    0.928735 0.485508 0.271873 0.204967
H2    H     H_    0.360782 0.547259 0.214537 0.152656
H3    H     H_    0.139219 0.047244 0.785425 0.152660
H4    H     H_    0.860781 0.047244 0.214557 0.152663
H5    H     H_    0.709579 0.576092 0.674176 0.154929
H6    H     H_    0.290422 0.576120 0.325759 0.154937
H7    H     H_    0.209579 0.076096 0.674182 0.154928
H8    H     H_    0.790421 0.076097 0.325788 0.154931
H9    H     H_    0.860906 0.449645 0.710110 0.161580
H10   H     H_    0.139096 0.449627 0.289935 0.160173
H11   H     H_    0.360905 0.949642 0.710107 0.161425
H12   H     H_    0.071801 0.488203 0.727706 0.205577
H13   H     H_    0.639095 0.949643 0.289912 0.161253
H14   H     H_    0.790524 0.422288 0.823357 0.162239
H15   H     H_    0.209477 0.422262 0.176709 0.161801
H16   H     H_    0.290524 0.922284 0.823352 0.162206
H17   H     H_    0.709477 0.922287 0.176674 0.162128
H18   H     H_    0.709081 0.423388 0.906239 0.158634
H19   H     H_    0.290920 0.423364 0.093823 0.158573
H20   H     H_    0.209080 0.923384 0.906234 0.158656
H21   H     H_    0.790920 0.923389 0.093790 0.158613
H22   H     H_    0.907246 0.708927 0.182001 0.179521
H23   H     H_    0.428311 0.987614 0.272193 0.205463
H24   H     H_    0.092764 0.708944 0.818016 0.179534
H25   H     H_    0.407267 0.208926 0.182024 0.179516
H26   H     H_    0.592742 0.208944 0.817992 0.179523
H27   H     H_    0.441348 0.709084 0.924637 0.181913
H28   H     H_    0.558666 0.709056 0.075326 0.181890
H29   H     H_    0.941310 0.209083 0.924709 0.181898
H30   H     H_    0.058708 0.209056 0.075246 0.181875
H31   H     H_    0.022170 0.570267 0.175788 0.123172
H32   H     H_    0.975377 0.569575 0.826437 0.123399
H33   H     H_    0.524088 0.069742 0.174020 0.123362
H34   H     H_    0.571748 0.987910 0.727752 0.205517
H35   H     H_    0.475641 0.069654 0.826196 0.123378
H36   H     H_    0.066848 0.530906 0.127986 0.231821
H37   H     H_    0.932126 0.528652 0.872823 0.232430
H38   H     H_    0.567656 0.029154 0.127357 0.232295
H39   H     H_    0.432233 0.028896 0.872733 0.232365
H40   H     H_    0.048027 0.443857 0.253349 0.216104
H41   H     H_    0.954205 0.442180 0.744504 0.217709
H42   H     H_    0.546310 0.942568 0.255010 0.217337
H43   H     H_    0.453955 0.942362 0.744749 0.217538
H44   H     H_    0.049240 0.447372 0.146152 0.227549
H45   H     H_    0.990484 0.427996 0.309298 0.189049
H46   H     H_    0.952736 0.445804 0.851930 0.228801
H47   H     H_    0.547706 0.946147 0.147651 0.228485
H48   H     H_    0.452519 0.945969 0.852144 0.228671
H49   H     H_    0.929551 0.487312 0.376794 0.196818
H50   H     H_    0.071016 0.489967 0.622769 0.195548
H51   H     H_    0.429105 0.989357 0.377119 0.195850
H52   H     H_    0.570958 0.989668 0.622820 0.195689
H53   H     H_    0.992581 0.428620 0.201555 0.192158
H54   H     H_    0.010025 0.429071 0.796036 0.190409
H55   H     H_    0.490547 0.928971 0.203466 0.190819
H56   H     H_    0.012300 0.428464 0.688095 0.187701
H57   H     H_    0.509744 0.929018 0.796296 0.190625
H58   H     H_    0.638920 0.452284 0.935587 0.156940
H59   H     H_    0.361081 0.452270 0.064449 0.156920
H60   H     H_    0.138920 0.952282 0.935584 0.156955
H61   H     H_    0.861080 0.952285 0.064430 0.156937
H62   H     H_    0.791015 0.577395 0.594454 0.152720
H63   H     H_    0.208985 0.577422 0.405481 0.152765
H64   H     H_    0.291015 0.077398 0.594460 0.152737
H65   H     H_    0.708985 0.077399 0.405511 0.152743
H66   H     H_    0.861227 0.550291 0.567474 0.146221
H67   H     H_    0.488337 0.928352 0.311333 0.188021
H68   H     H_    0.138774 0.550308 0.432486 0.146221
H69   H     H_    0.361226 0.050294 0.567478 0.146250
H70   H     H_    0.638773 0.050293 0.432505 0.146256
H71   H     H_    0.025453 0.569022 0.277943 0.099509
H72   H     H_    0.972180 0.568090 0.724169 0.099412
H73   H     H_    0.527267 0.068319 0.276304 0.099441
H74   H     H_    0.472444 0.068197 0.723931 0.099430
H75   H     H_    0.940374 0.639245 0.115282 0.154530
H76   H     H_    0.059629 0.639256 0.884726 0.154479
H77   H     H_    0.440387 0.139244 0.115295 0.154479
H78   H     H_    0.511992 0.928405 0.688385 0.187854
H79   H     H_    0.559615 0.139255 0.884711 0.154476
H80   H     H_    0.536588 0.639413 0.049413 0.160912
H81   H     H_    0.463424 0.639429 0.950554 0.160918
H82   H     H_    0.036613 0.139412 0.049365 0.160897
H83   H     H_    0.963400 0.139428 0.950598 0.160898
H84   H     H_    0.944065 0.545136 0.360853 0.181594
H85   H     H_    0.054388 0.547219 0.640780 0.183015
H86   H     H_    0.445243 0.046752 0.359595 0.182673
H87   H     H_    0.554566 0.046989 0.640590 0.182855
H88   H     H_    0.940951 0.543952 0.258013 0.179157
H89   H     H_    0.639219 0.547241 0.785422 0.152663
H90   H     H_    0.057487 0.546167 0.743654 0.177915
H91   H     H_    0.442166 0.045690 0.256702 0.178182
H92   H     H_    0.557659 0.045929 0.743468 0.178047
O1    O     O_R   0.933920 0.537280 0.566050 -0.611253
O2    O     O_R   0.433920 0.499950 0.013850 -0.635424
O3    O     O_R   0.066080 0.999950 0.986150 -0.635431
O4    O     O_R   0.933920 0.999950 0.013850 -0.635434
O5    O     O_R   0.499950 0.566010 0.947790 -0.629486
O6    O     O_R   0.500050 0.566010 0.052210 -0.629480
O7    O     O_R   0.999950 0.066010 0.947790 -0.629484
O8    O     O_R   0.000050 0.066010 0.052210 -0.629480
O9    O     O_R   0.933880 0.462680 0.566080 -0.624629
O10   O     O_R   0.066120 0.462680 0.433920 -0.625282
O11   O     O_R   0.433880 0.962680 0.566080 -0.624820
O12   O     O_R   0.066080 0.537280 0.433950 -0.610501
O13   O     O_R   0.566120 0.962680 0.433920 -0.624904
O14   O     O_R   0.999990 0.537270 0.407410 -0.633206
O15   O     O_R   0.000010 0.537270 0.592590 -0.634518
O16   O     O_R   0.499990 0.037270 0.407410 -0.634165
O17   O     O_R   0.500010 0.037270 0.592590 -0.634346
O18   O     O_R   0.999940 0.462670 0.407440 -0.630816
O19   O     O_R   0.000060 0.462670 0.592560 -0.630020
O20   O     O_R   0.499940 0.962670 0.407440 -0.630252
O21   O     O_R   0.500060 0.962670 0.592560 -0.630147
O22   O     O_R   0.962660 0.566020 0.037320 -0.627218
O23   O     O_R   0.433920 0.037280 0.566050 -0.611122
O24   O     O_R   0.037340 0.566020 0.962680 -0.627114
O25   O     O_R   0.462660 0.066020 0.037320 -0.627247
O26   O     O_R   0.537340 0.066020 0.962680 -0.627233
O27   O     O_R   0.962680 0.499950 0.129900 -0.638913
O28   O     O_R   0.037320 0.499950 0.870100 -0.638831
O29   O     O_R   0.462680 0.999950 0.129900 -0.638849
O30   O     O_R   0.537320 0.999950 0.870100 -0.638844
O31   O     O_R   0.037280 0.499990 0.055330 -0.613062
O32   O     O_R   0.962720 0.499990 0.944670 -0.612963
O33   O     O_R   0.537280 0.999990 0.055330 -0.612986
O34   O     O_R   0.566080 0.037280 0.433950 -0.611023
O35   O     O_R   0.462720 0.999990 0.944670 -0.612974
O36   O     O_R   0.962680 0.433880 0.037290 -0.589375
O37   O     O_R   0.037320 0.433880 0.962710 -0.589428
O38   O     O_R   0.462680 0.933880 0.037290 -0.589340
O39   O     O_R   0.537320 0.933880 0.962710 -0.589359
O40   O     O_R   0.499930 0.433870 0.947760 -0.588724
O41   O     O_R   0.500070 0.433870 0.052240 -0.588722
O42   O     O_R   0.999930 0.933870 0.947760 -0.588744
O43   O     O_R   0.000070 0.933870 0.052240 -0.588723
O44   O     O_R   0.566010 0.499970 0.881660 -0.603026
O45   O     O_R   0.433990 0.499970 0.118340 -0.603029
O46   O     O_R   0.066010 0.999970 0.881660 -0.603026
O47   O     O_R   0.933990 0.999970 0.118340 -0.603031
O48   O     O_R   0.566080 0.499950 0.986150 -0.635433
Zn1   Zn    Zn3+2 0.000000 0.549780 0.500000 0.989050
Zn2   Zn    Zn3+2 0.500070 0.499950 0.069750 1.015326
Zn3   Zn    Zn3+2 0.999930 0.999950 0.930250 1.015316
Zn4   Zn    Zn3+2 0.000070 0.999950 0.069750 1.015338
Zn5   Zn    Zn3+2 0.500000 0.049780 0.500000 0.988344
Zn6   Zn    Zn3+2 0.000000 0.450160 0.500000 0.979330
Zn7   Zn    Zn3+2 0.500000 0.950160 0.500000 0.979692
Zn8   Zn    Zn3+2 0.950160 0.499940 0.049810 0.999771
Zn9   Zn    Zn3+2 0.049840 0.499940 0.950190 0.999731
Zn10  Zn    Zn3+2 0.450160 0.999940 0.049810 0.999770
Zn11  Zn    Zn3+2 0.549840 0.999940 0.950190 0.999751
Zn12  Zn    Zn3+2 0.499930 0.499950 0.930250 1.015326

loop_
_geom_bond_atom_site_label_1
_geom_bond_atom_site_label_2
_ccdc_geom_bond_type
C99   C103  A    
C105  C110  A    
C164  O28   A    
C133  C137  A    
C24   H61   S    
C148  H68   S    
C91   C166  S    
C59   F7    S    
O34   Zn5   S    
C136  C140  A    
C163  H92   S    
C77   C168  S    
C135  C139  A    
O43   Zn4   S    
C97   O10   A    
C80   H50   S    
C124  C133  A    
C37   C160  S    
C79   C99   A    
C113  H6    S    
C154  C158  A    
C173  O40   A    
C138  C143  A    
C57   C178  S    
C67   H42   S    
C178  O46   A    
C180  O6    A    
C100  C104  A    
C181  O7    A    
C172  F15   S    
C89   C94   S    
C142  C146  A    
C162  O31   A    
C140  H16   S    
C106  C133  A    
C49   C51   A    
C67   C94   S    
C121  C147  A    
O19   Zn6   S    
C122  C148  A    
O9    Zn6   S    
C110  C145  A    
C81   H86   S    
C171  H73   S    
C47   C53   A    
O17   Zn5   S    
C73   F10   S    
O40   Zn12  S    
C98   H4    S    
C28   H38   S    
C41   C49   A    
C84   C126  S    
C65   H40   S    
C43   C180  S    
C67   C85   S    
C116  C121  A    
C86   C128  S    
C183  F17   S    
O14   Zn1   S    
C3    C8    A    
C16   F4    S    
C98   C102  A    
C17   C21   A    
C23   C31   A    
O26   Zn11  S    
C95   H48   S    
C19   C23   A    
C175  O43   A    
C28   H33   S    
C174  H58   S    
C29   H39   S    
C19   H25   S    
O4    Zn3   S    
C115  H8    S    
C63   C74   A    
C63   C71   A    
C4    C173  S    
C177  O2    A    
C148  C153  A    
C107  C143  A    
C29   C91   S    
C87   C130  S    
C39   C47   A    
O33   Zn11  S    
C97   O12   A    
C150  H70   S    
C69   C95   S    
O5    Zn12  S    
C140  C145  A    
O21   Zn7   S    
C146  H21   S    
C59   C63   A    
C60   C64   A    
O46   Zn3   S    
C112  H5    S    
C9    C184  A    
C49   C55   A    
C79   H89   S    
C141  H90   S    
C45   C50   A    
C83   C169  S    
C109  C144  A    
C68   C98   A    
C82   H87   S    
C25   C36   A    
C95   H57   S    
C103  C107  A    
C44   C181  S    
C26   H31   S    
C25   C31   A    
C137  C142  A    
C2    C109  A    
O2    Zn12  S    
C135  C157  A    
C123  C132  A    
C92   H53   S    
C92   H44   S    
C160  O22   A    
C62   C70   A    
C85   C171  S    
C86   C172  S    
O39   Zn11  S    
C147  H66   S    
C84   C170  S    
C13   C57   A    
C128  O17   A    
C17   H22   S    
O28   Zn9   S    
C69   H43   S    
C89   C152  S    
C164  O32   A    
C26   C87   S    
C74   C77   A    
C58   F6    S    
C166  O30   A    
C62   C73   A    
C178  O3    A    
C5    C184  A    
C60   F8    S    
C136  C158  A    
C153  C157  A    
C46   C177  S    
C10   C31   A    
C78   H84   S    
C53   C60   A    
C47   C50   A    
C106  C111  A    
C40   C43   A    
O16   Zn5   S    
C155  C159  A    
C111  C146  A    
C88   C93   S    
C45   C52   A    
C88   C164  S    
C1    O9    A    
O42   Zn3   S    
C129  C134  A    
C114  H7    S    
C147  C151  A    
C117  C122  A    
C152  H23   S    
C69   H78   S    
C39   H80   S    
C132  C136  A    
C23   C34   A    
C42   C48   A    
C32   C37   A    
C81   H51   S    
C75   C77   A    
C32   H75   S    
C27   H32   S    
C66   C93   S    
C113  C117  A    
O41   Zn2   S    
O24   Zn9   S    
C161  O26   A    
C150  C155  A    
C119  O13   A    
O27   Zn8   S    
C34   H77   S    
C55   H30   S    
C122  C131  A    
C112  C116  A    
C93   H46   S    
C160  O24   A    
C74   F11   S    
C22   C30   A    
C18   C22   A    
C78   H49   S    
C36   H79   S    
C125  O18   A    
C52   H27   S    
C107  C174  A    
C68   C179  S    
O18   Zn6   S    
C168  O39   A    
C170  F12   S    
C35   C79   A    
C64   C75   A    
C12   F20   S    
C4    C183  A    
C53   H28   S    
C91   C95   S    
O32   Zn8   S    
C26   H36   S    
C87   C162  S    
C108  C154  S    
C156  H9    S    
C96   C101  A    
C81   C85   S    
C33   H76   S    
C61   C70   A    
C58   C62   A    
C7    C10   A    
O1    Zn1   S    
C108  O23   A    
O13   Zn7   S    
C3    F19   S    
C88   C141  S    
C80   C84   S    
C82   H52   S    
C143  H18   S    
C127  O16   A    
O31   Zn9   S    
C157  H10   S    
C119  O34   A    
C42   C44   A    
C1    O1    A    
C171  F14   S    
O22   Zn8   S    
C6    C12   A    
C20   C25   A    
C40   H81   S    
C64   C71   A    
C144  H19   S    
C102  C115  A    
C90   H2    S    
C78   C83   S    
C38   C161  S    
C134  C156  A    
C11   C30   A    
C57   C96   A    
C97   C153  S    
C142  H17   S    
C42   H83   S    
C67   H67   S    
O29   Zn10  S    
C87   C92   S    
C101  C114  A    
C5    C175  S    
C91   C163  S    
O12   Zn1   S    
C83   C125  S    
C27   H37   S    
C141  H12   S    
C126  O19   A    
C105  C132  A    
C75   F13   S    
C40   C45   A    
C20   H26   S    
C137  C159  A    
O44   Zn12  S    
C14   C20   A    
C152  H91   S    
C182  F16   S    
C72   F9    S    
C96   H3    S    
C82   C86   S    
C180  O5    A    
O35   Zn10  S    
C33   C37   A    
C120  H65   S    
C181  O8    A    
C149  H69   S    
C149  C154  A    
C176  O48   A    
C2    H59   S    
C50   C71   A    
C151  C156  A    
C103  C129  A    
C27   C170  S    
C117  H63   S    
C18   H24   S    
C118  H64   S    
C61   C72   A    
C8    C15   A    
C166  O35   A    
C41   C44   A    
C41   H82   S    
C15   C17   A    
C124  C150  A    
C121  C129  A    
C3    C5    A    
C6    C10   A    
O45   Zn2   S    
C46   C90   A    
C21   C30   A    
C66   H56   S    
C6    C183  A    
C36   C38   A    
O36   Zn8   S    
C12   C19   A    
C1    C151  S    
C118  C123  A    
C78   C130  S    
C13   H60   S    
C168  O38   A    
C24   C68   A    
C93   H54   S    
O20   Zn7   S    
C80   C141  S    
O8    Zn4   S    
C55   C58   A    
C130  H88   S    
C165  O33   A    
C56   C61   A    
C4    C182  A    
C125  O14   A    
C172  H74   S    
O11   Zn7   S    
C66   H41   S    
C162  O27   A    
C65   C92   S    
C123  C149  A    
C65   H45   S    
C169  H71   S    
C72   C76   A    
C170  H72   S    
C94   H47   S    
C145  H20   S    
C2    C46   A    
C48   C54   A    
C35   C176  S    
C179  O4    A    
C9    C16   A    
O25   Zn10  S    
C131  C135  A    
C104  C109  A    
C14   F2    S    
C80   H85   S    
C65   C83   S    
C82   C163  S    
C76   C167  S    
C7    C14   A    
C108  O11   A    
C159  H13   S    
O37   Zn9   S    
C51   C70   A    
C165  O29   A    
C127  O20   A    
C161  O25   A    
O47   Zn4   S    
C24   C111  A    
C167  O37   A    
C90   C100  A    
C48   C51   A    
C101  C105  A    
C21   C32   A    
C54   C56   A    
C184  F18   S    
C26   C169  S    
C175  O42   A    
O10   Zn6   S    
C39   C43   A    
C158  H11   S    
C15   F3    S    
C104  C131  A    
O38   Zn10  S    
C13   C110  A    
C52   C59   A    
C139  H15   S    
C139  C144  A    
C28   C171  S    
C94   H55   S    
C9    C11   A    
C89   C165  S    
C126  O15   A    
C114  C118  A    
C163  H34   S    
O48   Zn2   S    
C128  O21   A    
C28   C89   S    
C85   C127  S    
C177  O45   A    
O30   Zn11  S    
C179  O47   A    
C22   C33   A    
C56   F5    S    
C119  C155  S    
C7    C182  A    
C34   C38   A    
C35   C174  A    
O7    Zn3   S    
C100  C113  A    
C176  O44   A    
C134  C138  A    
O6    Zn2   S    
C81   C152  S    
O23   Zn5   S    
O3    Zn4   S    
C169  F1    S    
O15   Zn1   S    
C130  H1    S    
C167  O36   A    
C116  H62   S    
C8    C11   A    
C99   C112  A    
C73   C76   A    
C102  C106  A    
C29   C172  S    
C27   C88   S    
C66   C84   S    
C138  H14   S    
C16   C18   A    
C115  C120  A    
C54   H29   S    
C29   H35   S    
C173  O41   A    
C69   C86   S    
C120  C124  A    
