data_mof_unit_65224.cif
_audit_creation_date              2013-03-05T16:03:34-0500
_audit_creation_method            fapswitch 2.2
_symmetry_space_group_name_H-M    P1
_symmetry_Int_Tables_number       1
_space_group_crystal_system       triclinic
_cell_length_a                    8.43004
_cell_length_b                    14.393352
_cell_length_c                    23.012095
_cell_angle_alpha                 93.995535
_cell_angle_beta                  88.662563
_cell_angle_gamma                 92.056477
_cell_volume                      2783.01906137

loop_
_atom_site_label
_atom_site_type_symbol
_atom_site_description
_atom_site_fract_x
_atom_site_fract_y
_atom_site_fract_z
_atom_type_partial_charge
P1    P     P_3+3 0.074990 0.420800 0.372080 0.571817
O1    O     O_2   0.901900 0.448470 0.362340 -0.272899
O2    O     O_3   0.142240 0.449440 0.433360 -0.368003
O3    O     O_3   0.645560 0.619080 0.391970 -0.333640
O4    O     O_2   0.769315 0.563769 0.289269 -0.277711
O5    O     O_3   0.056815 0.299411 0.360842 -0.547568
O6    O     O_3   0.664271 0.733167 0.295097 -0.541575
H1    H     H_    0.741373 0.783099 0.376648 0.129742
C1    C     C_3   0.670391 0.896576 0.328527 0.031098
H2    H     H_    0.659590 0.943802 0.368561 0.091104
H3    H     H_    0.789253 0.909150 0.308763 0.142750
P2    P     P_3+3 0.618830 0.715330 0.538180 0.487238
P3    P     P_3+3 0.077834 0.789400 0.418329 0.459956
O7    O     O_2   0.793170 0.729090 0.520590 -0.391658
O8    O     O_3   0.052800 0.667320 0.419180 -0.324806
O9    O     O_2   0.949088 0.833951 0.458905 -0.415471
O10   O     O_3   0.615973 0.743047 0.613405 -0.580821
O11   O     O_3   0.033719 0.827252 0.349768 -0.560715
C2    C     C_3   0.096566 0.768120 0.304114 0.426118
H4    H     H_    0.047399 0.695594 0.307080 0.096688
C3    C     C_3   0.043205 0.804448 0.246189 -0.536578
H5    H     H_    0.912118 0.805766 0.246349 0.252132
H6    H     H_    0.089560 0.877207 0.242498 0.235092
C4    C     C_3   0.173975 0.741750 0.588271 0.339503
H7    H     H_    0.285851 0.712068 0.570857 0.117235
H8    H     H_    0.079798 0.730166 0.555414 0.137571
C5    C     C_3   0.201540 0.846896 0.602181 -0.627903
H9    H     H_    0.314599 0.859685 0.625861 0.225519
H10   H     H_    0.213045 0.882572 0.561152 0.189495
Ba1   Ba    Ba6+2 0.846250 0.544220 0.470860 1.641554
C6    C     C_3   0.009053 0.259398 0.412272 0.348506
H11   H     H_    0.887493 0.280217 0.423746 0.118432
H12   H     H_    0.089327 0.281577 0.448648 0.102174
C7    C     C_3   0.013895 0.153190 0.402433 -0.603306
H13   H     H_    0.970092 0.120402 0.442002 0.193917
H14   H     H_    0.138139 0.131733 0.394483 0.184431
C8    C     C_3   0.684074 0.672632 0.642294 0.415471
H15   H     H_    0.806324 0.660551 0.625456 0.087256
H16   H     H_    0.610248 0.607139 0.637346 0.110207
C9    C     C_3   0.691177 0.704766 0.706650 -0.991397
H17   H     H_    0.764963 0.770144 0.712344 0.256914
H18   H     H_    0.743874 0.651438 0.731837 0.219297
H19   H     H_    0.569562 0.717675 0.724287 0.269106
P4    P     P_3+3 0.114710 0.579280 0.627920 0.498472
O12   O     O_2   0.287790 0.551560 0.637690 -0.344606
O13   O     O_3   0.047460 0.550640 0.566640 -0.387105
O14   O     O_3   0.544140 0.380990 0.608030 -0.423578
O15   O     O_3   0.128828 0.700681 0.639496 -0.585957
P5    P     P_3+3 0.110384 0.209738 0.581362 0.404840
O16   O     O_3   0.640350 0.387150 0.474440 -0.320836
O17   O     O_3   0.136890 0.332750 0.580830 -0.389761
O18   O     O_2   0.238337 0.165020 0.540526 -0.405886
O19   O     O_3   0.146348 0.163162 0.648409 -0.543601
Ba2   Ba    Ba6+2 0.343570 0.455860 0.529140 1.578468
P6    P     P_3+3 0.627566 0.619004 0.315941 0.555910
C10   C     C_3   0.649617 0.795670 0.344684 0.289041
H20   H     H_    0.532004 0.787486 0.365931 0.049545
O20   O     O_3   0.549340 0.612930 0.525560 -0.315170
C11   C     C_3   0.543181 0.268906 0.343886 0.668838
C12   C     C_3   0.623010 0.231809 0.286600 0.088795
H21   H     H_    0.606337 0.154778 0.281149 0.127520
H22   H     H_    0.752603 0.248570 0.287678 0.177081
P7    P     P_3+3 0.577377 0.269532 0.461435 0.459251
O21   O     O_2   0.396530 0.270940 0.479440 -0.383140
O22   O     O_3   0.605311 0.221070 0.389129 -0.652779
C13   C     C_3   0.158994 0.231585 0.694966 0.473014
H23   H     H_    0.244828 0.287854 0.683451 0.146416
C14   C     C_3   0.219648 0.184744 0.747827 -0.510291
H24   H     H_    0.325536 0.145344 0.734143 0.219663
H25   H     H_    0.254362 0.238469 0.782814 0.208950
P8    P     P_3+3 0.556573 0.393287 0.684558 0.488660
C15   C     C_3   0.614003 0.213674 0.682005 0.427721
H26   H     H_    0.717807 0.241692 0.657537 0.023144
O23   O     O_2   0.404826 0.443297 0.706414 -0.326077
O24   O     O_3   0.529885 0.284101 0.713900 -0.502864
H27   H     H_    0.748954 0.188347 0.758584 0.255777
C16   C     C_3   0.675182 0.147443 0.726165 -0.554872
H28   H     H_    0.575189 0.115819 0.750922 0.211467
H29   H     H_    0.752613 0.469459 0.090978 0.229630
H30   H     H_    0.679318 0.460142 0.988633 0.188993
C17   C     C_R   0.333114 0.524525 0.329406 -0.404855
C18   C     C_R   0.188340 0.519168 0.926162 -0.096834
C19   C     C_R   0.142110 0.508074 0.866868 0.535673
O25   O     O_2   0.244599 0.502237 0.828571 -0.549282
N1    N     N_R   0.982044 0.503491 0.852419 -0.155670
C20   C     C_R   0.869705 0.507489 0.897887 0.619025
O26   O     O_2   0.731783 0.523388 0.888374 -0.578928
C21   C     C_R   0.913647 0.497074 0.955860 -0.088945
C22   C     C_R   0.073620 0.508289 0.970600 -0.003073
C23   C     C_R   0.344524 0.544915 0.942336 -0.095446
C24   C     C_R   0.386420 0.556024 0.001631 0.052516
C25   C     C_R   0.276853 0.528389 0.045441 -0.099031
C26   C     C_R   0.118083 0.510968 0.030082 -0.020025
C27   C     C_R   0.800847 0.478512 0.999768 -0.115237
C28   C     C_R   0.843579 0.482155 0.058278 -0.028351
C29   C     C_R   0.002177 0.500613 0.074268 -0.088053
C30   C     C_R   0.046606 0.510767 0.133379 0.581849
N2    N     N_R   0.205873 0.512343 0.148722 -0.161244
C31   C     C_R   0.320468 0.519196 0.104161 0.574984
C32   C     C_2   0.798147 0.447567 0.772818 0.419022
C33   C     C_3   0.734358 0.464262 0.713150 0.062867
C34   C     C_1   0.993443 0.529474 0.687229 0.288365
C35   C     C_2   0.022379 0.551242 0.744150 -0.081579
C36   C     C_2   0.931188 0.498589 0.790916 -0.069267
C37   C     C_R   0.388225 0.565314 0.231215 -0.289537
C38   C     C_R   0.434893 0.565367 0.289414 0.278901
C39   C     C_R   0.195481 0.474959 0.312890 0.123050
C40   C     C_R   0.162714 0.460687 0.252575 0.450384
C41   C     C_R   0.251822 0.512325 0.210630 -0.001077
O27   O     O_2   0.942750 0.520998 0.170919 -0.520657
O28   O     O_2   0.460747 0.513868 0.114787 -0.565667
C42   C     C_2   0.869893 0.475565 0.670232 -0.411385
H31   H     H_    0.459194 0.607339 0.202678 0.205363
H32   H     H_    0.431275 0.562312 0.909061 0.204182
H33   H     H_    0.369730 0.522794 0.373510 0.251414
C43   C     C_R   0.691613 0.936353 0.529980 -0.098481
C44   C     C_R   0.513629 0.801446 0.497365 0.141431
C45   C     C_R   0.378736 0.769872 0.466058 0.032735
C46   C     C_R   0.273967 0.832262 0.445241 0.179973
C47   C     C_R   0.314456 0.927092 0.448312 -0.316207
C48   C     C_R   0.456068 0.960468 0.474607 0.040382
C49   C     C_R   0.554779 0.898666 0.501316 -0.084558
C50   C     C_R   0.633782 0.092952 0.503659 -0.016416
C51   C     C_R   0.734005 0.031859 0.529856 0.041157
C52   C     C_R   0.675151 0.189527 0.505972 0.252383
C53   C     C_R   0.815301 0.222799 0.531713 -0.560390
C54   C     C_R   0.917762 0.162792 0.554929 0.286375
C55   C     C_R   0.877173 0.067310 0.554601 -0.338860
C56   C     C_R   0.496808 0.055696 0.475533 -0.087203
H34   H     H_    0.234378 0.974830 0.430804 0.173714
H35   H     H_    0.958393 0.020952 0.572587 0.176585
H36   H     H_    0.853306 0.294511 0.527806 0.155365
H37   H     H_    0.767749 0.892370 0.552026 0.163799
H38   H     H_    0.419726 0.099940 0.453852 0.162194
N3    N     N_3   0.071489 0.887813 0.637323 -0.169564
H39   H     H_    0.963172 0.863336 0.619922 0.144315
H40   H     H_    0.076144 0.865915 0.679619 0.185105
N4    N     N_3   0.915672 0.119015 0.353603 -0.158490
H41   H     H_    0.973507 0.136579 0.314980 0.202610
H42   H     H_    0.912871 0.046331 0.352536 0.146743
Cl1   Cl    Cl    0.524672 0.925728 0.278685 -0.621939
N5    N     N_3   0.372950 0.250852 0.340322 -0.170635
H43   H     H_    0.350954 0.178728 0.336868 0.102836
H44   H     H_    0.323862 0.275928 0.379829 0.154693
Cl2   Cl    Cl    0.585746 0.389986 0.351671 -0.551034
Cl3   Cl    Cl    0.543929 0.280545 0.224379 -0.487213
N6    N     N_3   0.092151 0.746347 0.194672 -0.189760
H45   H     H_    0.208848 0.764612 0.182638 0.151518
H46   H     H_    0.087767 0.676672 0.204438 0.147227
N7    N     N_3   0.005494 0.270549 0.710416 -0.216606
H47   H     H_    0.974195 0.309650 0.676799 0.083946
H48   H     H_    0.021307 0.318139 0.746371 0.103653
N8    N     N_3   0.100038 0.119476 0.770144 -0.170462
H49   H     H_    0.156263 0.077660 0.798229 0.141927
H50   H     H_    0.018057 0.157519 0.795979 0.157747
N9    N     N_3   0.505209 0.162971 0.641673 -0.182561
H51   H     H_    0.564711 0.109812 0.618476 0.073818
H52   H     H_    0.472755 0.208444 0.610992 0.180509
N10   N     N_3   0.771482 0.072998 0.699278 -0.206350
H53   H     H_    0.855829 0.101294 0.671122 0.173925
H54   H     H_    0.699385 0.024179 0.675583 0.137400
N11   N     N_3   0.532141 0.604825 0.017923 -0.182264
H55   H     H_    0.593261 0.627017 0.981049 0.130918
H56   H     H_    0.502492 0.665585 0.042762 0.130796
N12   N     N_3   0.103042 0.638743 0.760161 -0.180330
H57   H     H_    0.079347 0.658947 0.803884 0.110002
H58   H     H_    0.225099 0.629410 0.755176 0.190394
Cl4   Cl    Cl    0.707902 0.360764 0.814714 -0.600503
Cl5   Cl    Cl    0.030586 0.367455 0.230435 -0.500834
N13   N     N_3   0.269895 0.770274 0.306557 -0.157269
H59   H     H_    0.319337 0.744205 0.267124 0.116118
H60   H     H_    0.300125 0.723044 0.336430 0.075996
N14   N     N_3   0.862180 0.433608 0.612142 -0.133901
H61   H     H_    0.823711 0.364718 0.613758 0.106564
H62   H     H_    0.781680 0.469877 0.589254 0.172310
Cl6   Cl    Cl    0.340073 0.650979 0.452039 -0.599725

loop_
_geom_bond_atom_site_label_1
_geom_bond_atom_site_label_2
_geom_bond_distance
_ccdc_geom_bond_type
C13   C14   1.537472 S    
P7    O22   1.772659 S    
C53   C54   1.384498 A    
C15   N9    1.460292 S    
C5    H10   1.106463 S    
C34   C42   1.326121 D    
C28   C29   1.406176 A    
C2    N13   1.462699 S    
O6    P6    1.758498 S    
H1    C10   1.107816 S    
C17   C39   1.386724 A    
C30   N2    1.395230 Am   
N3    H39   1.045253 S    
N14   H61   1.035004 S    
C10   H20   1.101351 S    
C33   C42   1.504566 S    
Ba1   Ba2   4.677116 S    
N12   H57   1.044437 S    
C18   C22   1.403860 A    
C43   C49   1.414461 A    
P3    O11   1.756741 S    
C19   O25   1.220481 D    
C47   H34   1.083852 S    
C3    N6    1.462466 S    
C37   H31   1.079862 S    
N9    H51   1.039284 S    
C2    C3    1.547444 S    
C8    H15   1.107829 S    
C4    H8    1.109381 S    
C7    H13   1.104479 S    
C8    C9    1.522336 S    
O2    Ba2   2.807511 S    
C20   C21   1.412243 A    
C50   C52   1.418599 A    
N13   H59   1.041186 S    
N2    C31   1.398394 Am   
C32   C36   1.375014 D    
C40   C41   1.440293 A    
C12   H22   1.110778 S    
P1    O1    1.551581 D    
C45   C46   1.397337 A    
C25   C26   1.401732 A    
O5    C6    1.396638 S    
N6    H45   1.045209 S    
C9    H19   1.110889 S    
C2    H4    1.115226 S    
C11   N5    1.452372 S    
C14   H24   1.102675 S    
P5    O17   1.777477 S    
P2    O10   1.748977 S    
C39   C40   1.420931 A    
N10   H54   1.044924 S    
C24   N11   1.437310 S    
N8    H50   1.045723 S    
C1    H2    1.110109 S    
C16   H28   1.108370 S    
C51   C55   1.410196 A    
P2    O20   1.576752 S    
C9    H18   1.104954 S    
C42   N14   1.429891 S    
P8    C33   1.888174 S    
C45   Cl6   1.739745 S    
C11   C12   1.536912 S    
N12   H58   1.045084 S    
N2    C41   1.485072 S    
C3    H5    1.105825 S    
C50   C56   1.407782 A    
C22   C26   1.425194 A    
O16   P7    1.763417 S    
C17   H33   1.069890 S    
C34   C35   1.351159 D    
C12   Cl3   1.790175 S    
O6    C10   1.408907 S    
O7    Ba1   2.868350 S    
C15   O24   1.411634 S    
P3    C46   1.849122 S    
P4    O13   1.555467 S    
N11   H56   1.045648 S    
N14   H62   1.044460 S    
P5    C54   1.836688 S    
C21   C27   1.403945 A    
P6    C38   1.870146 S    
P1    O5    1.750061 S    
C4    O15   1.394233 S    
C50   C51   1.414734 A    
C32   Cl4   1.770497 S    
H27   C16   1.106396 S    
C14   N8    1.462191 S    
C24   C25   1.419082 A    
C1    Cl1   1.780569 S    
C20   O26   1.220689 D    
O11   C2    1.410882 S    
O10   C8    1.397216 S    
C43   H37   1.076672 S    
N1    C20   1.394343 Am   
P2    Ba1   3.436506 S    
C7    N4    1.458572 S    
C56   H38   1.079733 S    
C12   H21   1.111327 S    
P1    O2    1.555469 S    
O2    Ba1   2.968422 S    
C44   C49   1.426744 A    
H29   C28   1.081599 S    
C15   C16   1.549898 S    
N7    H48   1.044578 S    
N10   H53   1.041997 S    
C53   H36   1.078884 S    
P5    O18   1.542429 D    
C31   O28   1.219327 D    
C29   C30   1.415670 A    
O13   Ba2   2.969282 S    
C6    H12   1.110960 S    
C6    C7    1.531537 S    
C1    C10   1.527177 S    
O16   Ba2   2.946006 S    
C4    H7    1.104529 S    
O19   C13   1.407064 S    
C1    H3    1.104910 S    
O14   P8    1.762811 S    
C48   C49   1.419403 A    
P7    C52   1.824253 S    
N1    C36   1.484622 S    
N4    H42   1.044176 S    
C16   N10   1.461718 S    
O14   Ba2   2.804034 S    
C11   Cl2   1.764267 S    
C9    H17   1.110935 S    
C19   N1    1.395419 Am   
P2    O7    1.524987 D    
O12   Ba2   2.805432 S    
C35   N12   1.438709 S    
C26   C29   1.405384 A    
C3    H6    1.112715 S    
O3    P6    1.759590 S    
C52   C53   1.388740 A    
N5    H44   1.037045 S    
H30   C27   1.080988 S    
C54   C55   1.403856 A    
C55   H35   1.081586 S    
C4    C5    1.535444 S    
P4    O12   1.551845 D    
O8    Ba1   2.749751 S    
N11   H55   1.045516 S    
Ba2   O20   2.804405 S    
N3    H40   1.045796 S    
C37   C41   1.428445 A    
C17   C38   1.389612 A    
P4    C34   1.854815 S    
C43   C51   1.408047 A    
N6    H46   1.042091 S    
N5    H43   1.045818 S    
O4    P6    1.550032 D    
C6    H11   1.099100 S    
C48   C56   1.399855 A    
C15   H26   1.108483 S    
P8    O23   1.546982 D    
C46   C47   1.392395 A    
C13   N7    1.455412 S    
P7    O21   1.570949 D    
C37   C38   1.404593 A    
C18   C23   1.406419 A    
Ba1   O13   2.806882 S    
O1    Ba1   2.804975 S    
O17   Ba2   2.750610 S    
C5    N3    1.463338 S    
P3    O8    1.763641 S    
C8    H16   1.111370 S    
C44   C45   1.405069 A    
C11   O22   1.408399 S    
P8    O24   1.758333 S    
C30   O27   1.220953 D    
C23   C24   1.414296 A    
N13   H60   1.041828 S    
P5    O19   1.761382 S    
Ba1   O20   2.946940 S    
N9    H52   1.043066 S    
P1    Ba1   3.394059 S    
C13   H23   1.108435 S    
C7    H14   1.110070 S    
C23   H32   1.082257 S    
Ba1   O16   2.805051 S    
C27   C28   1.398885 A    
N4    H41   1.045853 S    
P2    C44   1.866830 S    
P1    C39   1.876499 S    
P4    Ba2   3.394636 S    
C21   C22   1.399242 A    
Ba2   O21   2.868590 S    
C14   H25   1.113467 S    
C18   C19   1.424489 A    
P3    O9    1.542790 D    
C35   C36   1.535169 S    
C47   C48   1.405030 A    
C32   C33   1.523819 S    
N8    H49   1.045755 S    
C40   Cl5   1.767751 S    
O3    Ba1   2.804607 S    
P4    O15   1.749311 S    
C25   C31   1.424848 A    
N7    H47   1.032307 S    
C5    H9    1.112143 S    
