data_mof_unit_40667.cif
_audit_creation_date              2012-12-10T17:57:25-0500
_audit_creation_method            fapswitch 2.2
_symmetry_space_group_name_H-M    P1
_symmetry_Int_Tables_number       1
_space_group_crystal_system       triclinic
_cell_length_a                    9.510044
_cell_length_b                    10.834261
_cell_length_c                    13.456834
_cell_angle_alpha                 90.131647
_cell_angle_beta                  72.500236
_cell_angle_gamma                 90.019885
_cell_volume                      1322.34143323

loop_
_atom_site_label
_atom_site_type_symbol
_atom_type_description
_atom_site_fract_x
_atom_site_fract_y
_atom_site_fract_z
_atom_type_partial_charge
C1    C     C_R   0.499979 0.737958 0.500160 0.795806
C2    C     C_R   0.433634 0.481418 0.979543 0.084122
C3    C     C_R   0.471327 0.453352 0.871668 0.083765
C4    C     C_R   0.542490 0.466357 0.031657 0.074521
C5    C     C_R   0.681103 0.413010 0.978255 0.168120
C6    C     C_R   0.708586 0.372075 0.876110 -0.252501
C7    C     C_R   0.604540 0.389927 0.824148 -0.207814
C8    C     C_R   0.518454 0.503879 0.135163 -0.252627
C9    C     C_R   0.760638 0.432170 0.132675 -0.204716
C10   C     C_R   0.373473 0.488100 0.814888 -0.105688
C11   C     C_R   0.627152 0.936224 0.501525 -0.184050
C12   C     C_R   0.421354 0.493440 0.700136 0.787155
C13   C     C_R   0.627160 0.063923 0.501438 -0.189144
C14   C     C_R   0.499918 0.128219 0.500146 -0.016889
C15   C     C_R   0.372632 0.063802 0.499034 -0.184306
C16   C     C_R   0.372615 0.936107 0.499140 -0.186861
C17   C     C_R   0.499912 0.871802 0.500301 -0.020550
C18   C     C_R   0.896805 0.572989 0.567840 -0.020411
C19   C     C_R   0.045663 0.572829 0.567910 -0.031081
C20   C     C_R   0.103167 0.426969 0.432172 -0.027894
C21   C     C_R   0.954267 0.427015 0.432191 -0.035069
C22   C     C_R   0.499957 0.262045 0.500002 0.782396
C23   C     C_R   0.578728 0.498256 0.299959 0.803623
C24   C     C_R   0.789719 0.398386 0.028539 -0.203299
C25   C     C_R   0.623293 0.482249 0.186831 -0.048227
C26   C     C_R   0.230987 0.529384 0.868690 -0.191904
C27   C     C_R   0.187929 0.543074 0.976097 -0.157650
C28   C     C_R   0.288145 0.522085 0.031067 -0.186598
Cu1   Cu    Cu3+1 0.359340 0.499980 0.500000 0.938447
Cu2   Cu    Cu3+1 0.640660 0.500020 0.500000 0.935566
H1    H     H_    0.843066 0.414843 0.171692 0.147974
H2    H     H_    0.726642 0.112005 0.502391 0.147726
H3    H     H_    0.273163 0.111785 0.498009 0.148310
H4    H     H_    0.273114 0.888035 0.498222 0.148842
H5    H     H_    0.817680 0.631566 0.622110 0.125955
H6    H     H_    0.078835 0.631197 0.622234 0.116038
H7    H     H_    0.182267 0.368322 0.377948 0.121812
H8    H     H_    0.921050 0.368533 0.377956 0.115628
H9    H     H_    0.811173 0.325915 0.836020 0.147379
H10   H     H_    0.895741 0.357860 0.988040 0.140727
H11   H     H_    0.153206 0.553907 0.827437 0.152271
H12   H     H_    0.077232 0.573950 0.016817 0.148591
H13   H     H_    0.629102 0.350012 0.747237 0.176234
H14   H     H_    0.726620 0.888241 0.502552 0.148603
N1    N     N_R   0.147940 0.499970 0.499970 -0.156356
N2    N     N_R   0.852060 0.500060 0.499990 -0.158242
O1    O     O_R   0.381250 0.680340 0.500010 -0.586711
O2    O     O_R   0.618820 0.680370 0.500010 -0.584707
O3    O     O_R   0.323240 0.499950 0.650980 -0.581859
O4    O     O_R   0.560810 0.499980 0.650980 -0.586856
O5    O     O_R   0.381180 0.319630 0.499990 -0.586879
O6    O     O_R   0.618750 0.319660 0.499990 -0.594294
O7    O     O_R   0.439190 0.500020 0.349020 -0.585651
O8    O     O_R   0.676760 0.500050 0.349020 -0.584072
H15   H     H_    0.418015 0.549475 0.178284 0.147728
H16   H     H_    0.246806 0.535780 0.114094 0.125565

loop_
_geom_bond_atom_site_label_1
_geom_bond_atom_site_label_2
_ccdc_geom_bond_type
C12   O4    A    
C19   N1    A    
C1    O2    A    
C12   O3    A    
C6    C7    A    
C20   H7    S    
C7    H13   S    
C11   C13   A    
C18   H5    S    
C13   H2    S    
C1    C17   S    
C20   N1    A    
C4    C8    A    
C10   C26   A    
C2    C3    A    
C28   H16   S    
C9    C25   A    
C11   H14   S    
C9    C24   A    
C3    C10   A    
Cu1   O3    S    
C13   C14   A    
C8    C25   A    
Cu2   O8    S    
C27   H12   S    
C14   C22   S    
C26   C27   A    
Cu1   Cu2   S    
C5    C24   A    
C10   C12   S    
Cu1   O1    S    
C2    C4    A    
C18   N2    A    
C8    H15   S    
Cu2   O2    S    
C24   H10   S    
Cu2   N2    S    
C23   O7    A    
C3    C7    A    
C19   H6    S    
C23   C25   S    
Cu2   O4    S    
C5    C6    A    
C22   O5    A    
C9    H1    S    
C15   C16   A    
C18   C19   A    
C20   C21   A    
C23   O8    A    
C22   O6    A    
C21   N2    A    
Cu1   O5    S    
Cu1   N1    S    
C27   C28   A    
Cu2   O6    S    
C6    H9    S    
C4    C5    A    
C2    C28   A    
C16   H4    S    
C14   C15   A    
C15   H3    S    
C11   C17   A    
C21   H8    S    
C26   H11   S    
C1    O1    A    
C16   C17   A    
Cu1   O7    S    
