data_mof_unit_13435.cif
_audit_creation_date              2012-12-11T15:52:38-0500
_audit_creation_method            fapswitch 2.2
_symmetry_space_group_name_H-M    P1
_symmetry_Int_Tables_number       1
_space_group_crystal_system       triclinic
_cell_length_a                    6.93084
_cell_length_b                    14.540972
_cell_length_c                    16.052494
_cell_angle_alpha                 90.186364
_cell_angle_beta                  89.93349
_cell_angle_gamma                 89.928048
_cell_volume                      1617.77788045

loop_
_atom_site_label
_atom_site_type_symbol
_atom_type_description
_atom_site_fract_x
_atom_site_fract_y
_atom_site_fract_z
_atom_type_partial_charge
O1    O     O_R   0.494400 0.415640 0.412830 -0.550243
O2    O     O_R   0.823920 0.405510 0.586560 -0.540045
O3    O     O_R   0.994250 0.584360 0.587170 -0.500310
C1    C     C_R   0.655032 0.383240 0.615090 0.728497
O4    O     O_R   0.824110 0.404610 0.413450 -0.518587
O5    O     O_R   0.994440 0.583460 0.412820 -0.538010
C2    C     C_R   0.654505 0.380523 0.385531 0.727549
O6    O     O_R   0.494210 0.416540 0.587180 -0.547769
O7    O     O_3   0.660810 0.558680 0.500000 -0.358154
V1    V     V_3+5 0.935650 0.489110 0.500000 1.489831
O8    O     O_R   0.324150 0.594490 0.413440 -0.548999
C3    C     C_R   0.155258 0.616240 0.384171 0.710824
O9    O     O_R   0.323970 0.595390 0.586550 -0.547261
C4    C     C_R   0.154255 0.617252 0.615723 0.745081
V2    V     V_3+5 0.435660 0.510890 0.500000 1.434870
O10   O     O_3   0.160630 0.441320 0.500000 -0.379241
C5    C     C_3   0.927005 0.697718 0.719933 0.668469
C6    C     C_3   0.921546 0.768262 0.793566 -0.522887
H1    H     H_    0.862520 0.736169 0.850867 0.177569
H2    H     H_    0.819307 0.824877 0.778697 0.154899
H3    H     H_    0.158696 0.801855 0.598109 0.135019
H4    H     H_    0.054792 0.896011 0.703408 0.142669
C7    C     C_3   0.223024 0.781059 0.658660 -0.442876
C8    C     C_3   0.264095 0.653557 0.761464 -0.440642
C9    C     C_3   0.140579 0.686561 0.686826 -0.015079
H5    H     H_    0.411929 0.637035 0.739695 0.149555
H6    H     H_    0.206999 0.586524 0.783667 0.170702
C10   C     C_3   0.124655 0.810137 0.810638 -0.066601
C11   C     C_3   0.183578 0.856968 0.725262 -0.034401
C12   C     C_3   0.267197 0.727827 0.833576 0.481004
H7    H     H_    0.380936 0.773834 0.647762 0.200446
C13   C     C_R   0.957890 0.755891 0.202326 0.355895
C14   C     C_R   0.971702 0.693534 0.269274 -0.228894
H8    H     H_    0.847339 0.652200 0.285493 0.121089
C15   C     C_R   0.144098 0.683107 0.314304 -0.073777
C16   C     C_R   0.304595 0.736065 0.291245 -0.174933
H9    H     H_    0.439863 0.729628 0.324453 0.131812
C17   C     C_R   0.292068 0.799109 0.225752 -0.226937
H10   H     H_    0.418128 0.839841 0.210929 0.161924
C18   C     C_R   0.119438 0.810521 0.180684 -0.074656
C19   C     C_R   0.791024 0.248828 0.693110 -0.238534
H11   H     H_    0.913638 0.248919 0.651166 0.121712
C20   C     C_R   0.779247 0.181756 0.756273 0.325651
C21   C     C_R   0.618962 0.181262 0.811298 -0.157778
C22   C     C_R   0.469667 0.246954 0.799143 0.277575
C23   C     C_R   0.484530 0.312362 0.735904 -0.167056
H12   H     H_    0.369887 0.362514 0.728944 0.148624
C24   C     C_R   0.644179 0.314095 0.682476 -0.141506
C25   C     C_R   0.794656 0.302609 0.258594 0.320711
C26   C     C_R   0.783125 0.238397 0.192689 -0.243313
H13   H     H_    0.900149 0.233594 0.148057 0.127444
C27   C     C_R   0.620584 0.182463 0.182354 -0.097434
C28   C     C_R   0.470445 0.188852 0.240318 -0.190817
H14   H     H_    0.347139 0.143688 0.233408 0.120513
C29   C     C_R   0.479952 0.249414 0.308887 0.079924
C30   C     C_R   0.642502 0.309515 0.317536 -0.097008
O11   O     O_R   0.771300 0.080930 0.910090 -0.511464
O12   O     O_R   0.441270 0.092800 0.083770 -0.545787
O13   O     O_R   0.271080 0.913920 0.084380 -0.548272
C31   C     C_R   0.610167 0.115033 0.112740 0.707947
O14   O     O_R   0.441580 0.091910 0.910670 -0.550453
O15   O     O_R   0.271390 0.913020 0.910040 -0.524735
C32   C     C_R   0.610005 0.113531 0.881101 0.751167
O16   O     O_R   0.770990 0.081830 0.084440 -0.547092
O17   O     O_3   0.604750 0.938760 0.997250 -0.352255
V3    V     V_3+5 0.329850 0.008280 0.997210 1.466015
O18   O     O_R   0.941680 0.901940 0.910610 -0.539377
C33   C     C_R   0.110966 0.880811 0.880887 0.709872
O19   O     O_R   0.941370 0.902830 0.083720 -0.510738
C34   C     C_R   0.110093 0.879798 0.112181 0.703899
V4    V     V_3+5 0.829860 0.986420 0.997150 1.511074
O20   O     O_3   0.104830 0.056030 0.997180 -0.372003
O21   O     O_3   0.801678 0.725921 0.655442 -0.651089
H15   H     H_    0.836009 0.789355 0.638691 0.254983
O22   O     O_3   0.454790 0.763157 0.844627 -0.638507
H16   H     H_    0.520741 0.764362 0.790105 0.283922
C35   C     C_3   0.344144 0.931743 0.728498 -0.291539
C36   C     C_3   0.376419 0.978306 0.644237 -0.816635
H17   H     H_    0.437502 0.929061 0.598271 0.235507
H18   H     H_    0.238705 0.006630 0.619926 0.225696
H19   H     H_    0.480194 0.035895 0.651832 0.223858
H20   H     H_    0.300037 0.987212 0.772180 0.183668
H21   H     H_    0.483880 0.904287 0.750175 0.194475
O23   O     O_3   0.789222 0.763022 0.156964 -0.645390
H22   H     H_    0.693137 0.718802 0.178927 0.279093
O24   O     O_3   0.920210 0.114944 0.763720 -0.656234
H23   H     H_    0.019778 0.124302 0.720149 0.269817
O25   O     O_3   0.310936 0.251553 0.850277 -0.632744
H24   H     H_    0.234459 0.195572 0.838229 0.315110
O26   O     O_3   0.863392 0.611554 0.749002 -0.647681
H25   H     H_    0.727595 0.618633 0.767230 0.293112
O27   O     O_3   0.951638 0.360749 0.265108 -0.652594
H26   H     H_    0.045242 0.346471 0.220099 0.281913
C37   C     C_3   0.316420 0.244154 0.371976 -0.315087
C38   C     C_3   0.384044 0.204662 0.455151 -0.742661
H27   H     H_    0.442917 0.134285 0.445800 0.220397
H28   H     H_    0.496777 0.248261 0.484064 0.208506
H29   H     H_    0.259955 0.200684 0.498823 0.207981
H30   H     H_    0.246273 0.311895 0.380683 0.227150
H31   H     H_    0.199051 0.198712 0.348814 0.168820
C39   C     C_3   0.209660 0.680975 0.917544 -0.295636
C40   C     C_3   0.364828 0.615393 0.950703 -0.676310
H32   H     H_    0.400034 0.561194 0.904273 0.217017
H33   H     H_    0.498287 0.653728 0.966738 0.251447
H34   H     H_    0.311191 0.581546 0.008145 0.206625
H35   H     H_    0.183723 0.733502 0.966645 0.156072
H36   H     H_    0.074181 0.641077 0.910388 0.163026

loop_
_geom_bond_atom_site_label_1
_geom_bond_atom_site_label_2
_ccdc_geom_bond_type
C39   H36   S    
C29   C30   A    
C39   C40   S    
H4    C11   S    
C19   H11   S    
C15   C16   A    
C8    H6    S    
C1    O6    A    
C38   H29   S    
C35   C36   S    
C21   C22   A    
C18   C34   S    
C7    C11   S    
C16   H9    S    
C10   C33   S    
C8    H5    S    
O19   C34   A    
O13   V3    S    
O5    C3    A    
C17   H10   S    
C36   H18   S    
C35   H21   S    
O12   C31   A    
V2    O10   S    
C40   H34   S    
O14   C32   A    
C6    H1    S    
O21   H15   S    
O16   V4    S    
O19   V4    S    
C35   H20   S    
C27   C31   S    
O8    V2    S    
O14   V3    S    
O12   V3    S    
V3    O20   S    
C38   H27   S    
C10   C12   S    
C26   C27   A    
O11   C32   A    
O1    V2    S    
O7    V1    S    
O18   V4    S    
C13   C18   A    
O1    C2    A    
O9    C4    A    
C5    O21   S    
C19   C20   A    
C40   H32   S    
C2    C30   S    
C29   C37   S    
C5    C6    S    
C28   C29   A    
C21   C32   S    
C13   O23   S    
C23   C24   A    
O15   V3    S    
O18   C33   A    
C22   O25   S    
C6    C10   S    
O23   H22   S    
O4    C2    A    
C36   H17   S    
C26   H13   S    
O17   V4    S    
O11   V4    S    
C7    H7    S    
O2    C1    A    
O22   H16   S    
C37   H31   S    
C14   H8    S    
C8    C9    S    
C3    C15   S    
C40   H33   S    
O3    C4    A    
O17   V3    S    
O6    V2    S    
O9    V2    S    
C20   C21   A    
C25   O27   S    
O2    V1    S    
C27   C28   A    
C1    C24   S    
C39   H35   S    
C23   H12   S    
C10   C11   S    
O24   H23   S    
C20   O24   S    
C5    O26   S    
O5    V1    S    
O8    C3    A    
C38   H28   S    
C28   H14   S    
C25   C30   A    
O15   C33   A    
C31   O16   A    
C5    C9    S    
C13   C14   A    
H3    C7    S    
O7    V2    S    
O4    V1    S    
O3    V1    S    
V1    O10   S    
C17   C18   A    
C12   O22   S    
C36   H19   S    
O26   H25   S    
C37   H30   S    
C12   C39   S    
C16   C17   A    
O27   H26   S    
C14   C15   A    
C19   C24   A    
C6    H2    S    
C7    C9    S    
C4    C9    S    
C37   C38   S    
C8    C12   S    
O13   C34   A    
C22   C23   A    
V4    O20   S    
C11   C35   S    
O25   H24   S    
C25   C26   A    
