data_mof_unit_48836.cif
_audit_creation_date              2012-12-10T17:22:50-0500
_audit_creation_method            fapswitch 2.2
_symmetry_space_group_name_H-M    P1
_symmetry_Int_Tables_number       1
_space_group_crystal_system       triclinic
_cell_length_a                    10.14118
_cell_length_b                    10.516736
_cell_length_c                    10.594554
_cell_angle_alpha                 90.284062
_cell_angle_beta                  95.919731
_cell_angle_gamma                 80.646916
_cell_volume                      1108.88415329

loop_
_atom_site_label
_atom_site_type_symbol
_atom_type_description
_atom_site_fract_x
_atom_site_fract_y
_atom_site_fract_z
_atom_type_partial_charge
C1    C     C_R   0.443158 0.504309 0.265505 0.810819
C2    C     C_3   0.502278 0.122496 0.496975 -0.188132
C3    C     C_3   0.605705 0.941407 0.578272 -0.258570
C4    C     C_3   0.394252 0.058626 0.421382 -0.268403
C5    C     C_2   0.410283 0.488687 0.129995 0.262104
C6    C     C_2   0.590013 0.462970 0.869910 0.241170
C7    C     C_2   0.504402 0.416299 0.068062 -0.203940
C8    C     C_2   0.497591 0.417154 0.931298 -0.206261
C9    C     C_2   0.072677 0.489464 0.489029 -0.039881
C10   C     C_2   0.927018 0.511762 0.509688 -0.074265
C11   C     C_R   0.556897 0.487529 0.734476 0.809129
C12   C     C_R   0.500190 0.257454 0.497812 0.897413
C13   C     C_R   0.499778 0.742550 0.502050 0.953629
C14   C     C_3   0.613838 0.019018 0.457714 0.542599
C15   C     C_3   0.386098 0.981014 0.541924 0.546234
C16   C     C_3   0.507354 0.952980 0.381622 -0.268510
C17   C     C_3   0.492577 0.047039 0.618042 -0.276860
C18   C     C_3   0.497662 0.877526 0.502694 -0.201382
H1    H     H_    0.514416 0.910843 0.285762 0.212167
H2    H     H_    0.119786 0.618587 0.615687 0.228164
H3    H     H_    0.922364 0.914447 0.311611 0.410947
H4    H     H_    0.077114 0.085783 0.687129 0.408379
H5    H     H_    0.888657 0.492791 0.813172 0.377904
H6    H     H_    0.080133 0.694221 0.106767 0.409492
H7    H     H_    0.485496 0.089223 0.713887 0.194999
H8    H     H_    0.692048 0.890215 0.641371 0.212737
H9    H     H_    0.307914 0.109804 0.358276 0.202624
H10   H     H_    0.405942 0.394267 0.880226 0.205490
H11   H     H_    0.597450 0.367628 0.118725 0.223804
H12   H     H_    0.890722 0.583426 0.577432 0.182015
H13   H     H_    0.108729 0.418858 0.420206 0.177857
H14   H     H_    0.880467 0.380352 0.385373 0.227971
N1    N     N_2   0.157310 0.552180 0.551120 -0.162205
N2    N     N_2   0.842690 0.447820 0.448880 -0.159442
O1    O     O_R   0.568940 0.489500 0.307530 -0.601807
O2    O     O_2   0.853595 0.098493 0.498907 -0.263715
O3    O     O_3   0.848184 0.895205 0.358490 -0.507032
O4    O     O_2   0.146440 0.901423 0.500264 -0.253252
O5    O     O_2   0.262494 0.873412 0.716101 -0.259055
O6    O     O_3   0.151403 0.104970 0.640372 -0.528282
O7    O     O_2   0.708155 0.598603 0.050670 -0.231694
O8    O     O_2   0.824988 0.383008 0.008913 -0.269545
O9    O     O_3   0.829504 0.566939 0.846485 -0.513843
O10   O     O_2   0.283216 0.653713 0.947702 -0.243569
O11   O     O_2   0.175323 0.470340 0.997008 -0.268818
O12   O     O_R   0.431060 0.510500 0.692470 -0.596332
O13   O     O_3   0.167258 0.660298 0.155669 -0.511307
O14   O     O_R   0.348880 0.522990 0.340350 -0.559690
O15   O     O_R   0.651120 0.477010 0.659650 -0.596989
O16   O     O_R   0.610000 0.297210 0.483560 -0.564833
O17   O     O_R   0.390000 0.702790 0.516440 -0.549037
O18   O     O_R   0.389940 0.330700 0.516390 -0.619219
O19   O     O_R   0.610060 0.669300 0.483610 -0.597566
O20   O     O_2   0.736946 0.126916 0.283328 -0.303260
S1    S     S_3+6 0.767283 0.039909 0.398360 0.066899
S2    S     S_3+6 0.232465 0.960199 0.600914 0.073469
S3    S     S_3+6 0.741195 0.502543 0.948485 0.073034
S4    S     S_3+6 0.255728 0.569055 0.052596 0.066183
Zn1   Zn    Zn3+2 0.646930 0.477640 0.478080 1.056978
Zn2   Zn    Zn3+2 0.353070 0.522360 0.521920 1.072491

loop_
_geom_bond_atom_site_label_1
_geom_bond_atom_site_label_2
_ccdc_geom_bond_type
C4    C16   S    
C15   C18   S    
C12   O16   A    
C1    O14   A    
C3    C17   S    
C7    H11   S    
O4    S2    D    
C5    C7    D    
C9    C10   S    
C10   H12   S    
C2    C4    S    
O5    S2    D    
O15   Zn1   S    
C2    C12   S    
C15   S2    S    
C4    C15   S    
C14   S1    S    
O19   Zn1   S    
O9    S3    S    
H4    O6    S    
C7    C8    S    
C10   N2    D    
O2    S1    D    
O6    S2    S    
C2    C17   S    
C9    N1    D    
C6    S3    S    
C3    C14   S    
C5    S4    S    
C3    C18   S    
C16   H1    S    
C1    C5    S    
O16   Zn1   S    
C13   C18   S    
O8    S3    D    
O1    Zn1   S    
C12   O18   A    
O14   Zn2   S    
N1    Zn2   S    
C13   O19   A    
N2    Zn1   S    
C2    C14   S    
C14   C16   S    
O11   S4    D    
H2    N1    S    
O7    S3    D    
O3    S1    S    
C4    H9    S    
H3    O3    S    
C11   O15   A    
C1    O1    A    
C8    H10   S    
C16   C18   S    
C6    C11   S    
C15   C17   S    
C9    H13   S    
O20   S1    D    
C11   O12   A    
C6    C8    D    
O17   Zn2   S    
O18   Zn2   S    
O12   Zn2   S    
C13   O17   A    
H6    O13   S    
H5    O9    S    
C3    H8    S    
O10   S4    D    
C17   H7    S    
O13   S4    S    
H14   N2    S    
