data_mof_unit_20572.cif
_audit_creation_date              2012-12-10T18:02:52-0500
_audit_creation_method            fapswitch 2.2
_symmetry_space_group_name_H-M    P1
_symmetry_Int_Tables_number       1
_space_group_crystal_system       triclinic
_cell_length_a                    10.767131
_cell_length_b                    9.510209
_cell_length_c                    27.841928
_cell_angle_alpha                 89.9237
_cell_angle_beta                  89.90197
_cell_angle_gamma                 90.09679
_cell_volume                      2850.93766836

loop_
_atom_site_label
_atom_site_type_symbol
_atom_type_description
_atom_site_fract_x
_atom_site_fract_y
_atom_site_fract_z
_atom_type_partial_charge
C1    C     C_R   0.262296 0.499867 0.499982 0.874930
C2    C     C_R   0.737648 0.500106 0.499910 0.877660
C3    C     C_R   0.494369 0.456243 0.101800 -0.120055
C4    C     C_R   0.506667 0.460075 0.898553 -0.121017
C5    C     C_R   0.380336 0.452816 0.126932 -0.217047
C6    C     C_R   0.618353 0.488289 0.873631 -0.213164
C7    C     C_R   0.268094 0.454199 0.100846 0.420902
C8    C     C_R   0.725962 0.523784 0.899832 0.414679
C9    C     C_R   0.606857 0.458290 0.127703 0.009664
C10   C     C_R   0.397370 0.431904 0.872447 0.022449
C11   C     C_R   0.500066 0.497432 0.353890 -0.205731
C12   C     C_R   0.502646 0.498528 0.646209 -0.199349
C13   C     C_R   0.389571 0.435823 0.973939 0.120608
C14   C     C_R   0.612088 0.468576 0.026316 0.111526
C15   C     C_R   0.613698 0.486403 0.975650 -0.144227
C16   C     C_R   0.384020 0.451116 0.024741 -0.144130
C17   C     C_R   0.503578 0.460145 0.949506 0.009388
C18   C     C_R   0.496650 0.457968 0.050832 0.009151
C19   C     C_R   0.285728 0.393221 0.946677 -0.167553
C20   C     C_R   0.722476 0.456852 0.053255 -0.160523
C21   C     C_R   0.288738 0.394671 0.896864 -0.191143
C22   C     C_R   0.719921 0.454548 0.103047 -0.178943
C23   C     C_R   0.501245 0.500213 0.407219 0.907587
C24   C     C_R   0.500437 0.500252 0.592813 0.905405
C25   C     C_R   0.270242 0.463810 0.050509 0.351450
C26   C     C_R   0.720415 0.533869 0.950121 0.357874
C27   C     C_R   0.064891 0.449680 0.459322 0.115211
C28   C     C_R   0.934875 0.549925 0.540555 0.114140
C29   C     C_R   0.935084 0.450096 0.459253 0.102473
C30   C     C_R   0.064640 0.549146 0.540658 0.097213
C31   C     C_R   0.871389 0.500288 0.499869 -0.190975
C32   C     C_R   0.128441 0.499530 0.499986 -0.193212
C33   C     C_R   0.592191 0.074674 0.477414 0.007319
C34   C     C_R   0.407513 0.925385 0.522401 0.031737
C35   C     C_R   0.407931 0.074171 0.522674 0.005780
C36   C     C_R   0.592713 0.925913 0.477763 0.033908
C37   C     C_R   0.382562 0.453341 0.177682 0.630569
C38   C     C_R   0.617274 0.485216 0.822913 0.629728
C39   C     C_R   0.603883 0.463246 0.177932 0.598097
C40   C     C_R   0.399344 0.440599 0.822257 0.607867
C41   C     C_R   0.482169 0.354039 0.281454 0.481443
C42   C     C_R   0.508015 0.355610 0.719353 0.476875
C43   C     C_R   0.481685 0.366532 0.331380 -0.288168
C44   C     C_R   0.509402 0.366904 0.669237 -0.327941
C45   C     C_R   0.517069 0.618855 0.324775 0.089049
C46   C     C_R   0.498540 0.622260 0.674870 0.115793
C47   C     C_R   0.507517 0.607418 0.274478 0.435559
C48   C     C_R   0.503645 0.610883 0.725288 0.414482
C49   C     C_R   0.492446 0.474769 0.253036 0.133120
C50   C     C_R   0.507534 0.477844 0.747239 0.157614
Cu1   Cu    Cu3+1 0.500000 0.640660 0.500000 1.019394
Cu2   Cu    Cu3+1 0.500000 0.359340 0.500000 0.991265
H1    H     H_    0.665753 0.130742 0.459072 0.153281
H2    H     H_    0.333597 0.869317 0.540528 0.159000
H3    H     H_    0.334509 0.129886 0.541093 0.138921
H4    H     H_    0.667120 0.870261 0.459949 0.152677
H5    H     H_    0.516044 0.271335 0.648319 0.206023
H6    H     H_    0.468263 0.271865 0.352448 0.214862
H7    H     H_    0.205677 0.364587 0.877521 0.168201
H8    H     H_    0.807329 0.449472 0.122158 0.191784
H9    H     H_    0.201805 0.353807 0.963077 0.191034
H10   H     H_    0.812271 0.444987 0.036488 0.205949
N1    N     N_R   0.492925 0.462426 0.201687 -0.430245
N2    N     N_R   0.508155 0.466975 0.798654 -0.421477
N3    N     N_R   0.500000 0.852070 0.500000 -0.167436
N4    N     N_R   0.500000 0.147930 0.500000 -0.172860
O1    O     O_R   0.319640 0.618740 0.500000 -0.575231
O2    O     O_R   0.680360 0.381260 0.500000 -0.577504
O3    O     O_R   0.680360 0.618740 0.500000 -0.572815
O4    O     O_R   0.319640 0.381260 0.500000 -0.576993
O5    O     O_R   0.500020 0.618770 0.430260 -0.556251
O6    O     O_R   0.499980 0.381230 0.569740 -0.591028
O7    O     O_R   0.499980 0.618770 0.569740 -0.541025
O8    O     O_R   0.500020 0.381230 0.430260 -0.577052
O9    O     O_2   0.275893 0.447005 0.203084 -0.475195
O10   O     O_2   0.723645 0.501097 0.797801 -0.495777
O11   O     O_2   0.293131 0.424370 0.797196 -0.550975
O12   O     O_2   0.711008 0.469680 0.202966 -0.525442
I1    I     I_    0.566851 0.820962 0.352149 -0.322833
I2    I     I_    0.483372 0.830980 0.646640 -0.314920
O13   O     O_3   0.523860 0.724521 0.245627 -0.553444
C51   C     C_3   0.406934 0.787223 0.237771 -0.251010
H11   H     H_    0.419259 0.878070 0.213212 0.189953
H12   H     H_    0.366143 0.827291 0.271822 0.196686
H13   H     H_    0.340980 0.713687 0.220200 0.183109
O14   O     O_3   0.493426 0.729883 0.753600 -0.572463
C52   C     C_3   0.612092 0.790301 0.760891 -0.185458
H14   H     H_    0.604291 0.906007 0.756992 0.202046
H15   H     H_    0.685363 0.754479 0.735259 0.183442
H16   H     H_    0.642981 0.768926 0.798162 0.187985
O15   O     O_3   0.154993 0.462088 0.124380 -0.517670
C53   C     C_3   0.098506 0.328153 0.123310 -0.170929
H17   H     H_    0.160035 0.246016 0.138984 0.152340
H18   H     H_    0.070903 0.298650 0.086189 0.149475
H19   H     H_    0.012871 0.331583 0.145466 0.191557
O16   O     O_3   0.832578 0.567790 0.876324 -0.525970
C54   C     C_3   0.922436 0.460362 0.879444 -0.167371
H20   H     H_    0.886662 0.359011 0.864932 0.150306
H21   H     H_    0.955431 0.446035 0.916957 0.162215
H22   H     H_    0.003783 0.491347 0.857324 0.201646
O17   O     O_3   0.516353 0.225966 0.741824 -0.573708
C55   C     C_3   0.407616 0.147513 0.732566 -0.227092
H23   H     H_    0.404490 0.111616 0.694690 0.181513
H24   H     H_    0.322031 0.207787 0.741248 0.197579
H25   H     H_    0.407955 0.052592 0.755742 0.211855
O18   O     O_3   0.467070 0.224086 0.260065 -0.566153
C56   C     C_3   0.580953 0.151372 0.262550 -0.235126
H26   H     H_    0.607166 0.128135 0.300358 0.190976
H27   H     H_    0.656717 0.210745 0.244302 0.185205
H28   H     H_    0.570893 0.049547 0.243660 0.211815
O19   O     O_3   0.159502 0.493658 0.027593 -0.587378
C57   C     C_3   0.152823 0.640023 0.019901 -0.254114
H29   H     H_    0.230881 0.678377 0.997089 0.151470
H30   H     H_    0.150625 0.698124 0.054569 0.173714
H31   H     H_    0.065459 0.663433 0.000529 0.216697
O20   O     O_3   0.817829 0.600333 0.973196 -0.585798
C58   C     C_3   0.785758 0.742627 0.980189 -0.274443
H32   H     H_    0.702750 0.753210 0.003781 0.162383
H33   H     H_    0.769797 0.797009 0.945307 0.176771
H34   H     H_    0.864051 0.796548 0.998335 0.172537
I3    I     I_    0.166001 0.379013 0.397540 -0.254881
I4    I     I_    0.833620 0.620312 0.602401 -0.259736
I5    I     I_    0.834059 0.381041 0.397235 -0.294764
I6    I     I_    0.165218 0.615800 0.602966 -0.281172

loop_
_geom_bond_atom_site_label_1
_geom_bond_atom_site_label_2
_ccdc_geom_bond_type
C46   I2    S    
C52   H14   S    
O17   C55   S    
C49   N1    S    
C5    C37   A    
C27   C29   A    
C50   N2    S    
C14   C18   A    
O19   C57   S    
C8    O16   S    
C57   H30   S    
C54   H20   S    
C27   I3    S    
C47   C49   A    
C38   O10   S    
Cu1   O5    S    
C55   H25   S    
C3    C9    A    
Cu2   O6    S    
C21   H7    S    
Cu2   O8    S    
C58   H33   S    
C22   H8    S    
C28   I4    S    
C9    C22   A    
O18   C56   S    
C9    C39   A    
C33   C36   A    
C8    C26   A    
O20   C58   S    
C3    C18   A    
C10   C40   A    
C34   C35   A    
Cu1   N3    S    
C43   H6    S    
C37   N1    A    
C56   H26   S    
C6    C38   A    
C11   C43   A    
C2    O3    A    
Cu2   O2    S    
C48   C50   A    
C37   O9    S    
C41   C43   A    
C42   C44   A    
C34   N3    A    
C41   C49   A    
C57   H29   S    
C54   H21   S    
C33   N4    A    
O13   C51   S    
C38   N2    A    
C45   C47   A    
C10   C21   A    
C33   H1    S    
C46   C48   A    
C41   O18   S    
C13   C19   A    
C35   H3    S    
Cu1   Cu2   S    
C39   O12   S    
C14   C20   A    
C4    C6    A    
C58   H34   S    
O15   C53   S    
C5    C7    A    
O14   C52   S    
C15   C26   A    
C6    C8    A    
C35   N4    A    
C1    C32   S    
C2    C31   S    
C36   H4    S    
C23   O5    A    
C14   C15   A    
C44   H5    S    
C7    O15   S    
O16   C54   S    
C53   H18   S    
C45   I1    S    
Cu1   O1    S    
C55   H24   S    
C42   C50   A    
C4    C17   A    
C12   C46   A    
C20   C22   A    
C34   H2    S    
C51   H12   S    
C52   H15   S    
C56   H28   S    
C48   O14   S    
C11   C45   A    
C53   H19   S    
C23   O8    A    
C4    C10   A    
C42   O17   S    
C54   H22   S    
Cu2   N4    S    
C24   O6    A    
C16   C25   A    
C15   C17   A    
C19   C21   A    
C27   C32   A    
C36   N3    A    
C28   C31   A    
Cu1   O7    S    
C30   I6    S    
C3    C5    A    
C40   N2    A    
C51   H13   S    
C39   N1    A    
C12   C24   S    
C2    O2    A    
C1    O4    A    
C7    C25   A    
C13   C17   A    
C28   C30   A    
C13   C16   A    
C29   C31   A    
C58   H32   S    
C30   C32   A    
C56   H27   S    
C19   H9    S    
C29   I5    S    
C11   C23   S    
C53   H17   S    
C1    O1    A    
C47   O13   S    
C20   H10   S    
C55   H23   S    
C24   O7    A    
C26   O20   S    
Cu2   O4    S    
C25   O19   S    
C16   C18   A    
C51   H11   S    
C52   H16   S    
C40   O11   S    
C12   C44   A    
Cu1   O3    S    
C57   H31   S    
