data_mof_unit_18665.cif
_audit_creation_date              2012-12-11T14:14:38-0500
_audit_creation_method            fapswitch 2.2
_symmetry_space_group_name_H-M    P1
_symmetry_Int_Tables_number       1
_space_group_crystal_system       triclinic
_cell_length_a                    24.363581
_cell_length_b                    17.25647
_cell_length_c                    15.53591
_cell_angle_alpha                 90.0
_cell_angle_beta                  129.0666
_cell_angle_gamma                 90.000012
_cell_volume                      5071.34426383

loop_
_atom_site_label
_atom_site_type_symbol
_atom_type_description
_atom_site_fract_x
_atom_site_fract_y
_atom_site_fract_z
_atom_type_partial_charge
C1    C     C_R   0.332319 0.394347 0.199524 -0.207575
C2    C     C_R   0.667680 0.394347 0.800476 -0.207575
C3    C     C_R   0.832319 0.894347 0.199524 -0.207574
C4    C     C_R   0.167681 0.894347 0.800476 -0.207575
C5    C     C_R   0.386229 0.600032 0.592642 -0.124144
C6    C     C_R   0.613771 0.600032 0.407358 -0.124144
C7    C     C_R   0.886229 0.100032 0.592643 -0.124144
C8    C     C_R   0.113771 0.100032 0.407357 -0.124144
C9    C     C_R   0.316208 0.610929 0.501296 0.148432
C10   C     C_R   0.683791 0.610929 0.498704 0.148431
C11   C     C_R   0.816209 0.110929 0.501297 0.148435
C12   C     C_R   0.183791 0.110929 0.498704 0.148433
C13   C     C_R   0.380570 0.681126 0.206718 0.154604
C14   C     C_R   0.619430 0.681126 0.793282 0.154605
C15   C     C_R   0.880570 0.181126 0.206718 0.154605
C16   C     C_R   0.119430 0.181127 0.793281 0.154604
C17   C     C_2   0.742243 0.639612 0.416341 0.365909
C18   C     C_2   0.257757 0.639612 0.583659 0.365910
C19   C     C_2   0.242243 0.139612 0.416340 0.365909
C20   C     C_2   0.757757 0.139613 0.583661 0.365910
C21   C     C_2   0.745274 0.625004 0.504500 -0.231594
C22   C     C_2   0.254726 0.625004 0.495500 -0.231594
C23   C     C_2   0.245274 0.125003 0.504499 -0.231596
C24   C     C_2   0.754726 0.125003 0.495502 -0.231598
C25   C     C_2   0.287345 0.201193 0.424339 -0.161804
C26   C     C_2   0.712654 0.201193 0.575661 -0.161805
C27   C     C_2   0.787345 0.701193 0.424338 -0.161806
C28   C     C_2   0.212654 0.701193 0.575661 -0.161806
C29   C     C_2   0.315334 0.256865 0.501854 -0.250193
C30   C     C_2   0.684664 0.256864 0.498145 -0.250192
C31   C     C_2   0.815334 0.756865 0.501854 -0.250192
C32   C     C_2   0.184666 0.756865 0.498146 -0.250192
C33   C     C_2   0.697341 0.351488 0.982353 -0.193276
C34   C     C_2   0.302659 0.351489 0.017647 -0.193275
C35   C     C_2   0.197341 0.851489 0.982353 -0.193275
C36   C     C_2   0.802659 0.851489 0.017647 -0.193276
C37   C     C_2   0.767581 0.352530 0.041220 -0.163891
C38   C     C_2   0.232419 0.352530 0.958780 -0.163890
C39   C     C_2   0.267581 0.852530 0.041220 -0.163890
C40   C     C_2   0.732419 0.852530 0.958780 -0.163890
C41   C     C_2   0.353037 0.751390 0.138974 -0.260874
C42   C     C_2   0.646963 0.751390 0.861026 -0.260875
C43   C     C_2   0.853037 0.251390 0.138974 -0.260874
C44   C     C_2   0.146962 0.251390 0.861024 -0.260874
C45   C     C_R   0.595262 0.363770 0.407677 -0.160903
C46   C     C_R   0.404737 0.363771 0.592323 -0.160902
C47   C     C_R   0.095263 0.863770 0.407677 -0.160902
C48   C     C_R   0.904737 0.863770 0.592323 -0.160902
C49   C     C_2   0.312566 0.803880 0.140061 0.342224
C50   C     C_2   0.687434 0.803880 0.859939 0.342225
C51   C     C_2   0.812566 0.303880 0.140061 0.342225
C52   C     C_2   0.187434 0.303880 0.859938 0.342223
C53   C     C_R   0.669068 0.362923 0.593003 -0.119407
C54   C     C_R   0.330932 0.362924 0.406997 -0.119407
C55   C     C_R   0.169068 0.862924 0.593003 -0.119407
C56   C     C_R   0.830932 0.862924 0.406996 -0.119407
C57   C     C_R   0.578776 0.395944 0.804878 0.312465
C58   C     C_R   0.421224 0.395944 0.195122 0.312464
C59   C     C_R   0.078776 0.895944 0.804878 0.312465
C60   C     C_R   0.921224 0.895944 0.195122 0.312465
C61   C     C_R   0.350732 0.375715 0.134310 0.106206
C62   C     C_R   0.649268 0.375715 0.865690 0.106207
C63   C     C_R   0.850732 0.875715 0.134310 0.106207
C64   C     C_R   0.149268 0.875715 0.865690 0.106206
C65   C     C_R   0.650064 0.323867 0.500182 0.155767
C66   C     C_R   0.349935 0.323868 0.499818 0.155767
C67   C     C_R   0.150065 0.823868 0.500182 0.155767
C68   C     C_R   0.849935 0.823868 0.499818 0.155767
C69   C     C_R   0.311600 0.598944 0.409337 -0.160986
C70   C     C_R   0.688400 0.598944 0.590663 -0.160985
C71   C     C_R   0.811600 0.098943 0.409337 -0.160986
C72   C     C_R   0.188400 0.098944 0.590663 -0.160987
C73   C     C_R   0.440169 0.640540 0.239269 -0.141795
C74   C     C_R   0.559831 0.640540 0.760731 -0.141796
C75   C     C_R   0.940169 0.140540 0.239269 -0.141796
C76   C     C_R   0.059830 0.140540 0.760731 -0.141795
C77   C     C_R   0.652015 0.638388 0.760743 -0.121730
C78   C     C_R   0.347985 0.638388 0.239257 -0.121732
C79   C     C_R   0.152015 0.138388 0.760743 -0.121734
C80   C     C_R   0.847985 0.138388 0.239257 -0.121732
H1    H     H_    0.291806 0.205446 0.359142 0.140397
H2    H     H_    0.708194 0.205445 0.640859 0.140396
H3    H     H_    0.791805 0.705445 0.359141 0.140398
H4    H     H_    0.208193 0.705445 0.640857 0.140398
H5    H     H_    0.359450 0.755167 0.075841 0.108800
H6    H     H_    0.640550 0.755167 0.924159 0.108800
H7    H     H_    0.859451 0.255167 0.075842 0.108800
H8    H     H_    0.140548 0.255168 0.924156 0.108800
H9    H     H_    0.674267 0.325587 0.016745 0.153557
H10   H     H_    0.325733 0.325587 0.983255 0.153556
H11   H     H_    0.174267 0.825586 0.016744 0.153556
H12   H     H_    0.825733 0.825587 0.983255 0.153557
H13   H     H_    0.569611 0.349014 0.322709 0.126892
H14   H     H_    0.430388 0.349015 0.677291 0.126892
H15   H     H_    0.069612 0.849015 0.322709 0.126892
H16   H     H_    0.930388 0.849015 0.677291 0.126892
H17   H     H_    0.263096 0.592757 0.325132 0.093404
H18   H     H_    0.736904 0.592757 0.674868 0.093403
H19   H     H_    0.763096 0.092757 0.325132 0.093403
H20   H     H_    0.236904 0.092757 0.674868 0.093404
H21   H     H_    0.701293 0.650726 0.777224 0.112256
H22   H     H_    0.298707 0.650726 0.222776 0.112257
H23   H     H_    0.201293 0.150727 0.777223 0.112258
H24   H     H_    0.798707 0.150726 0.222776 0.112257
N1    N     N_R   0.389060 0.424180 0.294540 -0.055364
N2    N     N_R   0.610940 0.424180 0.705460 -0.055364
N3    N     N_R   0.889060 0.924180 0.294540 -0.055364
N4    N     N_R   0.110940 0.924180 0.705460 -0.055364
N5    N     N_R   0.579670 0.423790 0.443360 -0.041352
N6    N     N_R   0.420330 0.423790 0.556640 -0.041352
N7    N     N_R   0.079670 0.923790 0.443360 -0.041352
N8    N     N_R   0.920330 0.923790 0.556640 -0.041352
N9    N     N_R   0.625470 0.423490 0.556600 -0.041939
N10   N     N_R   0.374530 0.423490 0.443400 -0.041939
N11   N     N_R   0.125470 0.923490 0.556600 -0.041938
N12   N     N_R   0.874530 0.923490 0.443400 -0.041938
N13   N     N_R   0.555250 0.423100 0.705420 -0.055985
N14   N     N_R   0.444750 0.423100 0.294580 -0.055985
N15   N     N_R   0.055250 0.923100 0.705420 -0.055985
N16   N     N_R   0.944750 0.923100 0.294580 -0.055985
N17   N     N_R   0.375210 0.577180 0.443400 -0.039111
N18   N     N_R   0.624790 0.577180 0.556600 -0.039112
N19   N     N_R   0.875210 0.077180 0.443400 -0.039112
N20   N     N_R   0.124790 0.077180 0.556600 -0.039112
N21   N     N_R   0.445430 0.577570 0.294580 -0.040754
N22   N     N_R   0.554570 0.577570 0.705420 -0.040754
N23   N     N_R   0.945430 0.077570 0.294580 -0.040754
N24   N     N_R   0.054570 0.077570 0.705420 -0.040754
N25   N     N_R   0.611620 0.576500 0.705460 -0.045168
N26   N     N_R   0.388380 0.576500 0.294540 -0.045168
N27   N     N_R   0.111620 0.076500 0.705460 -0.045167
N28   N     N_R   0.888380 0.076500 0.294540 -0.045168
N29   N     N_R   0.421010 0.576890 0.556640 -0.044614
N30   N     N_R   0.578990 0.576890 0.443360 -0.044614
N31   N     N_R   0.921010 0.076890 0.556640 -0.044614
N32   N     N_R   0.078990 0.076890 0.443360 -0.044614
Ni1   Ni    Ni4+2 0.383200 0.500680 0.370150 0.205785
Ni2   Ni    Ni4+2 0.616800 0.500680 0.629850 0.205785
Ni3   Ni    Ni4+2 0.883200 0.000680 0.370150 0.205785
Ni4   Ni    Ni4+2 0.116800 0.000680 0.629850 0.205785
Ni5   Ni    Ni4+2 0.512440 0.500680 0.370150 0.209663
Ni6   Ni    Ni4+2 0.487560 0.500680 0.629850 0.209663
Ni7   Ni    Ni4+2 0.012440 0.000680 0.370150 0.209663
Ni8   Ni    Ni4+2 0.987560 0.000680 0.629850 0.209663
H25   H     H_    0.279597 0.397497 0.173758 0.107074
H26   H     H_    0.720403 0.397497 0.826242 0.107074
H27   H     H_    0.779597 0.897497 0.173758 0.107074
H28   H     H_    0.220403 0.897497 0.826242 0.107074
H29   H     H_    0.792882 0.639574 0.587009 0.103392
H30   H     H_    0.207118 0.639574 0.412991 0.103392
H31   H     H_    0.292882 0.139573 0.587008 0.103392
H32   H     H_    0.707118 0.139572 0.412993 0.103392
H33   H     H_    0.311404 0.256232 0.567517 0.136444
H34   H     H_    0.688594 0.256230 0.432482 0.136443
H35   H     H_    0.811404 0.756232 0.567517 0.136443
H36   H     H_    0.188596 0.756232 0.432483 0.136444
C81   C     C_3   0.306727 0.809885 0.231087 -0.970461
H37   H     H_    0.303548 0.871870 0.246728 0.250269
H38   H     H_    0.258296 0.780050 0.206143 0.229130
H39   H     H_    0.353815 0.785131 0.310229 0.252904
C82   C     C_3   0.693273 0.809885 0.768913 -0.970461
H40   H     H_    0.696455 0.871869 0.753274 0.250269
H41   H     H_    0.741703 0.780048 0.793856 0.229129
H42   H     H_    0.646184 0.785133 0.689770 0.252905
C83   C     C_3   0.806726 0.309885 0.231087 -0.970458
H43   H     H_    0.803546 0.371869 0.246727 0.250269
H44   H     H_    0.758296 0.280049 0.206142 0.229129
H45   H     H_    0.853814 0.285131 0.310229 0.252904
C84   C     C_3   0.193274 0.309885 0.768913 -0.970451
H46   H     H_    0.196452 0.371869 0.753270 0.250267
H47   H     H_    0.241706 0.280050 0.793860 0.229127
H48   H     H_    0.146187 0.285129 0.689771 0.252902
H49   H     H_    0.791020 0.376388 0.006459 0.110751
H50   H     H_    0.208980 0.376388 0.993540 0.110750
H51   H     H_    0.291020 0.876389 0.006460 0.110751
H52   H     H_    0.708980 0.876389 0.993541 0.110751
H53   H     H_    0.711856 0.349204 0.678690 0.095908
H54   H     H_    0.288143 0.349204 0.321309 0.095908
H55   H     H_    0.211856 0.849204 0.678690 0.095908
H56   H     H_    0.788144 0.849204 0.321309 0.095908
C85   C     C_3   0.544512 0.414310 0.855550 -1.083833
H57   H     H_    0.497215 0.451390 0.799178 0.255606
H58   H     H_    0.529247 0.359779 0.873436 0.246663
H59   H     H_    0.581950 0.446750 0.934181 0.264094
C86   C     C_3   0.455488 0.414310 0.144450 -1.083833
H60   H     H_    0.502785 0.451390 0.200822 0.255606
H61   H     H_    0.470753 0.359779 0.126563 0.246663
H62   H     H_    0.418050 0.446750 0.065819 0.264093
C87   C     C_3   0.044511 0.914310 0.855550 -1.083834
H63   H     H_    0.997215 0.951390 0.799178 0.255607
H64   H     H_    0.029247 0.859779 0.873436 0.246663
H65   H     H_    0.081950 0.946749 0.934181 0.264094
C88   C     C_3   0.955488 0.914310 0.144450 -1.083833
H66   H     H_    0.002785 0.951390 0.200822 0.255606
H67   H     H_    0.970753 0.859779 0.126564 0.246663
H68   H     H_    0.918050 0.946750 0.065819 0.264093
H69   H     H_    0.476564 0.656421 0.224610 0.102296
H70   H     H_    0.523436 0.656421 0.775390 0.102296
H71   H     H_    0.976564 0.156422 0.224610 0.102296
H72   H     H_    0.023435 0.156422 0.775389 0.102296
H73   H     H_    0.408582 0.596737 0.678356 0.110326
H74   H     H_    0.591418 0.596737 0.321644 0.110326
H75   H     H_    0.908583 0.096736 0.678357 0.110326
H76   H     H_    0.091418 0.096736 0.321644 0.110326
C89   C     C_3   0.692206 0.598692 0.306752 -1.030805
H77   H     H_    0.720065 0.584356 0.273413 0.248011
H78   H     H_    0.673757 0.542839 0.315986 0.253444
H79   H     H_    0.646744 0.636932 0.246414 0.244887
C90   C     C_3   0.307793 0.598692 0.693248 -1.030809
H80   H     H_    0.279935 0.584357 0.726587 0.248011
H81   H     H_    0.326242 0.542839 0.684014 0.253445
H82   H     H_    0.353256 0.636933 0.753585 0.244889
C91   C     C_3   0.192205 0.098694 0.306750 -1.030804
H83   H     H_    0.220062 0.084362 0.273407 0.248010
H84   H     H_    0.173757 0.042839 0.315984 0.253444
H85   H     H_    0.146741 0.136934 0.246415 0.244886
C92   C     C_3   0.807798 0.098697 0.693253 -1.030802
H86   H     H_    0.779944 0.084368 0.726602 0.248008
H87   H     H_    0.826244 0.042841 0.684020 0.253444
H88   H     H_    0.853262 0.136939 0.753583 0.244886

loop_
_geom_bond_atom_site_label_1
_geom_bond_atom_site_label_2
_ccdc_geom_bond_type
C15   C75   A    
C22   H30   S    
C3    H27   S    
C83   H43   S    
C80   N28   A    
C28   H4    S    
C20   C92   S    
C1    H25   S    
N14   Ni5   S    
C45   H13   S    
C13   C41   S    
C82   H40   S    
C57   C62   A    
C35   H11   S    
C89   H77   S    
N28   Ni3   S    
C5    N29   A    
C4    N4    A    
C12   C23   S    
N29   Ni6   S    
C81   H37   S    
C55   N11   A    
C80   H24   S    
C60   C63   A    
C14   C74   A    
C57   N13   A    
C9    C69   A    
C46   C66   A    
N32   Ni7   S    
C5    H73   S    
C37   C51   S    
C11   C71   A    
C9    C22   S    
C38   H50   S    
C8    N32   A    
C1    C61   A    
C4    H28   S    
N19   Ni3   S    
C11   C24   S    
C58   N14   A    
C90   H82   S    
C87   H64   S    
C84   H46   S    
C14   C77   A    
N17   Ni1   S    
N6    Ni6   S    
N23   N28   A    
N18   N30   A    
C7    H75   S    
N27   Ni4   S    
C24   H32   S    
C48   H16   S    
C32   H36   S    
C77   H21   S    
N21   N26   A    
C41   C49   D    
N25   Ni2   S    
C74   H70   S    
N21   Ni5   S    
C33   C62   S    
C88   H67   S    
C73   H69   S    
C17   C89   S    
C35   C64   S    
C42   H6    S    
C21   H29   S    
C36   C63   S    
C53   C65   A    
C16   C44   S    
C45   N5    A    
N7    Ni7   S    
C14   C42   S    
N12   Ni3   S    
C69   N17   A    
C44   C52   D    
C58   C61   A    
C85   H58   S    
C12   C72   A    
C26   H2    S    
C34   C38   D    
C72   N20   A    
C50   C82   S    
C25   H1    S    
N15   Ni8   S    
C84   H47   S    
N4    N15   A    
C79   H23   S    
C83   H44   S    
N16   Ni7   S    
C8    H76   S    
C57   C85   S    
C82   H41   S    
C53   N9    A    
C60   C88   S    
C7    C11   A    
C75   H71   S    
C91   H84   S    
C10   C21   S    
C25   C29   D    
C31   C68   S    
N17   N29   A    
C7    N31   A    
N20   N32   A    
C27   C31   D    
C17   C27   S    
C20   C24   D    
C36   C40   D    
C18   C90   S    
C18   C28   S    
C49   C81   S    
C39   H51   S    
C76   H72   S    
C40   H52   S    
C19   C23   D    
C86   H62   S    
C77   N25   A    
C56   N12   A    
N22   N25   A    
C3    N3    A    
C92   H86   S    
C91   H83   S    
C71   H19   S    
C2    N2    A    
C34   C61   S    
C33   C37   D    
C54   H54   S    
N19   N31   A    
C92   H88   S    
C85   H57   S    
C87   H65   S    
C35   C39   D    
C34   H10   S    
C5    C9    A    
C33   H9    S    
C23   H31   S    
N7    N11   A    
C70   N18   A    
C55   C67   A    
C15   C80   A    
C46   H14   S    
C28   C32   D    
C8    C12   A    
C88   H68   S    
C79   N27   A    
C90   H80   S    
C59   C64   A    
C47   C67   A    
N23   Ni7   S    
C48   C68   A    
N24   Ni8   S    
N18   Ni2   S    
C42   C50   D    
C32   C67   S    
C10   C70   A    
N31   Ni8   S    
C39   C49   S    
N2    Ni2   S    
C13   C73   A    
C26   C30   D    
C81   H39   S    
C3    C63   A    
C46   N6    A    
N2    N13   A    
C45   C65   A    
C76   N24   A    
C84   H48   S    
N1    N14   A    
C51   C83   S    
C2    H26   S    
N24   N27   A    
N3    N16   A    
N8    N12   A    
C82   H42   S    
C29   H33   S    
C56   H56   S    
C89   H79   S    
C71   N19   A    
N6    N10   A    
C13   C78   A    
C59   N15   A    
C85   H59   S    
C48   N8    A    
C16   C76   A    
C55   H55   S    
N20   Ni4   S    
C53   H53   S    
C52   C84   S    
C72   H20   S    
C31   H35   S    
C6    H74   S    
C91   H85   S    
C54   C66   A    
N5    N9    A    
C92   H87   S    
C41   H5    S    
C4    C64   A    
C89   H78   S    
C83   H45   S    
C16   C79   A    
C43   H7    S    
N8    Ni8   S    
N1    Ni1   S    
C18   C22   D    
N13   Ni6   S    
C78   N26   A    
C15   C43   S    
C6    N30   A    
C56   C68   A    
N30   Ni5   S    
C36   H12   S    
C86   H60   S    
C74   N22   A    
C20   C26   S    
C43   C51   D    
C47   N7    A    
C54   N10   A    
C27   H3    S    
C90   H81   S    
N22   Ni6   S    
C60   N16   A    
C75   N23   A    
N10   Ni1   S    
N3    Ni3   S    
C87   H63   S    
C19   C25   S    
C17   C21   D    
C30   C65   S    
C86   H61   S    
C6    C10   A    
C37   H49   S    
C29   C66   S    
C59   C87   S    
C2    C62   A    
C40   C50   S    
C30   H34   S    
C38   C52   S    
N11   Ni4   S    
C73   N21   A    
C81   H38   S    
C88   H66   S    
C47   H15   S    
N9    Ni2   S    
N5    Ni5   S    
C78   H22   S    
C19   C91   S    
C44   H8    S    
N26   Ni1   S    
N4    Ni4   S    
C70   H18   S    
C1    N1    A    
C58   C86   S    
C69   H17   S    
