data_mof_unit_42556.cif
_audit_creation_date              2012-12-10T20:33:33-0500
_audit_creation_method            fapswitch 2.2
_symmetry_space_group_name_H-M    P1
_symmetry_Int_Tables_number       1
_space_group_crystal_system       triclinic
_cell_length_a                    14.139174
_cell_length_b                    10.643884
_cell_length_c                    9.904842
_cell_angle_alpha                 90.137739
_cell_angle_beta                  90.711585
_cell_angle_gamma                 90.048763
_cell_volume                      1490.51656179

loop_
_atom_site_label
_atom_site_type_symbol
_atom_type_description
_atom_site_fract_x
_atom_site_fract_y
_atom_site_fract_z
_atom_type_partial_charge
C1    C     C_R   0.501355 0.260463 0.499467 0.864758
C2    C     C_3   0.612007 0.073194 0.704989 -0.583582
C3    C     C_R   0.481848 0.392709 0.069256 0.090171
C4    C     C_R   0.329259 0.500297 0.499500 0.872050
C5    C     C_R   0.523020 0.605023 0.072509 -0.135688
C6    C     C_R   0.521580 0.605450 0.928907 -0.121381
C7    C     C_R   0.488036 0.390494 0.928093 0.121013
C8    C     C_3   0.409734 0.296936 0.913369 0.289874
C9    C     C_3   0.395074 0.310279 0.066722 -0.251936
C10   C     C_R   0.499858 0.739625 0.499948 0.889113
C11   C     C_R   0.670773 0.500205 0.500753 0.900833
C12   C     C_1   0.772277 0.500564 0.502463 -0.196625
C13   C     C_1   0.227821 0.500687 0.499454 -0.198474
C14   C     C_1   0.142591 0.500940 0.501341 -0.022137
C15   C     C_1   0.042730 0.500986 0.502905 -0.006874
C16   C     C_1   0.957465 0.500943 0.503467 0.004231
C17   C     C_1   0.857565 0.500805 0.503301 -0.014742
C18   C     C_3   0.301874 0.377235 0.107579 -0.286208
C19   C     C_3   0.237817 0.289083 0.188030 -0.394136
C20   C     C_3   0.136777 0.339053 0.193795 -0.870564
C21   C     C_3   0.727379 0.863970 0.852069 0.093949
C22   C     C_3   0.821062 0.792779 0.858798 -0.308340
C23   C     C_R   0.575554 0.063989 0.563311 0.048219
C24   C     C_3   0.855661 0.776884 0.004314 -0.967707
C25   C     C_3   0.268523 0.246178 0.803188 0.088817
C26   C     C_3   0.292795 0.173513 0.674546 -0.331993
C27   C     C_3   0.215007 0.080325 0.635986 -0.971909
C28   C     C_R   0.504568 0.128686 0.494727 -0.086330
C29   C     C_R   0.442071 0.064986 0.407738 -0.232032
C30   C     C_R   0.441040 0.935145 0.408639 -0.216787
C31   C     C_R   0.502084 0.871529 0.497177 -0.151390
C32   C     C_R   0.573530 0.935824 0.565761 0.135517
C33   C     C_3   0.607610 0.929976 0.708859 0.305196
H1    H     H_    0.390858 0.115121 0.346128 0.142006
H2    H     H_    0.136448 0.438347 0.228087 0.270103
H3    H     H_    0.102863 0.333624 0.092173 0.252767
H4    H     H_    0.094940 0.281597 0.265002 0.258417
H5    H     H_    0.235801 0.194370 0.140518 0.213071
H6    H     H_    0.266626 0.279206 0.292384 0.227050
H7    H     H_    0.316777 0.462281 0.167752 0.227108
H8    H     H_    0.261656 0.413713 0.019487 0.234179
H9    H     H_    0.674760 0.811863 0.913046 0.118397
H10   H     H_    0.737861 0.959418 0.896028 0.141012
H11   H     H_    0.811747 0.698476 0.812089 0.232966
H12   H     H_    0.437609 0.203380 0.883806 0.029442
H13   H     H_    0.875226 0.844895 0.800955 0.225398
H14   H     H_    0.866631 0.870130 0.052591 0.265024
H15   H     H_    0.923912 0.725306 0.005591 0.268236
H16   H     H_    0.803382 0.722425 0.063227 0.269535
H17   H     H_    0.198743 0.292330 0.788170 0.164012
H18   H     H_    0.260512 0.180195 0.889654 0.118759
H19   H     H_    0.302308 0.240337 0.589882 0.219674
H20   H     H_    0.359752 0.120958 0.690513 0.213315
H21   H     H_    0.204669 0.011338 0.718486 0.265493
H22   H     H_    0.235374 0.028765 0.543182 0.269158
H23   H     H_    0.409105 0.220902 0.121350 0.136240
H24   H     H_    0.147504 0.130603 0.615727 0.267437
H25   H     H_    0.389728 0.885039 0.346610 0.153322
H26   H     H_    0.553276 0.890670 0.777477 0.058207
H27   H     H_    0.561438 0.118491 0.774227 0.166934
H28   H     H_    0.684997 0.112037 0.709495 0.220394
H29   H     H_    0.540550 0.690465 0.126520 0.149359
H30   H     H_    0.536645 0.691198 0.875788 0.134971
N1    N     N_R   0.499420 0.499140 0.142800 -0.092248
N2    N     N_R   0.499420 0.499180 0.857150 -0.070376
O1    O     O_R   0.500010 0.316790 0.614690 -0.605773
O2    O     O_3   0.335965 0.342055 0.828800 -0.595339
O3    O     O_R   0.500000 0.316760 0.385350 -0.612575
O4    O     O_R   0.373720 0.500020 0.614700 -0.535326
O5    O     O_R   0.373710 0.499980 0.385350 -0.621232
O6    O     O_R   0.500000 0.683240 0.614650 -0.623901
O7    O     O_R   0.499990 0.683210 0.385310 -0.620058
O8    O     O_R   0.626290 0.500020 0.614650 -0.595116
O9    O     O_R   0.626280 0.499980 0.385300 -0.592655
O10   O     O_3   0.697635 0.872841 0.715867 -0.615822
Zn1   Zn    Zn3+2 0.500010 0.500020 0.653130 0.980679
Zn2   Zn    Zn3+2 0.499990 0.499980 0.346870 0.932849

loop_
_geom_bond_atom_site_label_1
_geom_bond_atom_site_label_2
_ccdc_geom_bond_type
N1    Zn2   S    
C19   C20   S    
C25   O2    S    
C4    O5    A    
C27   H21   S    
C7    C8    S    
C3    N1    A    
C26   C27   S    
O7    Zn2   S    
N2    Zn1   S    
C28   C29   A    
C3    C7    A    
C30   C31   A    
C27   H22   S    
C15   C16   T    
O3    Zn2   S    
C1    O3    A    
O4    Zn1   S    
C18   C19   S    
C4    C13   S    
C18   H7    S    
C25   H17   S    
C21   H10   S    
C20   H2    S    
C10   C31   S    
C33   O10   S    
C6    N2    A    
C22   H11   S    
C8    H12   S    
C8    C9    S    
O9    Zn2   S    
C12   C17   T    
C1    C28   S    
C2    H28   S    
C10   O6    A    
C33   H26   S    
C13   C14   T    
O5    Zn2   S    
C4    O4    A    
C24   H15   S    
C11   O8    A    
C18   H8    S    
C16   C17   S    
C25   C26   S    
C29   H1    S    
C5    N1    A    
C6    H30   S    
C25   H18   S    
C29   C30   A    
C3    C9    S    
C19   H5    S    
C26   H19   S    
C7    N2    A    
C31   C32   A    
O1    Zn1   S    
C1    O1    A    
C9    H23   S    
C23   C28   A    
C19   H6    S    
C2    C33   S    
C22   H13   S    
C27   H24   S    
O8    Zn1   S    
C22   C24   S    
C26   H20   S    
O6    Zn1   S    
C24   H16   S    
C24   H14   S    
C11   O9    A    
C11   C12   S    
C21   O10   S    
C23   C32   A    
C32   C33   S    
C20   H4    S    
C5    C6    A    
C30   H25   S    
C5    H29   S    
C2    H27   S    
C21   H9    S    
C20   H3    S    
C9    C18   S    
C8    O2    S    
C2    C23   S    
C14   C15   S    
C21   C22   S    
C10   O7    A    
