data_mof_unit_64726.cif
_audit_creation_date              2012-12-10T18:20:30-0500
_audit_creation_method            fapswitch 2.2
_symmetry_space_group_name_H-M    P1
_symmetry_Int_Tables_number       1
_space_group_crystal_system       triclinic
_cell_length_a                    21.476678
_cell_length_b                    21.490364
_cell_length_c                    21.965168
_cell_angle_alpha                 119.317625
_cell_angle_beta                  118.879837
_cell_angle_gamma                 90.110008
_cell_volume                      7353.01799964

loop_
_atom_site_label
_atom_site_type_symbol
_atom_type_description
_atom_site_fract_x
_atom_site_fract_y
_atom_site_fract_z
_atom_type_partial_charge
C1    C     C_R   0.502008 0.123167 0.503877 0.931033
C2    C     C_R   0.500649 0.879246 0.501128 0.913717
C3    C     C_3   0.707484 0.208646 0.917532 0.293057
C4    C     C_3   0.292815 0.792618 0.082552 0.311070
C5    C     C_3   0.768705 0.341688 0.048340 -0.411449
C6    C     C_3   0.261179 0.668434 0.951004 -0.404203
C7    C     C_3   0.790705 0.291167 0.082519 0.243484
C8    C     C_3   0.210348 0.710063 0.917703 0.254394
C9    C     C_3   0.720585 0.230273 0.047936 0.446284
C10   C     C_3   0.258357 0.787843 0.951577 0.457409
C11   C     C_3   0.668531 0.186047 0.950791 -0.469457
C12   C     C_3   0.309106 0.836221 0.050040 -0.503478
C13   C     C_1   0.836998 0.336829 0.173936 -0.067743
C14   C     C_1   0.163790 0.663713 0.826155 -0.047739
C15   C     C_1   0.662068 0.163133 0.826096 -0.091623
C16   C     C_1   0.338091 0.837609 0.173982 -0.098959
C17   C     C_1   0.624881 0.125641 0.751030 -0.179512
C18   C     C_1   0.375194 0.874665 0.249024 -0.185611
C19   C     C_3   0.468608 0.240795 0.551726 -0.500721
C20   C     C_3   0.502460 0.826323 0.579016 -0.474878
C21   C     C_3   0.468744 0.311772 0.550778 -0.438045
C22   C     C_3   0.497884 0.753536 0.576595 -0.410061
C23   C     C_R   0.580840 0.081107 0.662064 0.918296
C24   C     C_R   0.419178 0.918875 0.337956 0.943260
C25   C     C_3   0.583628 0.237324 0.543277 0.443664
C26   C     C_3   0.571881 0.787326 0.507993 0.438733
C27   C     C_3   0.451158 0.167213 0.410858 0.291591
C28   C     C_3   0.425260 0.746918 0.421753 0.327203
C29   C     C_3   0.502260 0.191165 0.503508 -0.007312
C30   C     C_3   0.500612 0.811123 0.501146 -0.035367
C31   C     C_3   0.500624 0.310487 0.500302 0.067944
C32   C     C_3   0.496738 0.689394 0.499759 0.051123
C33   C     C_3   0.582475 0.309344 0.542703 -0.511238
C34   C     C_3   0.567629 0.714258 0.505158 -0.471911
C35   C     C_3   0.452523 0.238259 0.409409 -0.443064
C36   C     C_3   0.426511 0.673216 0.417184 -0.480133
C37   C     C_3   0.744712 0.582517 0.561288 -0.402799
C38   C     C_3   0.253418 0.417985 0.435362 -0.401509
C39   C     C_3   0.798086 0.449478 0.528175 -0.371438
C40   C     C_3   0.204497 0.553894 0.476778 -0.371177
C41   C     C_3   0.726894 0.451224 0.528675 -0.416708
C42   C     C_3   0.275518 0.551864 0.475942 -0.420378
C43   C     C_3   0.689643 0.501386 0.499719 0.179716
C44   C     C_3   0.310378 0.498349 0.500303 0.187145
C45   C     C_3   0.744507 0.472195 0.412803 -0.413336
C46   C     C_3   0.255144 0.523847 0.586279 -0.412023
C47   C     C_3   0.671963 0.470468 0.410635 -0.377729
C48   C     C_3   0.327652 0.525402 0.588361 -0.380604
C49   C     C_R   0.880007 0.501149 0.502450 0.827348
C50   C     C_R   0.120210 0.499077 0.497968 0.828071
C51   C     C_R   0.919251 0.418925 0.337947 0.905569
C52   C     C_R   0.080830 0.581099 0.662077 0.902923
C53   C     C_R   0.378462 0.498178 0.500242 0.830432
C54   C     C_R   0.621539 0.501476 0.499742 0.842367
C55   C     C_R   0.499714 0.378302 0.499839 0.894598
C56   C     C_R   0.496498 0.621479 0.499999 0.896373
C57   C     C_3   0.811692 0.501166 0.502235 0.179280
C58   C     C_3   0.188502 0.499024 0.498136 0.179977
C59   C     C_3   0.817757 0.582101 0.564501 -0.396442
C60   C     C_3   0.180504 0.418817 0.432401 -0.398698
C61   C     C_3   0.717631 0.292807 0.951337 -0.405841
C62   C     C_3   0.311152 0.717938 0.048187 -0.406125
C63   C     C_3   0.785924 0.197326 0.950615 -0.399671
C64   C     C_3   0.208516 0.774182 0.049323 -0.396331
C65   C     C_3   0.836011 0.247802 0.047994 -0.505870
C66   C     C_3   0.159807 0.724791 0.952120 -0.517396
C67   C     C_1   0.874735 0.374353 0.248989 -0.188527
C68   C     C_1   0.125729 0.625811 0.751077 -0.182370
H1    H     H_    0.718827 0.619122 0.540671 0.147864
H2    H     H_    0.277563 0.378974 0.452684 0.147465
H3    H     H_    0.856825 0.212437 0.072591 0.168133
H4    H     H_    0.120815 0.753330 0.928567 0.167043
H5    H     H_    0.613372 0.196068 0.929866 0.182671
H6    H     H_    0.369912 0.852817 0.077153 0.170978
H7    H     H_    0.656733 0.124652 0.923358 0.145364
H8    H     H_    0.296135 0.890022 0.074564 0.135820
H9    H     H_    0.741693 0.380623 0.074699 0.157017
H10   H     H_    0.295834 0.652044 0.924616 0.173441
H11   H     H_    0.743273 0.188357 0.060565 0.093187
H12   H     H_    0.217673 0.818145 0.935547 0.083123
H13   H     H_    0.499367 0.255377 0.616929 0.193158
H14   H     H_    0.554341 0.871663 0.638293 0.226195
H15   H     H_    0.409753 0.209396 0.521380 0.190420
H16   H     H_    0.454837 0.845962 0.580059 0.172112
H17   H     H_    0.410600 0.314737 0.521898 0.160572
H18   H     H_    0.446464 0.736379 0.572709 0.158497
H19   H     H_    0.752287 0.509312 0.393582 0.171060
H20   H     H_    0.245745 0.484389 0.602192 0.175150
H21   H     H_    0.502571 0.362338 0.616384 0.189752
H22   H     H_    0.546916 0.764971 0.636303 0.209609
H23   H     H_    0.618321 0.362273 0.605597 0.187720
H24   H     H_    0.618209 0.722614 0.562019 0.199970
H25   H     H_    0.394070 0.239499 0.376814 0.145851
H26   H     H_    0.374838 0.649662 0.409209 0.148551
H27   H     H_    0.475575 0.236227 0.372878 0.208187
H28   H     H_    0.426279 0.629927 0.361795 0.205447
H29   H     H_    0.599915 0.202621 0.499139 0.155582
H30   H     H_    0.573095 0.776673 0.453835 0.051348
H31   H     H_    0.605137 0.308577 0.506248 0.132630
H32   H     H_    0.567061 0.669440 0.449942 0.113173
H33   H     H_    0.757924 0.606906 0.625625 0.182994
H34   H     H_    0.240417 0.396268 0.371599 0.182752
H35   H     H_    0.643441 0.504825 0.387797 0.160738
H36   H     H_    0.354610 0.488623 0.607968 0.159936
H37   H     H_    0.791713 0.390542 0.483395 0.186044
H38   H     H_    0.212250 0.612329 0.524155 0.183227
H39   H     H_    0.846789 0.468328 0.591677 0.161926
H40   H     H_    0.156287 0.538090 0.414328 0.163565
H41   H     H_    0.740191 0.414749 0.366864 0.168161
H42   H     H_    0.260709 0.580670 0.634627 0.163629
H43   H     H_    0.828355 0.621023 0.548515 0.182774
H44   H     H_    0.168097 0.377715 0.445038 0.183614
H45   H     H_    0.687442 0.393088 0.486255 0.155545
H46   H     H_    0.316312 0.609532 0.520786 0.151486
H47   H     H_    0.633649 0.411610 0.365401 0.182460
H48   H     H_    0.367192 0.583707 0.636025 0.180377
H49   H     H_    0.865508 0.603446 0.629387 0.153130
H50   H     H_    0.133189 0.400511 0.368431 0.152714
H51   H     H_    0.820287 0.378796 0.068319 0.175014
H52   H     H_    0.225849 0.615040 0.929732 0.171977
H53   H     H_    0.742868 0.309866 0.925740 0.171488
H54   H     H_    0.301745 0.686748 0.072738 0.175922
H55   H     H_    0.779889 0.137390 0.928637 0.172171
H56   H     H_    0.193864 0.827066 0.072462 0.167733
H57   H     H_    0.813577 0.211353 0.925212 0.184109
H58   H     H_    0.196073 0.744028 0.073326 0.186412
H59   H     H_    0.886199 0.287857 0.069140 0.193033
H60   H     H_    0.124733 0.670632 0.929604 0.194619
O1    O     O_R   0.447710 0.092600 0.500010 -0.659766
O2    O     O_R   0.552290 0.907400 0.499990 -0.621187
O3    O     O_R   0.441990 0.534630 0.569310 -0.635143
O4    O     O_R   0.558010 0.465370 0.430690 -0.630925
O5    O     O_R   0.465370 0.372730 0.430660 -0.632346
O6    O     O_R   0.534630 0.627270 0.569340 -0.631118
O7    O     O_R   0.534650 0.442080 0.569370 -0.633306
O8    O     O_R   0.465350 0.557920 0.430630 -0.629499
O9    O     O_R   0.552280 0.092600 0.499960 -0.577077
O10   O     O_R   0.447720 0.907400 0.500040 -0.632447
O11   O     O_R   0.509140 0.061430 0.622880 -0.630546
O12   O     O_R   0.490860 0.938570 0.377120 -0.625174
O13   O     O_R   0.613710 0.061430 0.622840 -0.601065
O14   O     O_R   0.386290 0.938570 0.377160 -0.612766
O15   O     O_R   0.907580 0.552300 0.500030 -0.632118
O16   O     O_R   0.092420 0.447700 0.499970 -0.631047
O17   O     O_R   0.907560 0.447760 0.500050 -0.629314
O18   O     O_R   0.092440 0.552240 0.499950 -0.629860
O19   O     O_R   0.938770 0.490850 0.377130 -0.621635
O20   O     O_R   0.061230 0.509150 0.622870 -0.620790
O21   O     O_R   0.938740 0.386300 0.377150 -0.611917
O22   O     O_R   0.061260 0.613700 0.622850 -0.609763
O23   O     O_R   0.372700 0.465280 0.430600 -0.632830
O24   O     O_R   0.627300 0.534720 0.569400 -0.630529
Zn1   Zn    Zn3+2 0.430180 0.000000 0.500030 0.943035
Zn2   Zn    Zn3+2 0.569820 0.000000 0.499970 0.984423
Zn3   Zn    Zn3+2 0.000200 0.569810 0.499990 0.934476
Zn4   Zn    Zn3+2 0.999800 0.430190 0.500010 0.936272
Zn5   Zn    Zn3+2 0.453740 0.453690 0.407380 0.917811
Zn6   Zn    Zn3+2 0.546260 0.546310 0.592620 0.912385
O25   O     O_3   0.682107 0.252797 0.089154 -0.602438
C69   C     C_3   0.654586 0.312666 0.090561 -0.304333
H61   H     H_    0.630385 0.309108 0.031088 0.147176
H62   H     H_    0.698903 0.367129 0.144914 0.166408
H63   H     H_    0.608799 0.311061 0.100483 0.183837
O26   O     O_3   0.292005 0.781380 0.907115 -0.601314
C70   C     C_3   0.367415 0.782779 0.945764 -0.313951
H64   H     H_    0.380951 0.753675 0.978260 0.149580
H65   H     H_    0.404876 0.841755 0.989878 0.169786
H66   H     H_    0.379203 0.753815 0.896449 0.184530
H67   H     H_    0.662271 0.302689 0.930353 0.160094
H68   H     H_    0.371176 0.729629 0.070109 0.158775
O27   O     O_3   0.638064 0.244605 0.619544 -0.602446
C71   C     C_3   0.657907 0.312400 0.694706 -0.326681
H69   H     H_    0.611137 0.335345 0.691054 0.156160
H70   H     H_    0.705129 0.354839 0.714446 0.171004
H71   H     H_    0.677923 0.301697 0.744593 0.183078
O28   O     O_3   0.637470 0.845373 0.584935 -0.588992
C72   C     C_3   0.699221 0.845306 0.577518 -0.324738
H72   H     H_    0.708281 0.789394 0.554954 0.141519
H73   H     H_    0.750273 0.886647 0.640357 0.191235
H74   H     H_    0.691846 0.862873 0.535128 0.165945
O29   O     O_3   0.476737 0.118059 0.362251 -0.610677
C73   C     C_3   0.416315 0.067199 0.278182 -0.330518
H75   H     H_    0.385184 0.097186 0.250007 0.157834
H76   H     H_    0.377861 0.028073 0.273708 0.156070
H77   H     H_    0.438713 0.032965 0.241054 0.197196
O30   O     O_3   0.396806 0.738690 0.343689 -0.599521
C74   C     C_3   0.445006 0.724332 0.315420 -0.337233
H78   H     H_    0.474379 0.684642 0.325608 0.138128
H79   H     H_    0.484999 0.777883 0.343652 0.168816
H80   H     H_    0.410706 0.698024 0.246675 0.189676
H81   H     H_    0.392758 0.139544 0.386760 0.088158
H82   H     H_    0.381581 0.763216 0.434595 0.139968
H83   H     H_    0.741538 0.473193 0.593107 0.174731
H84   H     H_    0.261186 0.532632 0.412253 0.173681

loop_
_geom_bond_atom_site_label_1
_geom_bond_atom_site_label_2
_ccdc_geom_bond_type
C7    C13   S    
C37   H33   S    
O27   C71   S    
C63   C65   S    
C8    C66   S    
C70   H64   S    
C20   H14   S    
C63   H55   S    
C27   C29   S    
C3    C11   S    
C38   H2    S    
C1    O9    A    
C39   C41   S    
C20   C30   S    
O29   C73   S    
C24   O12   A    
C39   H39   S    
C21   C31   S    
C45   C57   S    
C12   H6    S    
C17   C23   S    
C22   C32   S    
C5    H51   S    
C18   C24   S    
O23   Zn5   S    
C23   O11   A    
O26   C70   S    
C45   H19   S    
O21   Zn4   S    
C1    O1    A    
C33   H23   S    
C8    C10   S    
C72   H74   S    
C45   H41   S    
O13   Zn2   S    
C6    H10   S    
C9    O25   S    
C58   C60   S    
C48   H36   S    
C4    C62   S    
C49   C57   S    
C61   H53   S    
C9    H11   S    
C42   H84   S    
C73   H75   S    
C74   H80   S    
C41   H83   S    
C64   C66   S    
O17   Zn4   S    
C44   C53   S    
C26   C34   S    
C66   H4    S    
O18   Zn3   S    
C24   O14   A    
O16   Zn4   S    
C72   H73   S    
C34   H32   S    
C31   C33   S    
C60   H50   S    
C53   O3    A    
C51   O19   A    
C4    C12   S    
O19   Zn3   S    
C52   C68   S    
C71   H71   S    
C48   H48   S    
C25   O27   S    
C3    C61   S    
C52   O20   A    
O7    Zn6   S    
C46   C58   S    
C41   C43   S    
C70   H65   S    
C42   C44   S    
C19   H15   S    
C28   H82   S    
C6    H52   S    
C56   O8    A    
C71   H70   S    
C46   H20   S    
C45   C47   S    
C25   C29   S    
C62   H68   S    
C46   C48   S    
C40   C58   S    
C5    C61   S    
C2    O10   A    
C69   H63   S    
C47   H35   S    
C11   H5    S    
C41   H45   S    
C5    C7    S    
C36   H26   S    
C10   H12   S    
C54   O24   A    
C27   C35   S    
C65   H3    S    
C21   H17   S    
C50   O16   A    
C73   H77   S    
C32   C34   S    
C4    C16   S    
O3    Zn6   S    
C47   H47   S    
C42   H46   S    
C27   O29   S    
C38   C44   S    
C60   H44   S    
C28   O30   S    
C7    C65   S    
C37   H1    S    
C36   H28   S    
C43   C54   S    
O15   Zn3   S    
O25   C69   S    
C26   O28   S    
C35   H25   S    
C1    C29   S    
C22   H22   S    
C50   C58   S    
C49   O17   A    
O2    Zn2   S    
C16   C18   T    
C51   C67   S    
C9    C11   S    
C51   O21   A    
C37   C59   S    
C10   C12   S    
C27   H81   S    
O24   Zn6   S    
C38   C60   S    
O8    Zn5   S    
C6    C8    S    
O10   Zn1   S    
C25   H29   S    
O28   C72   S    
O6    Zn6   S    
C26   H30   S    
C26   C30   S    
C70   H66   S    
C64   H58   S    
O22   Zn3   S    
C20   H16   S    
C31   C35   S    
C37   C43   S    
C63   H57   S    
C61   H67   S    
C55   O5    A    
C59   H49   S    
C5    H9    S    
C19   C29   S    
C65   H59   S    
C62   H54   S    
C3    C15   S    
C71   H69   S    
C40   H38   S    
C13   C67   T    
C39   H37   S    
C8    C14   S    
C19   C21   S    
C69   H62   S    
C21   H21   S    
C20   C22   S    
C56   O6    A    
C32   C36   S    
C15   C17   T    
C3    C63   S    
C54   O4    A    
C4    C64   S    
O4    Zn5   S    
C40   H40   S    
C2    C30   S    
C31   C55   S    
C69   H61   S    
C6    C62   S    
C12   H8    S    
C28   C30   S    
C38   H34   S    
C46   H42   S    
C64   H56   S    
O1    Zn1   S    
C10   O26   S    
C50   O18   A    
C55   O7    A    
C49   O15   A    
C40   C42   S    
C2    O2    A    
C66   H60   S    
O9    Zn2   S    
O5    Zn5   S    
C22   H18   S    
O14   Zn1   S    
C14   C68   T    
C73   H76   S    
C74   H79   S    
C57   C59   S    
C7    C9    S    
C74   H78   S    
C28   C36   S    
C52   O22   A    
C72   H72   S    
C25   C33   S    
C59   H43   S    
C53   O23   A    
O11   Zn1   S    
C23   O13   A    
C11   H7    S    
O20   Zn4   S    
C33   H31   S    
O30   C74   S    
C19   H13   S    
C43   C47   S    
C32   C56   S    
C44   C48   S    
O12   Zn2   S    
C35   H27   S    
C34   H24   S    
C39   C57   S    
