data_mof_unit_54033.cif
_audit_creation_date              2012-12-10T18:03:33-0500
_audit_creation_method            fapswitch 2.2
_symmetry_space_group_name_H-M    P1
_symmetry_Int_Tables_number       1
_space_group_crystal_system       triclinic
_cell_length_a                    10.842716
_cell_length_b                    9.639308
_cell_length_c                    19.455343
_cell_angle_alpha                 89.764221
_cell_angle_beta                  94.989364
_cell_angle_gamma                 89.988732
_cell_volume                      2025.67775534

loop_
_atom_site_label
_atom_site_type_symbol
_atom_type_description
_atom_site_fract_x
_atom_site_fract_y
_atom_site_fract_z
_atom_type_partial_charge
C1    C     C_R   0.871426 0.499395 0.498362 -0.031129
C2    C     C_R   0.128743 0.499433 0.502728 -0.032199
C3    C     C_R   0.389106 0.547157 0.961236 -0.187461
C4    C     C_R   0.571030 0.386926 0.035202 -0.189816
C5    C     C_R   0.398489 0.547704 0.032997 -0.185524
C6    C     C_R   0.559929 0.384483 0.963249 -0.178690
C7    C     C_R   0.491541 0.470382 0.070777 0.164724
C8    C     C_R   0.470590 0.466794 0.926185 0.152899
C9    C     C_R   0.262589 0.499880 0.501248 0.781275
C10   C     C_R   0.737468 0.499871 0.499082 0.783157
C11   C     C_R   0.504796 0.500222 0.367785 0.852915
C12   C     C_R   0.494941 0.499624 0.632149 0.855044
C13   C     C_R   0.064219 0.373648 0.503395 -0.170009
C14   C     C_R   0.936031 0.624953 0.498386 -0.181240
C15   C     C_R   0.936236 0.373584 0.499401 -0.165540
C16   C     C_R   0.063944 0.624954 0.501870 -0.181600
C17   C     C_R   0.439234 0.373076 0.738324 0.465598
C18   C     C_R   0.489444 0.619538 0.250925 0.456634
C19   C     C_R   0.549967 0.374940 0.259640 0.468546
C20   C     C_R   0.506806 0.615438 0.749376 0.452376
C21   C     C_R   0.439798 0.362739 0.809840 -0.252525
C22   C     C_R   0.489315 0.608397 0.178554 -0.299992
C23   C     C_R   0.539456 0.365031 0.187883 -0.250259
C24   C     C_R   0.497015 0.604065 0.821130 -0.292376
C25   C     C_R   0.468953 0.477551 0.851099 -0.037041
C26   C     C_R   0.506616 0.480681 0.146875 -0.025579
C27   C     C_R   0.418072 0.075069 0.456301 0.038469
C28   C     C_R   0.589165 0.926839 0.539525 0.032100
C29   C     C_R   0.581256 0.074257 0.544015 0.039628
C30   C     C_R   0.410591 0.927418 0.460577 0.029164
C31   C     C_R   0.480618 0.496726 0.707529 -0.247730
C32   C     C_R   0.515076 0.499052 0.291944 -0.246810
Cu1   Cu    Cu3+1 0.500000 0.640660 0.500000 1.044688
Cu2   Cu    Cu3+1 0.500000 0.359340 0.500000 1.027756
H1    H     H_    0.111957 0.275162 0.507155 0.215812
H2    H     H_    0.888035 0.723086 0.495296 0.192736
H3    H     H_    0.888742 0.274969 0.496978 0.217322
H4    H     H_    0.111797 0.723053 0.504233 0.193863
H5    H     H_    0.413899 0.265745 0.833004 0.163119
H6    H     H_    0.475990 0.699245 0.146034 0.143003
H7    H     H_    0.557203 0.266008 0.164563 0.157341
H8    H     H_    0.513047 0.692544 0.854728 0.147578
H9    H     H_    0.319379 0.610673 0.932949 0.138789
H10   H     H_    0.644348 0.327382 0.062741 0.129152
H11   H     H_    0.333790 0.610112 0.058943 0.130870
H12   H     H_    0.624079 0.322899 0.936437 0.139372
N1    N     N_R   0.500000 0.852070 0.500000 -0.231551
N2    N     N_R   0.500000 0.147930 0.500000 -0.253007
O1    O     O_R   0.319640 0.618740 0.500000 -0.583420
O2    O     O_R   0.680360 0.381260 0.500000 -0.573839
O3    O     O_R   0.680360 0.618740 0.500000 -0.583242
O4    O     O_R   0.319640 0.381260 0.500000 -0.574978
O5    O     O_R   0.500020 0.618830 0.400190 -0.499137
O6    O     O_R   0.499980 0.381170 0.599810 -0.543445
O7    O     O_R   0.499980 0.618830 0.599810 -0.500106
O8    O     O_R   0.500020 0.381170 0.400190 -0.541741
C33   C     C_2   0.342490 0.147519 0.400249 0.919217
O9    O     O_2   0.379711 0.153700 0.342903 -0.587449
O10   O     O_R   0.224456 0.196080 0.410492 -0.750673
H13   H     H_    0.181308 0.240113 0.367484 0.318592
C34   C     C_2   0.700922 0.860739 0.575394 0.836033
O11   O     O_2   0.692777 0.763093 0.614580 -0.545307
O12   O     O_R   0.817295 0.918047 0.567322 -0.780598
H14   H     H_    0.886269 0.870569 0.597187 0.326190
C35   C     C_2   0.653673 0.144954 0.601501 0.920754
O13   O     O_2   0.614780 0.145265 0.658535 -0.585260
O14   O     O_R   0.770607 0.198766 0.592851 -0.752578
H15   H     H_    0.811497 0.241054 0.636711 0.317117
C36   C     C_2   0.299395 0.861328 0.424404 0.834776
O15   O     O_2   0.308456 0.764972 0.384941 -0.548219
O16   O     O_R   0.182488 0.916999 0.432562 -0.778084
H16   H     H_    0.114062 0.869966 0.402323 0.326331
O17   O     O_3   0.400083 0.259595 0.699110 -0.516840
C37   C     C_3   0.271861 0.272909 0.680912 -0.251247
H17   H     H_    0.249844 0.369742 0.650915 0.128143
H18   H     H_    0.218932 0.269391 0.727407 0.142695
H19   H     H_    0.241014 0.184285 0.647511 0.198926
O18   O     O_3   0.474265 0.746323 0.283578 -0.534056
C38   C     C_3   0.397037 0.839824 0.243655 -0.187106
H20   H     H_    0.313517 0.787953 0.218137 0.131814
H21   H     H_    0.450264 0.894970 0.205644 0.145995
H22   H     H_    0.363734 0.919779 0.278235 0.222319
O19   O     O_3   0.590978 0.259870 0.297594 -0.517487
C39   C     C_3   0.719835 0.272307 0.313637 -0.255546
H23   H     H_    0.743458 0.366587 0.344940 0.130775
H24   H     H_    0.769827 0.273063 0.266022 0.140781
H25   H     H_    0.752657 0.181032 0.345001 0.199599
O20   O     O_3   0.532674 0.741103 0.717789 -0.531064
C40   C     C_3   0.611581 0.828048 0.760177 -0.189165
H26   H     H_    0.689648 0.769628 0.787798 0.131533
H27   H     H_    0.557830 0.886259 0.796669 0.146422
H28   H     H_    0.652931 0.906148 0.727172 0.218722

loop_
_geom_bond_atom_site_label_1
_geom_bond_atom_site_label_2
_ccdc_geom_bond_type
C27   N2    A    
Cu1   O7    S    
C28   N1    A    
Cu2   O8    S    
C24   H8    S    
O17   C37   S    
C39   H25   S    
C3    H9    S    
C7    C26   S    
C37   H18   S    
C28   C29   A    
C39   H24   S    
C13   H1    S    
C14   H2    S    
C33   O10   S    
C10   O3    A    
Cu1   O1    S    
C36   O16   S    
C23   C26   A    
C34   O12   S    
C2    C13   A    
C15   H3    S    
C20   C24   A    
C35   O14   S    
C37   H19   S    
C1    C15   A    
C40   H27   S    
C2    C16   A    
C11   O5    A    
C28   C34   S    
O10   H13   S    
C27   C30   A    
C17   O17   S    
C8    C25   S    
C36   O15   D    
C9    O4    A    
C4    C7    A    
C19   O19   S    
C19   C32   A    
Cu1   O5    S    
Cu2   O2    S    
C37   H17   S    
C29   N2    A    
O14   H15   S    
C30   N1    A    
C9    O1    A    
C24   C25   A    
C4    C6    A    
C3    C8    A    
C27   C33   S    
C5    C7    A    
O18   C38   S    
C6    C8    A    
C4    H10   S    
C5    H11   S    
C17   C21   A    
C38   H20   S    
C19   C23   A    
O19   C39   S    
C21   H5    S    
C18   O18   S    
C22   H6    S    
Cu1   Cu2   S    
C39   H23   S    
C40   H28   S    
C29   C35   S    
C11   C32   S    
Cu2   O6    S    
C13   C15   A    
C12   C31   S    
C17   C31   A    
C14   C16   A    
Cu2   N2    S    
C10   O2    A    
C30   C36   S    
C38   H21   S    
C21   C25   A    
C6    H12   S    
C18   C22   A    
C1    C10   S    
C3    C5    A    
C38   H22   S    
Cu1   O3    S    
Cu2   O4    S    
C23   H7    S    
O16   H16   S    
C33   O9    D    
Cu1   N1    S    
C20   O20   S    
C34   O11   D    
C12   O7    A    
O12   H14   S    
C18   C32   A    
O20   C40   S    
C35   O13   D    
C22   C26   A    
C1    C14   A    
C40   H26   S    
C2    C9    S    
C12   O6    A    
C11   O8    A    
C16   H4    S    
C20   C31   A    
