data_mof_unit_58942.cif
_audit_creation_date              2012-12-10T17:52:33-0500
_audit_creation_method            fapswitch 2.2
_symmetry_space_group_name_H-M    P1
_symmetry_Int_Tables_number       1
_space_group_crystal_system       triclinic
_cell_length_a                    14.692548
_cell_length_b                    14.703289
_cell_length_c                    23.505469
_cell_angle_alpha                 76.927928
_cell_angle_beta                  102.734384
_cell_angle_gamma                 114.738574
_cell_volume                      4446.70022991

loop_
_atom_site_label
_atom_site_type_symbol
_atom_type_description
_atom_site_fract_x
_atom_site_fract_y
_atom_site_fract_z
_atom_type_partial_charge
C1    C     C_R   0.880348 0.312289 0.509424 0.802915
C2    C     C_R   0.119672 0.687725 0.489754 0.804295
C3    C     C_R   0.071545 0.480898 0.774284 -0.148400
C4    C     C_R   0.928408 0.518975 0.225727 -0.148558
C5    C     C_R   0.072751 0.480785 0.715250 -0.216146
C6    C     C_R   0.927212 0.519127 0.284756 -0.216002
C7    C     C_R   0.997984 0.499742 0.671488 -0.082263
C8    C     C_R   0.001994 0.500206 0.328520 -0.081501
C9    C     C_R   0.921718 0.518518 0.687862 -0.206313
C10   C     C_R   0.078257 0.481414 0.312154 -0.206601
C11   C     C_R   0.920000 0.518665 0.747222 0.209298
C12   C     C_R   0.079962 0.481224 0.252799 0.209695
C13   C     C_R   0.995783 0.499783 0.790530 0.365268
C14   C     C_R   0.004171 0.500083 0.209488 0.365356
C15   C     C_R   0.812760 0.205039 0.510789 -0.052763
C16   C     C_R   0.187245 0.795297 0.481963 -0.052371
C17   C     C_R   0.783327 0.030168 0.511814 -0.189223
C18   C     C_R   0.215663 0.973074 0.461843 -0.188987
C19   C     C_R   0.850212 0.130044 0.515325 -0.187049
C20   C     C_R   0.149323 0.871776 0.467957 -0.187754
C21   C     C_R   0.708278 0.178951 0.503691 -0.241122
C22   C     C_R   0.291683 0.821112 0.488496 -0.246800
C23   C     C_R   0.999423 0.499882 0.608998 0.813139
C24   C     C_R   0.000571 0.500105 0.391003 0.812624
C25   C     C_R   0.639128 0.079892 0.497153 0.091844
C26   C     C_R   0.360012 0.922577 0.480677 0.090950
C27   C     C_R   0.678369 0.004615 0.502587 0.161506
C28   C     C_R   0.320478 0.998989 0.468795 0.162655
C29   C     C_R   0.532486 0.053592 0.485991 0.066007
C30   C     C_R   0.466411 0.949971 0.486150 0.066937
C31   C     C_R   0.508761 0.877533 0.490644 -0.214209
C32   C     C_R   0.489748 0.127561 0.473312 -0.215398
C33   C     C_R   0.612681 0.904762 0.498365 -0.221854
C34   C     C_R   0.385781 0.100470 0.464326 -0.220503
C35   C     C_R   0.716424 0.670106 0.403226 -0.316392
C36   C     C_R   0.283915 0.330405 0.597054 -0.313175
C37   C     C_R   0.797585 0.639790 0.418112 0.075751
C38   C     C_R   0.202605 0.360484 0.582049 0.075691
C39   C     C_R   0.714473 0.508673 0.491422 0.003926
C40   C     C_R   0.285491 0.491321 0.508540 0.005084
C41   C     C_R   0.628759 0.535227 0.478140 -0.020695
C42   C     C_R   0.371360 0.465013 0.521946 -0.021480
C43   C     C_R   0.632105 0.618577 0.433220 0.162122
C44   C     C_R   0.368174 0.381886 0.567005 0.160668
C45   C     C_R   0.053889 0.588649 0.114349 0.531131
C46   C     C_R   0.946076 0.411208 0.885671 0.531087
C47   C     C_R   0.541191 0.483354 0.507856 0.075269
C48   C     C_R   0.458953 0.516937 0.492248 0.078707
C49   C     C_R   0.467267 0.601380 0.447685 -0.241337
C50   C     C_R   0.532958 0.399024 0.552494 -0.238737
C51   C     C_R   0.551884 0.650616 0.418775 -0.199093
C52   C     C_R   0.448485 0.349991 0.581532 -0.190198
C53   C     C_R   0.951048 0.411390 0.125552 0.531731
C54   C     C_R   0.048917 0.588466 0.874469 0.531816
C55   C     C_R   0.948726 0.409456 0.065856 -0.015952
C56   C     C_R   0.051241 0.590399 0.934166 -0.015995
C57   C     C_R   0.000629 0.499946 0.030110 -0.017292
C58   C     C_R   0.999340 0.499909 0.969912 -0.017300
C59   C     C_R   0.053757 0.590487 0.054411 -0.015761
C60   C     C_R   0.946211 0.409368 0.945610 -0.015693
C61   C     C_R   0.895979 0.319630 0.041169 -0.163624
C62   C     C_R   0.103990 0.680225 0.958853 -0.163504
C63   C     C_R   0.894749 0.319583 0.981654 -0.163431
C64   C     C_R   0.105220 0.680272 0.018367 -0.163419
Cu1   Cu    Cu3+1 0.081740 0.475680 0.515360 0.940338
Cu2   Cu    Cu3+1 0.918260 0.524320 0.484640 0.940474
H1    H     H_    0.855516 0.249114 0.067726 0.188739
H2    H     H_    0.144453 0.750741 0.932296 0.188787
H3    H     H_    0.813638 0.973015 0.515543 0.136322
H4    H     H_    0.185065 0.031279 0.452084 0.136470
H5    H     H_    0.463643 0.799155 0.486506 0.141996
H6    H     H_    0.534335 0.207807 0.468215 0.146740
H7    H     H_    0.554687 0.714995 0.384788 0.149834
H8    H     H_    0.445835 0.285835 0.615665 0.149055
H9    H     H_    0.280004 0.551628 0.474047 0.121678
H10   H     H_    0.719827 0.448169 0.525794 0.121583
H11   H     H_    0.137072 0.320265 0.604800 0.128672
H12   H     H_    0.863178 0.680077 0.395416 0.127647
H13   H     H_    0.719852 0.733925 0.368735 0.144149
H14   H     H_    0.280646 0.266797 0.631677 0.144504
H15   H     H_    0.409527 0.631956 0.434012 0.131719
H16   H     H_    0.590703 0.368458 0.566189 0.134096
H17   H     H_    0.853365 0.249035 0.964018 0.189060
H18   H     H_    0.146603 0.750820 0.036004 0.189077
H19   H     H_    0.129723 0.466367 0.807643 0.146173
H20   H     H_    0.870224 0.533488 0.192365 0.146153
H21   H     H_    0.132361 0.466025 0.703934 0.168122
H22   H     H_    0.867601 0.533892 0.296068 0.168058
H23   H     H_    0.863466 0.532993 0.654490 0.158818
H24   H     H_    0.136517 0.466961 0.345528 0.158458
H25   H     H_    0.641802 0.846894 0.501360 0.152093
H26   H     H_    0.356355 0.159596 0.454604 0.149784
H27   H     H_    0.318223 0.760446 0.501450 0.150901
H28   H     H_    0.682819 0.237564 0.504010 0.144997
H29   H     H_    0.068724 0.853419 0.462547 0.154067
H30   H     H_    0.930877 0.148690 0.520851 0.155335
N1    N     N_R   0.003289 0.499982 0.148426 -0.464444
N2    N     N_R   0.996672 0.499876 0.851594 -0.464487
N3    N     N_R   0.795430 0.560810 0.461550 -0.177193
N4    N     N_R   0.204570 0.439190 0.538450 -0.177688
O1    O     O_R   0.977900 0.338110 0.520250 -0.588344
O2    O     O_R   0.022100 0.661890 0.479750 -0.588269
O3    O     O_R   0.839850 0.379180 0.494310 -0.588296
O4    O     O_R   0.160150 0.620820 0.505690 -0.588864
O5    O     O_R   0.069020 0.479430 0.595090 -0.581830
O6    O     O_R   0.930980 0.520570 0.404910 -0.582110
O7    O     O_R   0.930970 0.520500 0.569150 -0.586175
O8    O     O_R   0.069030 0.479500 0.430850 -0.586829
O9    O     O_2   0.104137 0.674530 0.138495 -0.538717
O10   O     O_2   0.895826 0.325328 0.861524 -0.538865
O11   O     O_2   0.901711 0.325624 0.160548 -0.538458
O12   O     O_2   0.098253 0.674234 0.839473 -0.538198
C65   C     C_3   0.837951 0.538845 0.764146 -0.837353
H31   H     H_    0.794443 0.472817 0.794629 0.245722
H32   H     H_    0.872135 0.607024 0.786453 0.246678
H33   H     H_    0.784345 0.552145 0.724982 0.224023
C66   C     C_3   0.162008 0.461027 0.235885 -0.838729
H34   H     H_    0.127822 0.392831 0.213593 0.246427
H35   H     H_    0.205514 0.527038 0.205393 0.246070
H36   H     H_    0.215618 0.447743 0.275052 0.223452

loop_
_geom_bond_atom_site_label_1
_geom_bond_atom_site_label_2
_ccdc_geom_bond_type
C18   H4    S    
C17   H3    S    
C3    H19   S    
Cu2   O2    S    
Cu1   O1    S    
Cu2   O7    S    
C39   C41   A    
C27   C33   A    
C15   C19   A    
C59   C64   A    
C60   C63   A    
C35   C37   A    
C29   C32   A    
C52   H8    S    
C66   H35   S    
C30   C31   A    
C45   O9    S    
C57   C59   A    
C4    H20   S    
C21   H28   S    
C2    O2    A    
C58   C60   A    
C23   O5    A    
C6    H22   S    
C49   H15   S    
C13   N2    S    
C61   C63   A    
C64   H18   S    
C62   C64   A    
C17   C19   A    
C49   C51   A    
C50   C52   A    
C31   C33   A    
C1    C15   S    
C2    C16   S    
C1    O3    A    
Cu1   O8    S    
C3    C13   A    
C65   H33   S    
C53   O11   S    
C40   C42   A    
C46   N2    A    
C28   C34   A    
C41   C43   A    
C42   C44   A    
Cu2   O6    S    
Cu1   O5    S    
C47   C50   A    
C53   C55   A    
C25   C29   A    
C54   C56   A    
C17   C27   A    
C18   C28   A    
C38   N4    A    
C36   H14   S    
C66   H36   S    
C9    H23   S    
C5    C7    A    
C6    C8    A    
C53   N1    A    
C63   H17   S    
C32   C34   A    
Cu2   N3    S    
C29   C30   A    
C61   H1    S    
C39   N3    A    
C47   C48   A    
C2    O4    A    
C16   C20   A    
C23   O7    A    
C41   C47   A    
C54   O12   S    
C42   C48   A    
C39   H10   S    
C9    C11   A    
C10   C12   A    
C24   O8    A    
C4    C6    A    
C48   C49   A    
C20   H29   S    
C12   C14   A    
C26   C30   A    
C55   C57   A    
C22   H27   S    
C56   C62   A    
C36   C44   A    
C24   O6    A    
C1    O1    A    
C37   N3    A    
C35   C43   A    
C50   H16   S    
C14   N1    S    
C65   H31   S    
C7    C9    A    
C21   C25   A    
C45   C59   A    
C16   C22   A    
C46   C60   A    
Cu2   O3    S    
C51   H7    S    
Cu1   N4    S    
C3    C5    A    
C44   C52   A    
C40   N4    A    
C38   H11   S    
C25   C27   A    
C37   H12   S    
C26   C28   A    
C40   H9    S    
C62   H2    S    
C46   O10   S    
C45   N1    A    
C66   H34   S    
C11   C13   A    
C43   C51   A    
C57   C58   A    
C7    C23   S    
C55   C61   A    
C36   C38   A    
C8    C24   S    
C56   C58   A    
C18   C20   A    
C4    C14   A    
C11   C65   S    
C34   H26   S    
C12   C66   S    
C5    H21   S    
C15   C21   A    
C10   H24   S    
C8    C10   A    
Cu1   Cu2   S    
C22   C26   A    
C54   N2    A    
C35   H13   S    
Cu1   O4    S    
C65   H32   S    
C19   H30   S    
C31   H5    S    
C32   H6    S    
C33   H25   S    
