data_mof_unit_59388.cif
_audit_creation_date              2012-10-26T21:00:17-0400
_audit_creation_method            fapswitch 2.2
_symmetry_space_group_name_H-M    P1
_symmetry_Int_Tables_number       1
_space_group_crystal_system       triclinic
_cell_length_a                    19.327452
_cell_length_b                    8.686537
_cell_length_c                    7.480107
_cell_angle_alpha                 103.244826
_cell_angle_beta                  94.963673
_cell_angle_gamma                 92.939112
_cell_volume                      1214.55800557

loop_
_atom_site_label
_atom_site_type_symbol
_atom_type_description
_atom_site_fract_x
_atom_site_fract_y
_atom_site_fract_z
_atom_type_partial_charge
C1    C     C_R   0.497862 0.199643 0.452996 0.538304
C2    C     C_R   0.811307 0.491033 0.332778 -0.118727
C3    C     C_R   0.146299 0.499966 0.502191 0.037345
C4    C     C_R   0.853701 0.500034 0.497808 0.037345
C5    C     C_R   0.177297 0.490897 0.337537 -0.115823
C6    C     C_R   0.822703 0.509103 0.662463 -0.115823
C7    C     C_R   0.249234 0.490769 0.337676 -0.132201
C8    C     C_R   0.750766 0.509231 0.662324 -0.132201
C9    C     C_R   0.291621 0.499863 0.502498 0.016495
C10   C     C_R   0.708379 0.500137 0.497502 0.016494
C11   C     C_R   0.929849 0.500008 0.498794 0.346916
C12   C     C_R   0.502138 0.800357 0.547004 0.538304
C13   C     C_R   0.070151 0.499992 0.501206 0.346916
C14   C     C_2   0.496913 0.031466 0.426873 -0.146325
C15   C     C_2   0.503086 0.968534 0.573127 -0.146325
C16   C     C_R   0.367541 0.499681 0.501108 0.536438
C17   C     C_R   0.632459 0.500319 0.498892 0.536438
C18   C     C_R   0.260796 0.508978 0.667368 -0.127705
C19   C     C_R   0.739204 0.491021 0.332632 -0.127705
C20   C     C_R   0.188693 0.508967 0.667221 -0.118727
Cu1   Cu    Cu3+1 0.507710 0.517380 0.684380 1.059131
Cu2   Cu    Cu3+1 0.492290 0.482620 0.315620 1.059131
H1    H     H_    0.292269 0.515855 0.796397 0.145582
H2    H     H_    0.508840 0.040847 0.713731 0.150669
H3    H     H_    0.408133 0.300751 0.005252 0.323857
H4    H     H_    0.591867 0.699249 0.994748 0.323857
H5    H     H_    0.707731 0.484145 0.203603 0.145582
H6    H     H_    0.166302 0.515992 0.796404 0.135005
H7    H     H_    0.833698 0.484008 0.203596 0.135005
H8    H     H_    0.146099 0.483874 0.208104 0.142206
H9    H     H_    0.853901 0.516126 0.791896 0.142206
H10   H     H_    0.271537 0.483749 0.208331 0.131562
H11   H     H_    0.728463 0.516251 0.791669 0.131562
H12   H     H_    0.491160 0.959153 0.286269 0.150669
N1    N     N_R   0.029239 0.491633 0.341888 -0.219099
N2    N     N_R   0.970761 0.508367 0.658112 -0.219099
N3    N     N_R   0.960430 0.491638 0.340664 -0.222338
N4    N     N_R   0.039570 0.508362 0.659336 -0.222338
N5    N     N_2   0.480680 0.456420 0.038530 0.091854
N6    N     N_2   0.519320 0.543580 0.961470 0.091854
O1    O     O_R   0.505010 0.286130 0.619770 -0.461503
O2    O     O_3   0.567168 0.644505 0.075723 -0.594959
O3    O     O_R   0.494990 0.713870 0.380230 -0.461503
O4    O     O_R   0.491990 0.256780 0.308370 -0.521154
O5    O     O_R   0.508010 0.743220 0.691630 -0.521153
O6    O     O_R   0.406650 0.514660 0.655750 -0.463284
O7    O     O_R   0.593350 0.485340 0.344250 -0.463284
O8    O     O_R   0.393640 0.485310 0.344340 -0.532246
O9    O     O_R   0.606360 0.514690 0.655660 -0.532246
O10   O     O_3   0.432832 0.355494 0.924276 -0.594959

loop_
_geom_bond_atom_site_label_1
_geom_bond_atom_site_label_2
_ccdc_geom_bond_type
C14   H12   S    
Cu2   O8    S    
C5    C7    A    
C1    C14   S    
N6    O2    S    
C19   H5    S    
C1    O4    A    
C2    C4    A    
Cu2   O3    S    
C3    C13   S    
C12   C15   S    
C10   C19   A    
C16   O8    A    
Cu1   O9    S    
C6    H9    S    
C3    C20   A    
Cu1   Cu2   S    
C4    C11   S    
C13   N4    A    
C18   H1    S    
Cu1   N6    S    
C2    H7    S    
Cu1   O1    S    
Cu2   N5    S    
C1    O1    A    
C15   H2    S    
N1    N3    A    
C9    C16   S    
C13   N1    A    
C12   O3    A    
Cu1   O5    S    
C8    H11   S    
Cu2   O7    S    
C10   C17   S    
C17   O9    A    
N2    N4    A    
Cu1   O6    S    
C7    C9    A    
C9    C18   A    
N5    O10   S    
H4    O2    S    
C18   C20   A    
C4    C6    A    
C5    H8    S    
C16   O6    A    
N5    N6    D    
C11   N3    A    
C14   C15   D    
C11   N2    A    
C6    C8    A    
C7    H10   S    
C20   H6    S    
C2    C19   A    
H3    O10   S    
C8    C10   A    
Cu2   O4    S    
C17   O7    A    
C12   O5    A    
C3    C5    A    
