data_mof_unit_24573.cif
_audit_creation_date              2012-10-26T18:28:22-0400
_audit_creation_method            fapswitch 2.2
_symmetry_space_group_name_H-M    P1
_symmetry_Int_Tables_number       1
_space_group_crystal_system       triclinic
_cell_length_a                    27.739529
_cell_length_b                    11.018962
_cell_length_c                    9.812632
_cell_angle_alpha                 111.138153
_cell_angle_beta                  97.964427
_cell_angle_gamma                 90.892901
_cell_volume                      2763.55369285

loop_
_atom_site_label
_atom_site_type_symbol
_atom_type_description
_atom_site_fract_x
_atom_site_fract_y
_atom_site_fract_z
_atom_type_partial_charge
C1    C     C_R   0.496488 0.254068 0.440614 0.564633
C2    C     C_R   0.871560 0.388028 0.482705 0.028843
C3    C     C_R   0.354482 0.499580 0.504825 0.003278
C4    C     C_R   0.645497 0.499194 0.494947 0.003380
C5    C     C_R   0.971565 0.378633 0.457988 0.016885
C6    C     C_R   0.027597 0.611723 0.523182 0.016209
C7    C     C_R   0.975990 0.611016 0.495797 0.011334
C8    C     C_R   0.021172 0.373171 0.437290 0.011754
C9    C     C_R   0.948540 0.496880 0.480514 0.006980
C10   C     C_R   0.050045 0.491684 0.486985 0.008047
C11   C     C_R   0.945381 0.272706 0.468017 -0.147445
C12   C     C_R   0.503513 0.745932 0.559386 0.564636
C13   C     C_R   0.057258 0.728185 0.595481 -0.149202
C14   C     C_R   0.895957 0.276598 0.478301 -0.120473
C15   C     C_R   0.107787 0.727693 0.610964 -0.123178
C16   C     C_R   0.407434 0.500059 0.501567 0.554381
C17   C     C_R   0.592561 0.499773 0.498398 0.554379
C18   C     C_R   0.043201 0.254738 0.371027 0.026061
C19   C     C_R   0.950733 0.719540 0.485428 0.029366
C20   C     C_2   0.494570 0.114671 0.407061 -0.121713
C21   C     C_2   0.505435 0.885329 0.592939 -0.121976
C22   C     C_2   0.500903 0.069583 0.516610 -0.155433
C23   C     C_R   0.101370 0.490722 0.498834 -0.047319
C24   C     C_2   0.499108 0.930417 0.483389 -0.155316
C25   C     C_2   0.504200 0.510508 0.081218 -0.024743
C26   C     C_2   0.495801 0.489488 0.918781 -0.024836
C27   C     C_R   0.174843 0.376939 0.451195 0.385942
C28   C     C_R   0.822472 0.607743 0.487687 0.386354
C29   C     C_R   0.180887 0.608980 0.566885 0.397748
C30   C     C_R   0.821435 0.391165 0.487638 0.397429
C31   C     C_R   0.286105 0.518168 0.639724 -0.061077
C32   C     C_R   0.714012 0.485106 0.361472 -0.050993
C33   C     C_R   0.336306 0.519720 0.637607 -0.144290
C34   C     C_R   0.897951 0.500033 0.486295 -0.048052
C35   C     C_R   0.663823 0.485183 0.363831 -0.144461
C36   C     C_R   0.321529 0.478243 0.374565 -0.140468
C37   C     C_R   0.678276 0.512819 0.623284 -0.139897
C38   C     C_R   0.271417 0.476611 0.377007 -0.052595
C39   C     C_R   0.728363 0.512498 0.620516 -0.063062
C40   C     C_R   0.253564 0.496247 0.509377 0.245860
C41   C     C_R   0.746378 0.498851 0.489847 0.244923
C42   C     C_3   0.115920 0.124228 0.402913 -0.240993
C43   C     C_3   0.086823 0.051297 0.475127 -0.468048
C44   C     C_3   0.883348 0.866322 0.580363 -0.242069
C45   C     C_R   0.123916 0.371255 0.454309 0.008695
C46   C     C_3   0.920266 0.962739 0.704643 -0.469033
C47   C     C_3   0.015231 0.142274 0.239233 -0.268099
C48   C     C_3   0.991893 0.188642 0.117693 -0.430173
C49   C     C_3   0.970481 0.807591 0.412529 -0.271405
C50   C     C_3   0.984873 0.729128 0.262138 -0.430687
C51   C     C_R   0.874063 0.615396 0.499684 0.008489
C52   C     C_R   0.094412 0.251861 0.404923 0.027160
C53   C     C_R   0.902122 0.730480 0.515342 0.028064
C54   C     C_R   0.130160 0.610070 0.558584 0.028962
Cu1   Cu    Cu3+1 0.508480 0.521810 0.644910 0.944117
Cu2   Cu    Cu3+1 0.491520 0.478190 0.355090 0.944342
H1    H     H_    0.334398 0.462528 0.270647 0.134301
H2    H     H_    0.753281 0.523248 0.720054 0.125673
H3    H     H_    0.639461 0.474581 0.263319 0.129212
H4    H     H_    0.360799 0.536392 0.739645 0.130451
H5    H     H_    0.727801 0.474295 0.260041 0.131716
H6    H     H_    0.272432 0.533437 0.742380 0.125888
H7    H     H_    0.877021 0.192024 0.483558 0.158489
H8    H     H_    0.129237 0.819976 0.664657 0.159852
H9    H     H_    0.963406 0.188886 0.476204 0.104902
H10   H     H_    0.041814 0.819663 0.647810 0.111007
H11   H     H_    0.492538 0.864494 0.368251 0.157479
H12   H     H_    0.665284 0.523649 0.725871 0.135564
H13   H     H_    0.507476 0.135506 0.631748 0.157312
H14   H     H_    0.080704 0.117862 0.586267 0.154544
H15   H     H_    0.051241 0.009083 0.406046 0.139641
H16   H     H_    0.107457 0.969482 0.487932 0.153227
H17   H     H_    0.119018 0.059946 0.288038 0.162909
H18   H     H_    0.152731 0.143082 0.469665 0.207312
H19   H     H_    0.934397 0.918456 0.786284 0.153698
H20   H     H_    0.951203 0.993276 0.661278 0.138695
H21   H     H_    0.902170 0.052047 0.762504 0.148740
H22   H     H_    0.872461 0.905915 0.492267 0.161679
H23   H     H_    0.512020 0.951538 0.707877 0.106336
H24   H     H_    0.851224 0.863197 0.634692 0.207037
H25   H     H_    0.962185 0.253044 0.154968 0.165927
H26   H     H_    0.019778 0.242171 0.085456 0.156671
H27   H     H_    0.975967 0.103115 0.019004 0.130786
H28   H     H_    0.040157 0.067466 0.187312 0.144388
H29   H     H_    0.987097 0.089602 0.270317 0.130029
H30   H     H_    0.953987 0.660186 0.190278 0.160895
H31   H     H_    0.994364 0.796584 0.207242 0.127948
H32   H     H_    0.017168 0.673777 0.274704 0.165754
H33   H     H_    0.942295 0.871482 0.391092 0.141482
H34   H     H_    0.487981 0.048462 0.292122 0.106621
H35   H     H_    0.001493 0.874746 0.483281 0.125064
H36   H     H_    0.467454 0.417219 0.845966 0.146492
H37   H     H_    0.532548 0.582774 0.154033 0.146753
H38   H     H_    0.547921 0.622526 0.934281 0.204394
H39   H     H_    0.452078 0.377477 0.065720 0.204058
H40   H     H_    0.246367 0.460036 0.276032 0.130113
N1    N     N_R   0.201968 0.493870 0.511095 -0.395849
N2    N     N_R   0.797975 0.499224 0.488206 -0.395743
N3    N     N_2   0.478780 0.445430 0.137360 -0.352421
N4    N     N_2   0.521220 0.554570 0.862640 -0.352352
O1    O     O_R   0.504520 0.332330 0.577400 -0.496715
O2    O     O_2   0.796512 0.704202 0.468130 -0.513907
O3    O     O_2   0.796030 0.286151 0.488826 -0.497378
O4    O     O_2   0.208927 0.722258 0.626465 -0.498224
O5    O     O_R   0.495480 0.667670 0.422600 -0.496596
O6    O     O_R   0.490210 0.295500 0.332650 -0.486705
O7    O     O_R   0.509790 0.704500 0.667350 -0.486758
O8    O     O_R   0.437420 0.518430 0.622370 -0.499796
O9    O     O_R   0.562580 0.481570 0.377630 -0.499553
O10   O     O_R   0.423110 0.481600 0.377610 -0.493430
O11   O     O_R   0.576890 0.518400 0.622390 -0.493598
O12   O     O_2   0.196917 0.268429 0.382000 -0.515230

loop_
_geom_bond_atom_site_label_1
_geom_bond_atom_site_label_2
_ccdc_geom_bond_type
Cu1   Cu2   S    
C25   H37   S    
C43   H16   S    
C23   C45   A    
C18   C47   S    
C46   H20   S    
C18   C52   A    
C39   C41   A    
C48   H25   S    
C34   C51   A    
C47   H29   S    
C32   H5    S    
C5    C11   A    
C12   O5    A    
C28   C51   A    
H39   N3    S    
C29   C54   A    
C3    C33   A    
C26   H36   S    
C37   H12   S    
C31   C40   A    
C35   H3    S    
C24   H11   S    
C44   C53   S    
C25   N3    D    
C1    C20   S    
C30   O3    S    
C15   H8    S    
C31   C33   A    
C22   H13   S    
C50   H32   S    
C1    O6    A    
C2    C34   A    
C19   C53   A    
C4    C35   A    
C31   H6    S    
C49   H35   S    
C17   O11   A    
Cu2   O10   S    
C46   H19   S    
C44   C46   S    
C13   H10   S    
C42   H18   S    
C16   O10   A    
C32   C35   A    
C44   H24   S    
C36   H1    S    
C40   N1    S    
C16   O8    A    
C45   C52   A    
C25   C26   S    
C39   H2    S    
C20   H34   S    
C12   C21   S    
C8    C18   A    
C29   O4    S    
Cu1   O7    S    
C51   C53   A    
Cu1   N4    S    
C15   C54   A    
C5    C9    A    
C12   O7    A    
C19   C49   S    
C47   C48   S    
H38   N4    S    
C32   C41   A    
C21   H23   S    
C47   H28   S    
Cu2   O6    S    
C50   H31   S    
C4    C17   S    
C20   C22   D    
C27   O12   S    
C43   H14   S    
C7    C19   A    
C13   C15   A    
C9    C34   A    
C22   C24   S    
C5    C8    A    
C42   C43   S    
C1    O1    A    
Cu2   O9    S    
C23   C54   A    
C28   N2    A    
C7    C9    A    
Cu1   O1    S    
C27   N1    A    
C42   H17   S    
C43   H15   S    
Cu1   O11   S    
C49   H33   S    
C17   O9    A    
C6    C10   A    
C46   H21   S    
C6    C7    A    
C26   N4    D    
C10   C23   A    
C33   H4    S    
C30   N2    A    
C48   H27   S    
C29   N1    A    
Cu1   O8    S    
C2    C30   A    
C44   H22   S    
C37   C39   A    
C6    C13   A    
C38   C40   A    
C27   C45   A    
C3    C36   A    
C14   H7    S    
C36   C38   A    
C11   C14   A    
C48   H26   S    
C2    C14   A    
Cu2   O5    S    
C50   H30   S    
C28   O2    S    
C4    C37   A    
C8    C10   A    
C49   C50   S    
C21   C24   D    
C38   H40   S    
C41   N2    S    
Cu2   N3    S    
C3    C16   S    
C11   H9    S    
C42   C52   S    
