data_mof_unit_53391.cif
_audit_creation_date              2013-03-05T16:47:54-0500
_audit_creation_method            fapswitch 2.2
_symmetry_space_group_name_H-M    P1
_symmetry_Int_Tables_number       1
_space_group_crystal_system       triclinic
_cell_length_a                    10.898947
_cell_length_b                    10.85618
_cell_length_c                    9.637033
_cell_angle_alpha                 88.976349
_cell_angle_beta                  90.509924
_cell_angle_gamma                 92.704363
_cell_volume                      1138.77395065

loop_
_atom_site_label
_atom_site_type_symbol
_atom_site_description
_atom_site_fract_x
_atom_site_fract_y
_atom_site_fract_z
_atom_type_partial_charge
O1    O     O_R   0.499990 0.319640 0.618810 -0.602752
O2    O     O_R   0.500000 0.319660 0.381240 -0.579861
C1    C     C_R   0.502722 0.262051 0.502641 0.801726
O3    O     O_R   0.319640 0.500000 0.618780 -0.584736
O4    O     O_R   0.319650 0.500020 0.381210 -0.572413
C2    C     C_R   0.262177 0.492535 0.499100 0.810682
Cu1   Cu    Cu3+1 0.499990 0.499990 0.640660 0.930576
Cu2   Cu    Cu3+1 0.500010 0.500010 0.359340 0.984994
O5    O     O_R   0.500000 0.680340 0.618760 -0.604149
O6    O     O_R   0.500010 0.680360 0.381190 -0.593631
O7    O     O_R   0.680350 0.499980 0.618790 -0.612586
O8    O     O_R   0.680360 0.500000 0.381220 -0.550538
C3    C     C_R   0.490024 0.736390 0.499233 0.780779
C4    C     C_R   0.736852 0.489758 0.500487 0.811323
H1    H     H_    0.163132 0.293221 0.875552 0.133156
C5    C     C_R   0.153299 0.457345 0.998186 -0.109480
H2    H     H_    0.168336 0.521429 0.912519 0.171176
C6    C     C_R   0.136020 0.503511 0.130193 0.016086
H3    H     H_    0.131292 0.601998 0.143631 0.174347
C7    C     C_R   0.115730 0.422098 0.242624 0.138315
C8    C     C_R   0.119025 0.294332 0.223262 -0.111988
H4    H     H_    0.100773 0.230508 0.309121 0.130308
C9    C     C_R   0.136363 0.248359 0.090921 -0.121529
H5    H     H_    0.136017 0.149825 0.075500 0.166134
C10   C     C_R   0.150922 0.329692 0.977916 -0.173994
C11   C     C_R   0.932608 0.468318 0.372317 0.320172
C12   C     C_R   0.870371 0.471843 0.499436 -0.198316
C13   C     C_R   0.936126 0.445753 0.622018 -0.029974
C14   C     C_R   0.063903 0.458852 0.620693 -0.233666
H6    H     H_    0.114356 0.441222 0.714261 0.159359
C15   C     C_R   0.127406 0.477550 0.496129 -0.143371
C16   C     C_R   0.060756 0.466225 0.370664 -0.108626
C17   C     C_R   0.822243 0.410983 0.845130 -0.048923
H7    H     H_    0.826470 0.509123 0.862331 0.155175
C18   C     C_R   0.754341 0.331519 0.934252 -0.016711
H8    H     H_    0.702438 0.368712 0.017145 0.182026
C19   C     C_R   0.751585 0.204156 0.915376 -0.129622
H9    H     H_    0.700368 0.143034 0.986111 0.139486
C20   C     C_R   0.812278 0.156106 0.803036 -0.143919
H10   H     H_    0.808646 0.057611 0.786776 0.134607
C21   C     C_R   0.874578 0.235721 0.709280 -0.156243
H11   H     H_    0.917975 0.197866 0.619819 0.138850
C22   C     C_R   0.879052 0.363853 0.729452 0.104090
H12   H     H_    0.543550 0.115861 0.290579 0.173031
C23   C     C_R   0.475786 0.106043 0.769744 -0.255808
H13   H     H_    0.520258 0.192792 0.795386 0.196526
C24   C     C_R   0.428265 0.038742 0.882888 -0.269117
H14   H     H_    0.431309 0.080319 0.984297 0.167634
C25   C     C_R   0.377434 0.919816 0.865532 0.403952
C26   C     C_R   0.383783 0.866595 0.734657 -0.229480
H15   H     H_    0.340285 0.776046 0.721001 0.195523
C27   C     C_R   0.443644 0.929867 0.622376 0.031047
C28   C     C_R   0.474274 0.056788 0.634184 0.108841
C29   C     C_R   0.502710 0.126754 0.510069 -0.105131
C30   C     C_R   0.519961 0.065492 0.385483 -0.192437
H16   H     H_    0.534494 0.893997 0.286120 0.181160
C31   C     C_R   0.511617 0.938376 0.381680 -0.162086
C32   C     C_R   0.476244 0.869520 0.499680 -0.087501
H17   H     H_    0.384548 0.340900 0.130605 0.150830
C33   C     C_R   0.650036 0.675921 0.141603 -0.069684
H18   H     H_    0.665357 0.676248 0.250545 0.185470
C34   C     C_R   0.720377 0.764802 0.068754 -0.171259
H19   H     H_    0.778712 0.831265 0.124010 0.149994
C35   C     C_R   0.721398 0.764130 0.925737 -0.197362
H20   H     H_    0.780745 0.829831 0.869274 0.146660
C36   C     C_R   0.651618 0.674991 0.854873 -0.163184
H21   H     H_    0.668958 0.673956 0.746604 0.200537
C37   C     C_R   0.572178 0.587893 0.924380 0.215042
C38   C     C_R   0.571846 0.588050 0.073678 0.246271
N1    N     N_R   0.501190 0.501210 0.147910 -0.198302
C39   C     C_R   0.436427 0.412809 0.074843 -0.045840
H22   H     H_    0.383502 0.342193 0.872996 0.138232
C40   C     C_R   0.436052 0.413247 0.927229 -0.087675
N2    N     N_R   0.501230 0.501290 0.852040 -0.199190
N3    N     N_R   0.324556 0.851398 0.981354 0.112005
O9    O     O_R   0.309691 0.904280 0.099802 -0.397861
O10   O     O_R   0.294059 0.734656 0.970649 -0.417959
N4    N     N_R   0.865903 0.439848 0.247734 0.124821
O11   O     O_R   0.813221 0.330499 0.234951 -0.405336
O12   O     O_R   0.869176 0.517062 0.143052 -0.428697

loop_
_geom_bond_atom_site_label_1
_geom_bond_atom_site_label_2
_geom_bond_distance
_ccdc_geom_bond_type
C36   C37   1.415213 A    
C11   C16   1.398180 A    
C21   H11   1.083584 S    
C18   H8    1.078097 S    
Cu1   Cu2   2.711088 S    
C24   C25   1.392972 A    
C23   H13   1.070522 S    
Cu1   O7    1.978870 S    
C11   C12   1.407561 A    
C34   H19   1.082964 S    
C13   C14   1.393332 A    
C18   C19   1.396698 A    
C19   H9    1.082694 S    
O4    C2    1.301640 A    
C1    C29   1.469269 S    
N4    O12   1.299709 A    
H1    C10   1.081150 S    
C37   N2    1.383147 A    
H16   C31   1.083347 S    
C33   C34   1.388246 A    
C6    H3    1.082989 S    
C40   N2    1.365130 A    
O5    C3    1.299188 A    
C34   C35   1.378559 A    
C24   H14   1.083360 S    
C5    H2    1.078690 S    
C26   C27   1.418462 A    
C9    H5    1.082424 S    
C25   N3    1.439138 S    
N1    C39   1.366180 A    
C4    C12   1.477376 S    
C36   H21   1.062374 S    
C23   C28   1.420076 A    
C8    H4    1.083387 S    
C21   C22   1.406492 A    
O3    Cu1   1.975041 S    
C26   H15   1.080699 S    
Cu1   N2    2.037298 S    
C23   C24   1.391714 A    
C19   C20   1.395438 A    
C17   C22   1.396591 A    
O3    C2    1.309479 A    
C20   H10   1.082299 S    
C39   C40   1.422453 A    
N4    O11   1.301431 A    
C37   C38   1.438862 A    
C3    C32   1.460176 S    
C28   C29   1.433724 A    
C33   H18   1.061640 S    
O1    C1    1.293228 A    
C35   C36   1.387857 A    
N3    O9    1.301655 A    
C14   H6    1.071007 S    
C15   C16   1.409251 A    
Cu2   O8    1.975041 S    
C17   H7    1.079947 S    
O7    C4    1.309502 A    
C11   N4    1.429008 S    
N3    O10   1.300646 A    
C27   C32   1.417998 A    
C5    C6    1.393190 A    
O8    C4    1.304545 A    
C30   C31   1.379818 A    
C27   C28   1.408704 A    
C7    C16   1.473909 S    
C5    C10   1.401981 A    
Cu1   O5    1.965497 S    
C29   C30   1.401276 A    
O1    Cu1   1.972939 S    
O2    Cu2   1.965497 S    
H22   C40   1.078707 S    
O6    C3    1.307336 A    
O4    Cu2   1.978870 S    
C13   C22   1.475053 S    
Cu2   N1    2.037518 S    
C35   H20   1.082619 S    
C8    C9    1.395468 A    
O2    C1    1.317496 A    
C14   C15   1.397890 A    
H12   C30   1.083807 S    
C31   C32   1.396709 A    
C33   C38   1.414359 A    
C17   C18   1.397914 A    
C2    C15   1.470280 S    
C6    C7    1.398443 A    
C9    C10   1.395100 A    
C38   N1    1.382296 A    
C7    C8    1.405023 A    
C20   C21   1.397165 A    
Cu2   O6    1.972938 S    
C25   C26   1.400261 A    
C12   C13   1.407652 A    
H17   C39   1.080120 S    
