data_mof_unit_30078.cif
_audit_creation_date              2013-03-05T16:35:37-0500
_audit_creation_method            fapswitch 2.2
_symmetry_space_group_name_H-M    P1
_symmetry_Int_Tables_number       1
_space_group_crystal_system       triclinic
_cell_length_a                    7.838046
_cell_length_b                    9.116586
_cell_length_c                    17.385507
_cell_angle_alpha                 89.956065
_cell_angle_beta                  85.710784
_cell_angle_gamma                 90.756662
_cell_volume                      1238.71326979

loop_
_atom_site_label
_atom_site_type_symbol
_atom_site_description
_atom_site_fract_x
_atom_site_fract_y
_atom_site_fract_z
_atom_type_partial_charge
O1    O     O_R   0.357240 0.711600 0.500000 -0.565363
O2    O     O_R   0.642760 0.288400 0.500000 -0.581490
O3    O     O_R   0.642760 0.711600 0.500000 -0.571878
O4    O     O_R   0.357240 0.288400 0.500000 -0.577651
C1    C     C_R   0.500738 0.779801 0.499713 0.881313
C2    C     C_R   0.499455 0.220200 0.499347 0.833184
O5    O     O_R   0.340660 0.500000 0.613590 -0.566611
O6    O     O_R   0.659340 0.500000 0.386410 -0.570344
O7    O     O_R   0.626230 0.500000 0.613600 -0.565923
O8    O     O_R   0.373770 0.500000 0.386400 -0.531968
C3    C     C_R   0.477328 0.496411 0.649628 0.906603
C4    C     C_R   0.522364 0.507079 0.349930 0.857592
Cu1   Cu    Cu3+1 0.330920 0.500000 0.500000 1.116176
Cu2   Cu    Cu3+1 0.669080 0.500000 0.500000 1.100964
N1    N     N_1   0.923170 0.500000 0.500010 -0.012652
N2    N     N_1   0.076830 0.500000 0.499990 -0.006991
C5    C     C_R   0.463333 0.488439 0.733281 -0.244564
C6    C     C_R   0.536577 0.522249 0.265635 -0.294918
C7    C     C_R   0.518826 0.608265 0.775607 0.275335
C8    C     C_R   0.400980 0.572151 0.224114 0.294104
C9    C     C_R   0.510543 0.600735 0.856177 0.121723
C10   C     C_R   0.426592 0.589037 0.143722 0.109423
C11   C     C_R   0.455443 0.468733 0.894427 -0.096126
C12   C     C_R   0.568710 0.517752 0.104761 -0.110493
C13   C     C_R   0.400958 0.347820 0.850793 0.220066
C14   C     C_R   0.698219 0.466942 0.149733 0.197392
C15   C     C_R   0.401867 0.359188 0.770229 0.051968
C16   C     C_R   0.696442 0.510657 0.226140 0.117871
C17   C     C_2   0.448675 0.457342 0.980066 0.222539
C18   C     C_2   0.585869 0.494975 0.019758 0.225092
C19   C     C_1   0.501074 0.934627 0.499424 -0.073400
C20   C     C_1   0.499261 0.065344 0.499268 -0.099797
I1    I     I_    0.323042 0.143765 0.904640 -0.000766
I2    I     I_    0.859894 0.290227 0.116656 0.021382
I3    I     I_    0.256657 0.730354 0.089188 -0.021212
I4    I     I_    0.569931 0.798086 0.915659 -0.039015
N3    N     N_R   0.580598 0.739376 0.736407 0.138349
O9    O     O_R   0.739270 0.781145 0.739601 -0.277814
O10   O     O_R   0.482946 0.809729 0.692054 -0.351289
N4    N     N_R   0.240972 0.608824 0.263036 0.158402
O11   O     O_R   0.130118 0.503973 0.279721 -0.304474
O12   O     O_R   0.225973 0.733616 0.299016 -0.327287
I5    I     I_    0.833223 0.709918 0.238420 -0.085443
I6    I     I_    0.316574 0.179416 0.702635 -0.136865
N5    N     N_R   0.753190 0.515385 0.980145 0.143778
O13   O     O_R   0.859946 0.611124 0.005585 -0.258116
O14   O     O_R   0.804240 0.431105 0.922764 -0.296013
N6    N     N_R   0.291094 0.406892 0.019984 0.129107
O15   O     O_R   0.147044 0.429676 0.989694 -0.235094
O16   O     O_R   0.293197 0.318519 0.078784 -0.318804

loop_
_geom_bond_atom_site_label_1
_geom_bond_atom_site_label_2
_geom_bond_distance
_ccdc_geom_bond_type
C2    C20   1.411740 S    
O7    Cu2   1.978427 S    
C17   C18   1.360824 D    
C13   C15   1.403871 A    
C7    N3    1.435859 S    
C18   N5    1.444689 S    
C14   C16   1.386286 A    
C19   C20   1.191969 T    
C8    N4    1.423743 S    
O6    C4    1.289454 A    
N6    O16   1.302310 A    
N3    O10   1.300881 A    
C9    I4    2.139117 S    
Cu1   Cu2   2.650514 S    
O5    C3    1.281560 A    
C10   I3    2.136618 S    
O7    C3    1.282633 A    
O2    C2    1.277431 A    
O3    Cu2   1.942776 S    
O8    C4    1.284591 A    
O1    C1    1.277630 A    
C11   C17   1.489341 S    
N4    O12   1.301176 A    
N6    O15   1.300088 A    
C5    C7    1.400206 A    
N3    O9    1.301034 A    
C12   C14   1.409571 A    
C10   C12   1.424403 A    
N5    O14   1.302023 A    
C9    C11   1.420919 A    
O2    Cu2   1.937359 S    
C12   C18   1.488831 S    
O1    Cu1   1.937358 S    
C8    C10   1.405107 A    
C17   N6    1.440489 S    
N1    N2    1.204369 T    
C5    C15   1.403829 A    
O3    C1    1.282528 A    
O5    Cu1   1.981992 S    
C11   C13   1.417837 A    
C6    C16   1.388395 A    
C6    C8    1.408778 A    
O4    C2    1.282829 A    
Cu1   N2    1.991582 S    
C4    C6    1.467691 S    
O4    Cu1   1.942777 S    
Cu2   N1    1.991581 S    
N4    O11   1.301051 A    
O6    Cu2   1.981992 S    
C16   I5    2.116207 S    
C7    C9    1.398991 A    
N5    O13   1.301631 A    
C15   I6    2.146041 S    
C14   I2    2.116208 S    
C3    C5    1.451974 S    
C13   I1    2.142853 S    
C1    C19   1.411460 S    
O8    Cu1   1.978429 S    
