data_mof_unit_38304.cif
_audit_creation_date              2012-12-10T17:31:20-0500
_audit_creation_method            fapswitch 2.2
_symmetry_space_group_name_H-M    P1
_symmetry_Int_Tables_number       1
_space_group_crystal_system       triclinic
_cell_length_a                    18.816012
_cell_length_b                    18.896739
_cell_length_c                    12.442986
_cell_angle_alpha                 90.928062
_cell_angle_beta                  130.429272
_cell_angle_gamma                 89.017145
_cell_volume                      3367.19550906

loop_
_atom_site_label
_atom_site_type_symbol
_atom_type_description
_atom_site_fract_x
_atom_site_fract_y
_atom_site_fract_z
_atom_type_partial_charge
C1    C     C_R   0.610104 0.896504 0.649472 0.821153
C2    C     C_R   0.613798 0.100523 0.655182 0.792649
C3    C     C_R   0.110100 0.396501 0.649468 0.821144
C4    C     C_R   0.113805 0.600517 0.655191 0.792635
C5    C     C_R   0.261283 0.757602 0.067982 0.077338
C6    C     C_R   0.240152 0.223847 0.033890 0.073220
C7    C     C_R   0.761280 0.257603 0.067979 0.077430
C8    C     C_R   0.740196 0.723877 0.033944 0.073153
C9    C     C_R   0.680213 0.252518 0.052968 0.064206
C10   C     C_R   0.671576 0.746433 0.042112 0.043240
C11   C     C_R   0.180169 0.752592 0.052860 0.064364
C12   C     C_R   0.171554 0.246426 0.042093 0.043207
C13   C     C_R   0.597972 0.227229 0.925145 -0.230196
C14   C     C_R   0.591502 0.780912 0.925110 -0.224299
C15   C     C_R   0.097933 0.727323 0.925013 -0.229878
C16   C     C_R   0.091489 0.280921 0.925105 -0.224412
C17   C     C_R   0.598264 0.202881 0.819859 -0.204374
C18   C     C_R   0.586140 0.801576 0.813679 -0.175775
C19   C     C_R   0.098263 0.702920 0.819793 -0.204458
C20   C     C_R   0.086121 0.301579 0.813666 -0.175745
C21   C     C_R   0.332615 0.802288 0.173263 -0.260086
C22   C     C_R   0.307659 0.175498 0.134246 -0.225705
C23   C     C_R   0.832592 0.302310 0.173224 -0.260068
C24   C     C_R   0.807709 0.675534 0.134309 -0.225701
C25   C     C_R   0.263150 0.809993 0.282670 -0.042730
C26   C     C_R   0.266636 0.197571 0.281157 -0.046033
C27   C     C_R   0.763212 0.309940 0.282767 -0.042630
C28   C     C_R   0.766653 0.697588 0.281184 -0.046096
C29   C     C_R   0.687300 0.151702 0.754719 -0.093685
C30   C     C_R   0.670420 0.833997 0.730011 -0.110558
C31   C     C_R   0.187330 0.651670 0.754765 -0.093622
C32   C     C_R   0.170396 0.333982 0.729982 -0.110571
C33   C     C_R   0.679853 0.959537 0.285191 -0.145211
C34   C     C_R   0.179833 0.459501 0.285173 -0.145309
C35   C     C_R   0.340732 0.012707 0.625639 0.133688
C36   C     C_R   0.840742 0.512757 0.625648 0.133619
C37   C     C_R   0.304299 0.014957 0.695539 0.042983
C38   C     C_R   0.804320 0.515062 0.695558 0.042903
C39   C     C_R   0.386690 0.101718 0.346397 0.792640
C40   C     C_R   0.389594 0.896852 0.350093 0.801734
C41   C     C_R   0.886699 0.601724 0.346411 0.792678
C42   C     C_R   0.889590 0.396854 0.350088 0.801757
C43   C     C_R   0.360769 0.991429 0.835540 0.105125
C44   C     C_R   0.860756 0.491503 0.835533 0.105210
C45   C     C_R   0.458801 0.990658 0.917819 -0.038114
C46   C     C_R   0.958789 0.490665 0.917813 -0.038038
C47   C     C_R   0.495128 0.991012 0.844891 0.101508
C48   C     C_R   0.995119 0.491002 0.844887 0.101504
C49   C     C_R   0.522622 0.986521 0.070026 -0.003958
C50   C     C_R   0.022608 0.486508 0.070017 -0.003893
C51   C     C_R   0.613776 0.962155 0.138899 0.061071
C52   C     C_R   0.113753 0.462123 0.138881 0.060857
C53   C     C_R   0.642503 0.946901 0.063240 -0.263009
C54   C     C_R   0.142478 0.446868 0.063216 -0.263149
C55   C     C_R   0.592701 0.974688 0.928959 0.033480
C56   C     C_R   0.092686 0.474668 0.928948 0.033552
C57   C     C_R   0.501275 0.006569 0.157798 0.040253
C58   C     C_R   0.001275 0.506572 0.157801 0.040555
C59   C     C_R   0.656393 0.979704 0.366778 0.216548
C60   C     C_R   0.156385 0.479686 0.366768 0.216490
C61   C     C_R   0.684175 0.272471 0.166734 -0.028795
C62   C     C_R   0.685777 0.735423 0.167678 -0.013650
C63   C     C_R   0.184070 0.772605 0.166544 -0.028678
C64   C     C_R   0.185778 0.235435 0.167687 -0.013860
C65   C     C_R   0.328585 0.834918 0.270424 -0.169776
C66   C     C_R   0.319628 0.159644 0.254873 -0.171730
C67   C     C_R   0.828587 0.334914 0.270429 -0.169745
C68   C     C_R   0.819654 0.659664 0.254910 -0.171704
C69   C     C_R   0.770934 0.148376 0.778053 -0.121884
C70   C     C_R   0.742333 0.817355 0.727764 -0.114877
C71   C     C_R   0.270991 0.648286 0.778185 -0.121930
C72   C     C_R   0.242292 0.317318 0.727706 -0.114834
C73   C     C_R   0.352018 0.677507 0.899676 -0.135172
C74   C     C_R   0.311267 0.268512 0.821533 -0.145499
C75   C     C_R   0.851952 0.177642 0.899487 -0.135221
C76   C     C_R   0.811331 0.768571 0.821627 -0.145597
C77   C     C_R   0.350632 0.710872 0.998777 -0.209511
C78   C     C_R   0.311506 0.236853 0.921961 -0.195449
C79   C     C_R   0.850587 0.210981 0.998627 -0.209510
C80   C     C_R   0.811572 0.736910 0.922055 -0.195395
C81   C     C_R   0.765701 0.221367 0.971725 0.084905
C82   C     C_R   0.738701 0.750317 0.925484 0.102833
C83   C     C_R   0.265724 0.721325 0.971782 0.084873
C84   C     C_R   0.238653 0.250282 0.925421 0.102892
C85   C     C_R   0.682884 0.192533 0.846782 0.069917
C86   C     C_R   0.664150 0.795594 0.821496 0.101070
C87   C     C_R   0.182902 0.692522 0.846797 0.069910
C88   C     C_R   0.164119 0.295578 0.821461 0.101055
Cu1   Cu    Cu3+1 0.526340 0.000000 0.421010 0.963015
Cu2   Cu    Cu3+1 0.026340 0.500000 0.421010 0.963018
Cu3   Cu    Cu3+1 0.473640 0.000000 0.578990 0.946603
Cu4   Cu    Cu3+1 0.973640 0.500000 0.578990 0.946641
H1    H     H_    0.714346 0.929554 0.120867 0.184590
H2    H     H_    0.214317 0.429513 0.120838 0.184614
H3    H     H_    0.750853 0.943075 0.336013 0.181093
H4    H     H_    0.250829 0.443028 0.335989 0.181123
H5    H     H_    0.434445 0.028950 0.113116 0.123217
H6    H     H_    0.934460 0.528979 0.113135 0.123217
H7    H     H_    0.532316 0.227781 0.903736 0.127691
H8    H     H_    0.532552 0.793415 0.918735 0.135820
H9    H     H_    0.032258 0.727928 0.903555 0.127768
H10   H     H_    0.032548 0.293447 0.918738 0.135794
H11   H     H_    0.388830 0.816002 0.175113 0.170927
H12   H     H_    0.350249 0.148003 0.117330 0.159639
H13   H     H_    0.888765 0.316067 0.175007 0.170915
H14   H     H_    0.850316 0.648054 0.117417 0.159704
H15   H     H_    0.775724 0.118373 0.708112 0.146614
H16   H     H_    0.747542 0.844110 0.656920 0.205730
H17   H     H_    0.275790 0.618265 0.708272 0.146541
H18   H     H_    0.247504 0.344071 0.656866 0.205701
H19   H     H_    0.416670 0.727840 0.096318 0.145903
H20   H     H_    0.371145 0.203770 0.997607 0.138613
H21   H     H_    0.916628 0.227979 0.096127 0.145886
H22   H     H_    0.871227 0.703845 0.997726 0.138889
H23   H     H_    0.417159 0.671223 0.920217 0.137137
H24   H     H_    0.367406 0.257359 0.820393 0.143909
H25   H     H_    0.917077 0.171412 0.919962 0.137149
H26   H     H_    0.867483 0.757435 0.820508 0.143869
H27   H     H_    0.531880 0.189200 0.719612 0.157884
H28   H     H_    0.520386 0.823608 0.723181 0.157289
H29   H     H_    0.031888 0.689245 0.719524 0.157836
H30   H     H_    0.020373 0.323622 0.723180 0.157310
N1    N     N_R   0.566260 0.000000 0.302220 -0.226468
N2    N     N_R   0.066260 0.500000 0.302220 -0.226515
N3    N     N_R   0.434410 0.000000 0.697680 -0.254070
N4    N     N_R   0.934410 0.500000 0.697680 -0.254054
O1    O     O_R   0.608610 0.924520 0.551740 -0.605154
O2    O     O_R   0.608610 0.075480 0.551740 -0.592363
O3    O     O_R   0.108610 0.424520 0.551740 -0.605153
O4    O     O_R   0.108610 0.575480 0.551740 -0.592377
O5    O     O_R   0.564110 0.924510 0.685150 -0.566140
O6    O     O_R   0.564110 0.075490 0.685150 -0.607235
O7    O     O_R   0.064110 0.424510 0.685150 -0.566172
O8    O     O_R   0.064110 0.575490 0.685150 -0.607236
O9    O     O_R   0.435880 0.075470 0.314850 -0.569636
O10   O     O_R   0.435880 0.924530 0.314850 -0.569135
O11   O     O_R   0.935880 0.575470 0.314850 -0.569622
O12   O     O_R   0.935880 0.424530 0.314850 -0.569173
O13   O     O_R   0.391380 0.075460 0.448260 -0.626177
O14   O     O_R   0.391380 0.924540 0.448260 -0.579840
O15   O     O_R   0.891380 0.575460 0.448260 -0.626194
O16   O     O_R   0.891380 0.424540 0.448260 -0.579765
C89   C     C_2   0.281507 0.818710 0.418103 0.535218
H31   H     H_    0.352739 0.822251 0.516779 0.031084
O17   O     O_2   0.218445 0.821737 0.422208 -0.488600
C90   C     C_2   0.301567 0.201351 0.428141 0.388245
H32   H     H_    0.375212 0.193686 0.516143 0.061278
O18   O     O_2   0.250180 0.212946 0.454075 -0.547954
C91   C     C_2   0.781545 0.318744 0.418163 0.535825
H33   H     H_    0.852776 0.322218 0.516859 0.030739
O19   O     O_2   0.718456 0.321945 0.422197 -0.488250
C92   C     C_2   0.801589 0.701397 0.428173 0.387534
H34   H     H_    0.875194 0.693557 0.516174 0.061461
O20   O     O_2   0.750258 0.713254 0.454137 -0.547679
C93   C     C_2   0.272995 0.018218 0.470653 0.479024
H35   H     H_    0.255144 0.069059 0.420600 0.066628
O21   O     O_2   0.229197 0.966716 0.397424 -0.537258
C94   C     C_2   0.773004 0.518298 0.470667 0.479220
H36   H     H_    0.755140 0.569154 0.420664 0.066238
O22   O     O_2   0.729232 0.466802 0.397385 -0.536980
C95   C     C_3   0.314176 0.948293 0.877560 -0.399632
C96   C     C_3   0.357350 0.874883 0.930256 -0.792773
H37   H     H_    0.366739 0.849113 0.859220 0.258193
H38   H     H_    0.424946 0.876115 0.039690 0.255999
H39   H     H_    0.308084 0.843285 0.928742 0.249799
H40   H     H_    0.310680 0.976368 0.952592 0.188836
H41   H     H_    0.240460 0.936976 0.784316 0.216863
C97   C     C_3   0.814095 0.448415 0.877494 -0.399618
C98   C     C_3   0.857149 0.374966 0.930063 -0.792876
H42   H     H_    0.866454 0.349181 0.858943 0.258258
H43   H     H_    0.924774 0.376140 0.039472 0.255827
H44   H     H_    0.807852 0.343415 0.928558 0.249849
H45   H     H_    0.810646 0.476492 0.952574 0.188817
H46   H     H_    0.740354 0.437171 0.784235 0.216872
C99   C     C_3   0.203501 0.039013 0.619577 -0.462156
C100  C     C_3   0.184161 0.115353 0.568003 -0.751894
H47   H     H_    0.247285 0.148280 0.641186 0.275010
H48   H     H_    0.160199 0.117099 0.460011 0.266030
H49   H     H_    0.127124 0.138515 0.562335 0.242650
H50   H     H_    0.153579 0.002786 0.529849 0.245010
H51   H     H_    0.187727 0.038394 0.691350 0.211403
C101  C     C_3   0.703569 0.539232 0.619644 -0.462253
C102  C     C_3   0.684385 0.615585 0.568187 -0.751953
H52   H     H_    0.747607 0.648427 0.641318 0.274960
H53   H     H_    0.660314 0.617330 0.460127 0.265900
H54   H     H_    0.627470 0.638860 0.562714 0.242710
H55   H     H_    0.653575 0.503054 0.529864 0.244915
H56   H     H_    0.687800 0.538643 0.691426 0.211444
C103  C     C_2   0.657053 0.012471 0.922491 0.465662
H57   H     H_    0.658553 0.069500 0.930174 0.073229
O23   O     O_2   0.717251 0.981123 0.929435 -0.559504
C104  C     C_2   0.157036 0.512470 0.922501 0.465738
H58   H     H_    0.158514 0.569499 0.930167 0.073266
O24   O     O_2   0.217250 0.481136 0.929462 -0.559493
C105  C     C_2   0.608691 0.250148 0.166083 0.435967
H59   H     H_    0.538448 0.271050 0.087695 0.052856
O25   O     O_2   0.624134 0.206278 0.250112 -0.525562
C106  C     C_2   0.617028 0.765023 0.178619 0.433770
H60   H     H_    0.544365 0.750363 0.101014 0.010535
O26   O     O_2   0.639874 0.808385 0.269472 -0.505782
C107  C     C_2   0.108427 0.750487 0.165653 0.435955
H61   H     H_    0.038404 0.771860 0.087749 0.053345
O27   O     O_2   0.123485 0.706293 0.248931 -0.525671
C108  C     C_2   0.117105 0.265117 0.178729 0.433696
H62   H     H_    0.044376 0.250661 0.100966 0.010603
O28   O     O_2   0.140105 0.308323 0.269892 -0.505794
C109  C     C_2   0.731693 0.978843 0.522552 0.355124
H63   H     H_    0.723041 0.003544 0.591601 0.124014
O29   O     O_2   0.807010 0.950465 0.577405 -0.570725
C110  C     C_2   0.231688 0.478826 0.522540 0.355136
H64   H     H_    0.223042 0.503538 0.591588 0.123990
O30   O     O_2   0.306999 0.450437 0.577391 -0.570718

loop_
_geom_bond_atom_site_label_1
_geom_bond_atom_site_label_2
_ccdc_geom_bond_type
C83   C87   A    
C56   C104  S    
C13   H7    S    
Cu1   O9    S    
C18   H28   S    
C93   O21   D    
C98   H43   S    
C98   H42   S    
C14   C18   A    
Cu4   O8    S    
Cu4   O7    S    
C75   H25   S    
C48   C56   A    
C39   C66   S    
C95   C96   S    
C69   H15   S    
C49   C57   A    
C32   C72   A    
C39   O9    A    
C15   C19   A    
C40   O10   A    
C18   C86   A    
C2    C29   S    
C9    C61   A    
C25   C89   S    
C47   C55   A    
C28   C68   A    
C34   H4    S    
C5    C11   A    
C19   C87   A    
C102  H53   S    
C90   O18   D    
C6    C12   A    
C12   C64   A    
Cu3   O5    S    
C77   C83   A    
C89   H31   S    
C6    C22   A    
C20   C88   A    
C22   H12   S    
C35   N3    A    
C25   C63   A    
C23   C67   A    
C60   N2    A    
C9    C13   A    
C101  C102  S    
C22   C66   A    
C26   C64   A    
C27   C61   A    
C30   C70   A    
Cu2   O3    S    
C11   C15   A    
C94   O22   D    
C100  H49   S    
C12   C16   A    
C44   C46   A    
C49   C51   A    
C77   H19   S    
C42   O16   A    
C50   C52   A    
C92   O20   D    
C100  H47   S    
C106  H60   S    
C71   H17   S    
C30   C86   A    
Cu4   O16   S    
C61   C105  S    
C29   C85   A    
C95   H40   S    
C36   C94   S    
C99   H51   S    
C21   C65   A    
C53   C55   A    
C64   C108  S    
C74   H24   S    
C27   C91   S    
Cu1   O10   S    
C34   C60   A    
C108  H62   S    
C107  O27   D    
C91   O19   D    
C10   C62   A    
C33   H3    S    
C21   H11   S    
Cu2   O12   S    
C52   C54   A    
C47   N3    A    
C41   C68   S    
C29   C69   A    
C45   C47   A    
C59   N1    A    
C97   H45   S    
C72   H18   S    
C6    C84   A    
C28   C62   A    
C53   H1    S    
C109  H63   S    
C26   C66   A    
C76   C80   A    
C31   C87   A    
C62   C106  S    
C72   C74   A    
C10   C14   A    
C102  H54   S    
C71   C73   A    
C44   C97   S    
C4    O4    A    
Cu3   O6    S    
Cu1   N1    S    
C26   C90   S    
C82   C86   A    
C24   C68   A    
C76   H26   S    
C33   C51   A    
C105  H59   S    
C3    O7    A    
C5    C21   A    
C104  O24   D    
C37   C43   A    
C97   H46   S    
C102  H52   S    
C5    C83   A    
C38   C44   A    
C78   C84   A    
C57   N1    A    
C96   H39   S    
C2    O6    A    
C99   C100  S    
C45   C49   A    
C16   C20   A    
C57   H5    S    
C50   C58   A    
C25   C65   A    
C3    C32   S    
C101  H56   S    
C15   H9    S    
Cu4   O15   S    
C43   C45   A    
C95   H41   S    
Cu3   O13   S    
C43   C95   S    
C16   H10   S    
C97   C98   S    
C7    C81   A    
C108  O28   D    
C28   C92   S    
C110  O30   D    
C40   C65   S    
C79   H21   S    
C70   C76   A    
C42   C67   S    
C98   H44   S    
C17   C85   A    
C32   C88   A    
Cu1   Cu3   S    
C55   C103  S    
Cu2   O11   S    
C92   H34   S    
C4    O8    A    
C90   H32   S    
Cu1   O1    S    
C59   C109  S    
C41   O11   A    
C89   O17   D    
C19   H29   S    
C63   C107  S    
C35   C37   A    
C3    O3    A    
Cu2   N2    S    
C8    C10   A    
C36   N4    A    
C1    O1    A    
C80   H22   S    
C58   N2    A    
C1    O5    A    
C37   C99   S    
Cu4   N4    S    
C106  O26   D    
C79   C81   A    
C54   C56   A    
C14   H8    S    
C99   H50   S    
C13   C17   A    
C58   H6    S    
C96   H37   S    
C41   O15   A    
C46   C50   A    
C34   C52   A    
C20   H30   S    
C38   C101  S    
C107  H61   S    
Cu3   N3    S    
C104  H58   S    
C36   C38   A    
C96   H38   S    
C70   H16   S    
C73   H23   S    
C94   H36   S    
C84   C88   A    
C75   C79   A    
C7    C23   A    
C40   O14   A    
C100  H48   S    
C1    C30   S    
Cu2   Cu4   S    
C80   C82   A    
C69   C75   A    
C101  H55   S    
C103  H57   S    
C54   H2    S    
C4    C31   S    
C27   C67   A    
C17   H27   S    
C51   C53   A    
C48   N4    A    
Cu3   O14   S    
Cu2   O4    S    
C46   C48   A    
C7    C9    A    
C8    C82   A    
C24   H14   S    
C8    C24   A    
C33   C59   A    
C110  H64   S    
C74   C78   A    
C93   H35   S    
C109  O29   D    
C73   C77   A    
C78   H20   S    
C42   O12   A    
C103  O23   D    
C91   H33   S    
C11   C63   A    
C60   C110  S    
C39   O13   A    
C81   C85   A    
C35   C93   S    
C2    O2    A    
C31   C71   A    
C105  O25   D    
Cu1   O2    S    
C23   H13   S    
