data_mof_unit_35818.cif
_audit_creation_date              2012-10-26T21:22:00-0400
_audit_creation_method            fapswitch 2.2
_symmetry_space_group_name_H-M    P1
_symmetry_Int_Tables_number       1
_space_group_crystal_system       triclinic
_cell_length_a                    17.787545
_cell_length_b                    19.059371
_cell_length_c                    11.836901
_cell_angle_alpha                 90.257685
_cell_angle_beta                  74.191031
_cell_angle_gamma                 89.946905
_cell_volume                      3861.10261003

loop_
_atom_site_label
_atom_site_type_symbol
_atom_type_description
_atom_site_fract_x
_atom_site_fract_y
_atom_site_fract_z
_atom_type_partial_charge
C1    C     C_R   0.403606 0.103676 0.521227 0.551697
C2    C     C_R   0.462474 0.993624 0.039963 -0.038142
C3    C     C_R   0.038220 0.501226 0.959529 -0.040593
C4    C     C_R   0.963388 0.497485 0.039433 -0.038011
C5    C     C_R   0.407262 0.002703 0.870841 0.170572
C6    C     C_R   0.592624 0.003658 0.129238 0.171580
C7    C     C_R   0.907254 0.499849 0.871407 0.164004
C8    C     C_R   0.092913 0.495745 0.129432 0.168834
C9    C     C_R   0.397170 0.992607 0.992767 0.203715
C10   C     C_R   0.602910 0.993844 0.007062 0.205130
C11   C     C_R   0.898492 0.490296 0.993005 0.206702
C12   C     C_R   0.599249 0.898204 0.477382 0.571432
C13   C     C_R   0.103350 0.503794 0.006930 0.202409
C14   C     C_R   0.545246 0.996540 0.835255 0.200569
C15   C     C_R   0.454915 0.994268 0.164714 0.201408
C16   C     C_R   0.045531 0.501314 0.834908 0.198244
C17   C     C_R   0.955177 0.502101 0.163776 0.201448
C18   C     C_R   0.642995 0.168502 0.468799 0.006061
C19   C     C_R   0.343650 0.840686 0.538173 0.067854
C20   C     C_R   0.353263 0.166772 0.533206 0.003945
C21   C     C_R   0.656000 0.839621 0.461127 0.016893
C22   C     C_R   0.152427 0.662128 0.462779 0.013546
C23   C     C_R   0.595653 0.103905 0.479272 0.554859
C24   C     C_R   0.841309 0.342035 0.537721 0.070812
C25   C     C_R   0.853766 0.667020 0.535080 0.002016
C26   C     C_R   0.148264 0.334219 0.466645 0.010243
C27   C     C_R   0.233941 0.775053 0.659565 0.070906
C28   C     C_R   0.734919 0.250279 0.347947 0.039486
C29   C     C_R   0.770792 0.779619 0.338980 0.063302
C30   C     C_R   0.253352 0.241373 0.657578 0.061677
C31   C     C_R   0.737595 0.271250 0.662900 0.069956
C32   C     C_R   0.260654 0.729266 0.341159 0.047336
C33   C     C_R   0.250752 0.262321 0.341827 0.062395
C34   C     C_R   0.400318 0.898775 0.522437 0.605129
C35   C     C_R   0.748141 0.736995 0.657094 0.067355
C36   C     C_R   0.293900 0.824833 0.649819 0.166153
C37   C     C_R   0.675322 0.199819 0.359328 0.189337
C38   C     C_R   0.705356 0.823547 0.349134 0.184796
C39   C     C_R   0.317081 0.195085 0.644114 0.173545
C40   C     C_R   0.797830 0.321087 0.650883 0.169061
C41   C     C_R   0.199400 0.680879 0.350834 0.200429
C42   C     C_R   0.185263 0.306520 0.355684 0.173387
C43   C     C_R   0.811358 0.690630 0.646528 0.174988
C44   C     C_R   0.340893 0.800198 0.440434 0.218757
C45   C     C_R   0.903440 0.603507 0.521669 0.546893
C46   C     C_R   0.652965 0.201470 0.570599 0.223436
C47   C     C_R   0.662883 0.801771 0.559696 0.217291
C48   C     C_R   0.341357 0.199128 0.432427 0.212939
C49   C     C_R   0.828931 0.308995 0.438015 0.222258
C50   C     C_R   0.156016 0.701636 0.561773 0.222429
C51   C     C_R   0.161397 0.302743 0.567286 0.216516
C52   C     C_R   0.849632 0.705172 0.435302 0.198993
C53   C     C_R   0.275145 0.757571 0.444931 -0.083740
C54   C     C_R   0.716691 0.246977 0.561664 -0.028038
C55   C     C_R   0.731407 0.762971 0.553735 -0.043519
C56   C     C_R   0.096640 0.396460 0.478744 0.561656
C57   C     C_R   0.274599 0.241368 0.442512 -0.044942
C58   C     C_R   0.760999 0.268380 0.448074 -0.088498
C59   C     C_R   0.221199 0.744702 0.556300 -0.026144
C60   C     C_R   0.229099 0.261773 0.556927 -0.047070
C61   C     C_R   0.784977 0.749806 0.441626 -0.047364
C62   C     C_2   0.662279 0.028490 0.164165 0.654777
C63   C     C_2   0.337284 0.028361 0.837322 0.657544
C64   C     C_2   0.163245 0.472591 0.164487 0.662520
C65   C     C_2   0.835325 0.522791 0.840162 0.657041
C66   C     C_2   0.376494 0.993227 0.248580 0.721790
C67   C     C_R   0.098711 0.601865 0.477807 0.560237
C68   C     C_2   0.623587 0.003260 0.752273 0.727197
C69   C     C_2   0.877127 0.515598 0.244394 0.723709
C70   C     C_2   0.123583 0.507677 0.751147 0.727113
C71   C     C_2   0.702125 0.241223 0.780626 0.663863
C72   C     C_2   0.307241 0.749886 0.221808 0.595184
C73   C     C_2   0.293305 0.240409 0.221018 0.662401
C74   C     C_2   0.701041 0.756623 0.777105 0.654936
C75   C     C_2   0.189942 0.751220 0.778207 0.665206
C76   C     C_2   0.766378 0.285375 0.232922 0.593324
C77   C     C_2   0.824337 0.767976 0.220451 0.661272
C78   C     C_R   0.899879 0.398903 0.522294 0.613106
C79   C     C_2   0.213463 0.266496 0.777820 0.663970
C80   C     C_R   0.537587 0.994594 0.959950 -0.036591
Cu1   Cu    Cu3+1 0.507800 0.000000 0.383250 1.108115
Cu2   Cu    Cu3+1 0.492200 1.000000 0.616750 1.087644
Cu3   Cu    Cu3+1 0.007800 0.500000 0.383250 1.109609
Cu4   Cu    Cu3+1 0.992200 0.500000 0.616750 1.086914
H1    H     H_    0.739625 0.015069 0.258962 0.342885
H2    H     H_    0.417112 0.750477 0.320183 0.338972
H3    H     H_    0.448825 0.191587 0.338752 0.346080
H4    H     H_    0.551612 0.801940 0.637750 0.336538
H5    H     H_    0.044878 0.697374 0.639051 0.334716
H6    H     H_    0.891481 0.266962 0.294324 0.339861
H7    H     H_    0.959470 0.695038 0.353452 0.337527
H8    H     H_    0.053639 0.308193 0.660855 0.343456
H9    H     H_    0.649676 0.223205 0.213305 0.363308
H10   H     H_    0.263077 0.851707 0.817070 0.354121
H11   H     H_    0.335131 0.216277 0.796909 0.360798
H12   H     H_    0.260997 0.018099 0.739892 0.343683
H13   H     H_    0.714574 0.825646 0.179192 0.346954
H14   H     H_    0.197945 0.685283 0.185924 0.346311
H15   H     H_    0.775508 0.342048 0.819610 0.347105
H16   H     H_    0.820577 0.705515 0.805830 0.354554
H17   H     H_    0.169371 0.284973 0.201582 0.354822
H18   H     H_    0.702870 0.163384 0.894973 0.384740
H19   H     H_    0.376866 0.718939 0.064910 0.360048
H20   H     H_    0.318565 0.162976 0.099966 0.380019
H21   H     H_    0.636443 0.723743 0.935495 0.357249
H22   H     H_    0.176653 0.677504 0.903641 0.353456
H23   H     H_    0.240055 0.487781 0.259782 0.344265
H24   H     H_    0.813386 0.274991 0.058209 0.355967
H25   H     H_    0.850837 0.710097 0.071807 0.367004
H26   H     H_    0.154298 0.241184 0.943352 0.358726
H27   H     H_    0.289510 0.960398 0.022552 0.353089
H28   H     H_    0.710972 0.961992 0.977196 0.354335
H29   H     H_    0.794343 0.449524 0.021656 0.348755
H30   H     H_    0.210828 0.536513 0.975235 0.350231
H31   H     H_    0.759794 0.512088 0.741570 0.347661
H32   H     H_    0.282414 0.048462 0.338566 0.345307
H33   H     H_    0.720763 0.954882 0.655160 0.338217
H34   H     H_    0.789237 0.584881 0.302140 0.352177
H35   H     H_    0.220625 0.458990 0.654624 0.340688
H36   H     H_    0.545744 0.191121 0.663449 0.345578
N1    N     N_R   0.519530 1.000000 0.207810 -0.316105
N2    N     N_R   0.480470 1.000000 0.792190 -0.317082
N3    N     N_R   0.019530 0.500000 0.207810 -0.317442
N4    N     N_R   0.980470 0.500000 0.792190 -0.316322
O1    O     O_R   0.430030 0.075530 0.417420 -0.495257
O2    O     O_R   0.583140 0.924490 0.385390 -0.407579
O3    O     O_R   0.583140 0.075510 0.385390 -0.450484
O4    O     O_R   0.416860 0.924490 0.614610 -0.431200
O5    O     O_R   0.916860 0.575510 0.614610 -0.442119
O6    O     O_R   0.083140 0.424490 0.385390 -0.440326
O7    O     O_R   0.083140 0.575510 0.385390 -0.425922
O8    O     O_R   0.916860 0.424490 0.614610 -0.431361
O9    O     O_2   0.699040 0.078377 0.112279 -0.442906
O10   O     O_R   0.690713 0.992892 0.246401 -0.616444
O11   O     O_2   0.299073 0.076458 0.893988 -0.447103
O12   O     O_R   0.569970 0.924470 0.582580 -0.495088
O13   O     O_R   0.310251 0.995607 0.750684 -0.624855
O14   O     O_2   0.202117 0.423909 0.110822 -0.424411
O15   O     O_R   0.190459 0.508832 0.247690 -0.612501
O16   O     O_2   0.793472 0.567088 0.901922 -0.431690
O17   O     O_R   0.810647 0.491662 0.749981 -0.626818
O18   O     O_2   0.343308 0.937368 0.276756 -0.412805
O19   O     O_R   0.336604 0.056004 0.284077 -0.596041
O20   O     O_2   0.653686 0.061110 0.733175 -0.426432
O21   O     O_R   0.666969 0.943383 0.707728 -0.590599
O22   O     O_2   0.839128 0.467904 0.300679 -0.410388
O23   O     O_R   0.569970 0.075530 0.582580 -0.495573
O24   O     O_R   0.843770 0.582046 0.246596 -0.602458
O25   O     O_2   0.153352 0.565574 0.729751 -0.430395
O26   O     O_R   0.167088 0.447682 0.708198 -0.583771
O27   O     O_3   0.598179 0.193272 0.677551 -0.606432
O28   O     O_3   0.405793 0.800066 0.344714 -0.624298
O29   O     O_3   0.396245 0.192506 0.325042 -0.608769
O30   O     O_3   0.601279 0.799007 0.660308 -0.615364
O31   O     O_3   0.094224 0.701592 0.662277 -0.614877
O32   O     O_3   0.886811 0.313517 0.333395 -0.617028
O33   O     O_3   0.909380 0.700503 0.332729 -0.611335
O34   O     O_R   0.430030 0.924470 0.417420 -0.461362
O35   O     O_3   0.106194 0.307904 0.674664 -0.610954
O36   O     O_3   0.643739 0.183269 0.268038 -0.631070
O37   O     O_3   0.308850 0.855248 0.747910 -0.641306
O38   O     O_3   0.348121 0.179122 0.736065 -0.636629
O39   O     O_3   0.687687 0.851438 0.251493 -0.629255
O40   O     O_3   0.182851 0.652349 0.252569 -0.625765
O41   O     O_3   0.819110 0.346511 0.747552 -0.650162
O42   O     O_3   0.835221 0.669688 0.742859 -0.631952
O43   O     O_3   0.153396 0.320967 0.264021 -0.628410
O44   O     O_2   0.648053 0.271717 0.849556 -0.459305
O45   O     O_R   0.930030 0.575530 0.417420 -0.510527
O46   O     O_R   0.731609 0.178673 0.812601 -0.600603
O47   O     O_2   0.308451 0.811065 0.191107 -0.414556
O48   O     O_R   0.347906 0.698683 0.143798 -0.666403
O49   O     O_2   0.331209 0.283564 0.152705 -0.433062
O50   O     O_R   0.287417 0.171397 0.184393 -0.608408
O51   O     O_2   0.695154 0.818121 0.807889 -0.426159
O52   O     O_R   0.665985 0.704138 0.856018 -0.629639
O53   O     O_2   0.136047 0.786756 0.837271 -0.462536
O54   O     O_R   0.210847 0.688406 0.822032 -0.614319
O55   O     O_2   0.767149 0.349376 0.227496 -0.408446
O56   O     O_R   0.069970 0.424470 0.582580 -0.494502
O57   O     O_R   0.794067 0.245082 0.130963 -0.647908
O58   O     O_2   0.878859 0.808153 0.182732 -0.440994
O59   O     O_R   0.810722 0.712460 0.151169 -0.630677
O60   O     O_2   0.214098 0.328823 0.802025 -0.400921
O61   O     O_R   0.178290 0.218076 0.864402 -0.628290
O62   O     O_3   0.322734 0.983841 0.066346 -0.623218
O63   O     O_3   0.677269 0.984321 0.933258 -0.626577
O64   O     O_3   0.826176 0.473486 0.067104 -0.613496
O65   O     O_3   0.177937 0.511066 0.933140 -0.619987
O66   O     O_R   0.069970 0.575530 0.582580 -0.496372
O67   O     O_R   0.930030 0.424470 0.417420 -0.438629
O68   O     O_R   0.416860 0.075510 0.614610 -0.446422

loop_
_geom_bond_atom_site_label_1
_geom_bond_atom_site_label_2
_ccdc_geom_bond_type
H18   O46   S    
C48   O29   S    
H31   O17   S    
H26   O61   S    
C45   O5    A    
C8    C13   A    
C14   N2    A    
Cu1   O2    S    
C49   O32   S    
C70   O26   S    
C7    N4    A    
C76   O55   D    
C25   C43   A    
H28   O63   S    
Cu2   O23   S    
C53   C59   A    
C67   O66   A    
C48   C57   A    
C32   C72   S    
C64   O14   D    
C31   C40   A    
C17   C69   S    
C5    C9    A    
C44   O28   S    
H24   O57   S    
H8    O35   S    
C50   C59   A    
C72   O48   S    
C37   O36   S    
Cu3   O67   S    
C18   C37   A    
C1    O1    A    
C52   C61   A    
C56   O56   A    
H5    O31   S    
C22   C41   A    
C12   O2    A    
Cu3   O45   S    
Cu4   O5    S    
C24   C49   A    
C13   O65   S    
C79   O60   D    
C5    C63   S    
H16   O42   S    
C73   O50   S    
Cu4   O56   S    
C75   O54   S    
C78   O8    A    
C77   O59   S    
C65   O16   D    
C44   C53   A    
C17   N3    A    
C21   C38   A    
H13   O39   S    
H21   O52   S    
C30   C60   A    
C29   C38   A    
C32   C41   A    
H3    O29   S    
Cu4   O66   S    
C14   C80   A    
C35   C43   A    
C3    C13   A    
H1    O10   S    
C22   C50   A    
Cu1   O1    S    
H25   O59   S    
H35   O26   S    
C31   C71   S    
C46   O27   S    
C47   C55   A    
H30   O65   S    
C21   C47   A    
Cu1   O3    S    
Cu2   O12   S    
C69   O22   D    
C63   O13   S    
C70   O25   D    
C27   C75   S    
C18   C46   A    
Cu1   Cu2   S    
C29   C61   A    
C35   C55   A    
C11   O64   S    
C72   O47   D    
C16   C70   S    
Cu3   O6    S    
C9    O62   S    
H11   O38   S    
H12   O13   S    
C20   C39   A    
C10   C80   A    
C57   C60   A    
H20   O50   S    
C66   O19   S    
C15   C66   S    
C23   O23   A    
C12   C21   S    
Cu4   O8    S    
C49   C58   A    
C18   C23   S    
C26   C56   S    
C4    C11   A    
H4    O30   S    
H9    O36   S    
C7    C11   A    
C74   O52   S    
H2    O28   S    
C7    C65   S    
H32   O19   S    
C65   O17   S    
Cu3   Cu4   S    
C50   O31   S    
C35   C74   S    
C46   C54   A    
C77   O58   D    
C71   O46   S    
C39   O38   S    
C2    C15   A    
H10   O37   S    
Cu2   O4    S    
C40   O41   S    
C20   C48   A    
C8    C64   S    
C30   C79   S    
C34   O34   A    
C33   C73   S    
C38   O39   S    
C10   O63   S    
C71   O44   D    
C19   C44   A    
H19   O48   S    
H33   O21   S    
C4    C17   A    
H6    O32   S    
C3    C4    A    
C28   C76   S    
C25   C45   S    
C32   C53   A    
C42   O43   S    
C26   C42   A    
C23   O3    A    
C54   C58   A    
C43   O42   S    
C24   C78   S    
C52   O33   S    
C33   C42   A    
H36   O27   S    
C33   C57   A    
Cu1   O34   S    
C79   O61   S    
Cu2   O68   S    
C67   O7    A    
C78   O67   A    
C1    C20   S    
C19   C34   S    
C45   O45   A    
C6    C10   A    
H14   O40   S    
C8    N3    A    
C66   O18   D    
C47   O30   S    
C28   C58   A    
C27   C36   A    
Cu4   N4    S    
H17   O43   S    
C19   C36   A    
C6    C62   S    
H34   O24   S    
Cu3   O7    S    
C16   N4    A    
C25   C52   A    
C74   O51   D    
C27   C59   A    
C26   C51   A    
H29   O64   S    
C62   O10   S    
C36   O37   S    
C28   C37   A    
C55   C61   A    
C51   O35   S    
C24   C40   A    
H22   O54   S    
C30   C39   A    
C68   O20   D    
H27   O62   S    
C31   C54   A    
C73   O49   D    
C75   O53   D    
C15   N1    A    
C22   C67   S    
H7    O33   S    
C2    C80   A    
C3    C16   A    
C1    O68   A    
C29   C77   S    
C34   O4    A    
C12   O12   A    
C41   O40   S    
Cu1   N1    S    
C69   O24   S    
C14   C68   S    
C51   C60   A    
C6    N1    A    
Cu3   N3    S    
C2    C9    A    
C62   O9    D    
C5    N2    A    
Cu2   N2    S    
H23   O15   S    
C56   O6    A    
C68   O21   S    
C76   O57   S    
C63   O11   D    
H15   O41   S    
C64   O15   S    
