data_mof_unit_39628.cif
_audit_creation_date              2012-12-11T18:09:01-0500
_audit_creation_method            fapswitch 2.2
_symmetry_space_group_name_H-M    P1
_symmetry_Int_Tables_number       1
_space_group_crystal_system       triclinic
_cell_length_a                    8.333401
_cell_length_b                    12.749031
_cell_length_c                    18.992597
_cell_angle_alpha                 99.771839
_cell_angle_beta                  91.454786
_cell_angle_gamma                 98.085049
_cell_volume                      1966.27464639

loop_
_atom_site_label
_atom_site_type_symbol
_atom_type_description
_atom_site_fract_x
_atom_site_fract_y
_atom_site_fract_z
_atom_type_partial_charge
Ba1   Ba    Ba6+2 0.853180 0.547790 0.465300 1.721110
Ba2   Ba    Ba6+2 0.336650 0.452300 0.534710 1.689678
C1    C     C_3   0.630175 0.913640 0.258792 -0.398783
C2    C     C_3   0.654664 0.824529 0.300225 0.378069
C3    C     C_3   0.464907 0.282160 0.317180 0.305155
C4    C     C_3   0.443399 0.250206 0.236246 -0.392435
C5    C     C_3   0.060485 0.231456 0.727836 0.340851
C6    C     C_3   0.043143 0.188479 0.797861 -0.319623
C7    C     C_3   0.483013 0.192307 0.748333 0.587078
C8    C     C_3   0.521263 0.152904 0.817624 -0.362156
C9    C     C_R   0.068937 0.553837 0.801577 -0.109289
C10   C     C_R   0.023348 0.544606 0.727985 0.104395
C11   C     C_R   0.855082 0.408790 0.808520 -0.194757
C12   C     C_3   0.155089 0.822096 0.275157 0.742287
C13   C     C_R   0.784673 0.426281 0.744930 0.061102
C14   C     C_R   0.342034 0.579330 0.186097 -0.076188
C15   C     C_R   0.406481 0.574666 0.253975 -0.025757
C16   C     C_R   0.139639 0.429430 0.197789 -0.143404
C17   C     C_R   0.172502 0.452974 0.272790 0.101355
C18   C     C_R   0.989547 0.480160 0.843786 -0.015342
C19   C     C_R   0.874906 0.486752 0.702349 -0.210305
C20   C     C_R   0.214467 0.499567 0.152471 0.048942
C21   C     C_R   0.313648 0.520405 0.299391 -0.216182
C22   C     C_R   0.767052 0.413090 0.959964 -0.085967
C23   C     C_3   0.171501 0.900670 0.222640 -0.326449
C24   C     C_R   0.666026 0.373493 0.009431 -0.080590
C25   C     C_R   0.716283 0.395432 0.080585 -0.082383
C26   C     C_R   0.871124 0.449112 0.100286 -0.048355
C27   C     C_R   0.990267 0.462561 0.049789 0.030454
C28   C     C_R   0.935165 0.450246 0.975940 0.038022
C29   C     C_R   0.157704 0.492579 0.072926 -0.001921
C30   C     C_R   0.268578 0.514349 0.018830 0.028516
C31   C     C_R   0.213773 0.502339 0.945003 0.016590
C32   C     C_R   0.045803 0.476626 0.922178 -0.005764
C33   C     C_R   0.437163 0.546350 0.035190 -0.078418
C34   C     C_3   0.243076 0.785003 0.616610 0.343288
C35   C     C_R   0.540533 0.583206 0.985795 -0.070308
C36   C     C_R   0.490665 0.561543 0.914556 -0.068166
C37   C     C_R   0.333465 0.511476 0.894321 -0.071146
C38   C     C_R   0.770908 0.181576 0.519918 -0.279048
C39   C     C_R   0.440462 0.807808 0.468669 -0.290423
C40   C     C_R   0.411915 0.982579 0.443287 -0.089281
C41   C     C_R   0.349176 0.874826 0.440434 -0.030229
C42   C     C_R   0.586239 0.849092 0.507940 0.071638
C43   C     C_R   0.650851 0.961391 0.515463 -0.092069
C44   C     C_R   0.562458 0.027341 0.479578 -0.084715
C45   C     C_3   0.308299 0.904667 0.636602 -0.329080
C46   C     C_R   0.622543 0.138067 0.483943 0.060008
C47   C     C_R   0.862194 0.118545 0.552315 0.025983
C48   C     C_R   0.798260 0.012403 0.556052 0.390245
C49   C     C_3   0.958641 0.209533 0.378503 0.274905
C50   C     C_3   0.977790 0.091190 0.366747 -0.326559
C51   C     C_3   0.684818 0.730756 0.694592 0.675816
C52   C     C_3   0.571161 0.755197 0.755172 -0.281444
H1    H     H_    0.750852 0.855455 0.343218 0.077329
H2    H     H_    0.427292 0.916214 0.666601 0.126591
H3    H     H_    0.323710 0.941456 0.587941 0.104452
H4    H     H_    0.223134 0.947412 0.670542 0.205203
H5    H     H_    0.828842 0.217330 0.383053 -0.002916
H6    H     H_    0.029353 0.249372 0.428612 0.056861
H7    H     H_    0.918595 0.050130 0.314711 0.121599
H8    H     H_    0.922089 0.051506 0.409571 0.053465
H9    H     H_    0.108845 0.083190 0.366264 0.131455
H10   H     H_    0.657648 0.645033 0.667845 -0.015872
H11   H     H_    0.603723 0.985500 0.296154 0.088523
H12   H     H_    0.608098 0.838475 0.785389 0.133186
H13   H     H_    0.573962 0.698160 0.793076 0.097433
H14   H     H_    0.446101 0.751496 0.734329 0.113421
H15   H     H_    0.539353 0.802747 0.325879 -0.092373
H16   H     H_    0.526760 0.885663 0.218879 0.109184
H17   H     H_    0.351073 0.308082 0.338094 0.008231
H18   H     H_    0.566067 0.350257 0.329686 0.067704
H19   H     H_    0.337793 0.185473 0.221554 0.123744
H20   H     H_    0.422259 0.320983 0.212320 0.046200
H21   H     H_    0.554742 0.220915 0.214335 0.126214
H22   H     H_    0.740716 0.935779 0.229986 0.133451
H23   H     H_    0.235823 0.867409 0.175267 0.089235
H24   H     H_    0.152367 0.305071 0.735786 0.051237
H25   H     H_    0.942507 0.252881 0.711970 0.038917
H26   H     H_    0.043151 0.255588 0.843517 0.054903
H27   H     H_    0.927627 0.131949 0.795483 0.169200
H28   H     H_    0.145674 0.144811 0.807478 0.124407
H29   H     H_    0.371629 0.140191 0.724092 0.099482
H30   H     H_    0.634068 0.199322 0.845567 0.109659
H31   H     H_    0.536214 0.066310 0.805651 0.123606
H32   H     H_    0.420054 0.161591 0.854318 0.085448
H33   H     H_    0.169065 0.614798 0.823757 0.080057
H34   H     H_    0.804264 0.338672 0.828852 0.074875
H35   H     H_    0.395676 0.643926 0.160144 0.070319
H36   H     H_    0.049301 0.361154 0.176469 0.048053
H37   H     H_    0.826168 0.491876 0.649865 0.058023
H38   H     H_    0.356172 0.526095 0.354417 0.046822
H39   H     H_    0.702742 0.420963 0.912535 0.078958
H40   H     H_    0.540950 0.339689 0.993984 0.080072
H41   H     H_    0.631310 0.378536 0.120801 0.082348
H42   H     H_    0.279076 0.808306 0.290331 -0.135926
H43   H     H_    0.895670 0.480777 0.155608 0.170450
H44   H     H_    0.497084 0.538006 0.083942 0.071030
H45   H     H_    0.666301 0.614721 0.001416 0.096678
H46   H     H_    0.578515 0.576092 0.875260 0.100902
H47   H     H_    0.306397 0.479556 0.838666 0.120499
H48   H     H_    0.338562 0.031085 0.418885 0.087871
H49   H     H_    0.818568 0.265363 0.521156 0.053959
H50   H     H_    0.389969 0.723995 0.465226 0.052849
H51   H     H_    0.049369 0.914909 0.204467 0.133644
H52   H     H_    0.242386 0.978966 0.248687 0.068861
H53   H     H_    0.341498 0.741301 0.594827 -0.053265
H54   H     H_    0.142357 0.773310 0.575443 0.100200
O1    O     O_2   0.875110 0.423180 0.326290 -0.457842
O2    O     O_3   0.672659 0.804474 0.648534 -0.580553
O3    O     O_3   0.069848 0.864599 0.333486 -0.611980
O4    O     O_2   0.314600 0.576860 0.673750 -0.487816
O5    O     O_3   0.066300 0.567050 0.585060 -0.501260
O6    O     O_3   0.528700 0.375020 0.630330 -0.421199
O7    O     O_3   0.186275 0.748691 0.677916 -0.568196
O8    O     O_3   0.611760 0.365720 0.463870 -0.489599
O9    O     O_3   0.107460 0.315620 0.594570 -0.510564
O10   O     O_2   0.197714 0.125512 0.546417 -0.450778
O11   O     O_3   0.109958 0.151970 0.676110 -0.552240
O12   O     O_3   0.123410 0.433040 0.414950 -0.505331
O13   O     O_3   0.577950 0.634370 0.536140 -0.517844
O14   O     O_2   0.341900 0.231310 0.465740 -0.463124
O15   O     O_3   0.499965 0.193465 0.346272 -0.656344
O16   O     O_2   0.500393 0.499413 0.748590 -0.519430
O17   O     O_3   0.447464 0.299611 0.764025 -0.620765
O18   O     O_3   0.661010 0.625070 0.369680 -0.477872
O19   O     O_2   0.720044 0.531453 0.242860 -0.464507
O20   O     O_3   0.013918 0.251568 0.318860 -0.641278
O21   O     O_3   0.703154 0.738173 0.253144 -0.529532
O22   O     O_2   0.847800 0.768730 0.534310 -0.415505
O23   O     O_3   0.082250 0.684470 0.405440 -0.449449
O24   O     O_2   0.031373 0.878853 0.468085 -0.471646
P1    P     P_3+3 0.042930 0.392230 0.337410 0.986493
P2    P     P_3+3 0.672230 0.754900 0.555730 1.052138
P3    P     P_3+3 0.136019 0.824120 0.411361 0.977904
P4    P     P_3+3 0.146790 0.607860 0.662600 1.028102
P5    P     P_3+3 0.068065 0.178014 0.590698 1.049685
P6    P     P_3+3 0.621564 0.617428 0.278989 1.009434
P7    P     P_3+3 0.520078 0.230249 0.439494 0.940677
P8    P     P_3+3 0.567280 0.393971 0.722327 1.007232
Cl1   Cl    Cl    0.881010 0.761876 0.737439 -0.700238
Cl2   Cl    Cl    0.632838 0.162436 0.685421 -0.812405
Cl3   Cl    Cl    0.041943 0.698587 0.231822 -0.687669
Cl4   Cl    Cl    0.901177 0.961529 0.622215 -0.582109

loop_
_geom_bond_atom_site_label_1
_geom_bond_atom_site_label_2
_ccdc_geom_bond_type
C51   O2    S    
C26   H43   S    
C8    H31   S    
C24   H40   S    
C47   P5    S    
C34   H54   S    
C25   H41   S    
C23   H51   S    
C4    H21   S    
C1    H11   S    
C51   C52   S    
Ba2   O4    S    
C24   C25   A    
C31   C37   A    
C23   H23   S    
C49   O20   S    
C26   C27   A    
C33   C35   A    
C22   C24   A    
O14   P7    D    
C16   C17   A    
C3    H18   S    
O23   P3    S    
C50   H7    S    
C36   C37   A    
C51   H10   S    
C52   H14   S    
O7    P4    S    
C38   C47   A    
O15   P7    S    
C34   C45   S    
O12   P1    S    
C40   C44   A    
Ba1   O1    S    
Ba2   O8    S    
O18   P6    S    
O21   P6    S    
C9    H33   S    
C14   C15   A    
O5    P4    S    
C4    H20   S    
C15   P6    S    
O19   P6    D    
O6    P8    S    
O13   P2    S    
C33   H44   S    
C7    C8    S    
C11   C18   A    
O8    P7    S    
C18   C32   S    
C14   H35   S    
C34   H53   S    
C39   C41   A    
O22   P2    D    
Ba1   O5    S    
O4    P4    D    
Ba1   P1    S    
C40   H48   S    
C12   H42   S    
C2    H15   S    
Ba2   O9    S    
C48   Cl4   S    
C23   H52   S    
C37   H47   S    
C22   C28   A    
Ba2   O14   S    
O17   P8    S    
C42   P2    S    
C12   O3    S    
C44   C46   A    
C9    C18   A    
C20   C29   S    
C28   C32   A    
O1    P1    D    
C6    H27   S    
O11   P5    S    
C30   C33   A    
C5    O11   S    
C5    C6    S    
C1    H16   S    
Ba1   O18   S    
C36   H46   S    
Ba1   O22   S    
Ba2   O12   S    
C52   H13   S    
C43   C44   A    
C10   C19   A    
Ba2   P4    S    
C49   C50   S    
Ba1   O12   S    
C16   H36   S    
C17   C21   A    
C35   C36   A    
C45   H3    S    
C29   C30   A    
C9    C10   A    
C31   C32   A    
C15   C21   A    
C41   P3    S    
C1    H22   S    
C7    H29   S    
C5    H24   S    
Ba1   O8    S    
C11   C13   A    
C2    H1    S    
C39   C42   A    
C6    H28   S    
O2    P2    S    
C49   H5    S    
C40   C41   A    
Ba1   P2    S    
O10   P5    D    
C35   H45   S    
C42   C43   A    
C4    H19   S    
C5    H25   S    
C13   P8    S    
C19   H37   S    
Ba2   O13   S    
C38   C46   A    
C12   Cl3   S    
C8    H32   S    
C14   C20   A    
C46   P7    S    
C16   C20   A    
O16   P8    D    
O9    P5    S    
Ba1   O23   S    
C50   H9    S    
C7    Cl2   S    
C2    O21   S    
C52   H12   S    
C17   P1    S    
C3    O15   S    
C39   H50   S    
C30   C31   A    
C3    H17   S    
C50   H8    S    
O20   P1    S    
C38   H49   S    
Ba2   O6    S    
O3    P3    S    
C3    C4    S    
C43   C48   A    
O24   P3    D    
Ba1   Ba2   S    
C11   H34   S    
C8    H30   S    
Ba2   O5    S    
C51   Cl1   S    
C12   C23   S    
Ba1   O13   S    
C27   C28   A    
C7    O17   S    
C13   C19   A    
C27   C29   A    
C47   C48   A    
C10   P4    S    
C25   C26   A    
C6    H26   S    
C21   H38   S    
C49   H6    S    
C22   H39   S    
C34   O7    S    
C1    C2    S    
C45   H2    S    
C45   H4    S    
