data_mof_unit_9894.cif
_audit_creation_date              2012-12-10T20:30:16-0500
_audit_creation_method            fapswitch 2.2
_symmetry_space_group_name_H-M    P1
_symmetry_Int_Tables_number       1
_space_group_crystal_system       triclinic
_cell_length_a                    10.029159
_cell_length_b                    10.790625
_cell_length_c                    13.017206
_cell_angle_alpha                 89.926099
_cell_angle_beta                  68.552473
_cell_angle_gamma                 88.526946
_cell_volume                      1310.69974505

loop_
_atom_site_label
_atom_site_type_symbol
_atom_type_description
_atom_site_fract_x
_atom_site_fract_y
_atom_site_fract_z
_atom_type_partial_charge
C1    C     C_R   0.499142 0.739370 0.500158 0.898035
C2    C     C_R   0.433037 0.500981 0.986403 0.078626
C3    C     C_R   0.431525 0.447569 0.887869 0.005365
C4    C     C_R   0.532719 0.454791 0.032016 0.058231
C5    C     C_R   0.603111 0.338635 0.994574 0.019236
C6    C     C_R   0.578750 0.275029 0.909633 -0.151719
C7    C     C_R   0.492945 0.327271 0.857115 0.096136
C8    C     C_R   0.564265 0.520241 0.113786 0.036333
C9    C     C_R   0.700419 0.342031 0.140004 -0.012268
C10   C     C_R   0.361778 0.513251 0.827168 -0.203977
C11   C     C_R   0.463512 0.936622 0.420412 0.012958
C12   C     C_R   0.418161 0.502448 0.705491 0.836430
C13   C     C_R   0.504667 0.871352 0.496039 -0.149292
C14   C     C_R   0.578997 0.932263 0.552681 -0.336270
C15   C     C_R   0.590248 0.061088 0.547008 0.466588
C16   C     C_R   0.516253 0.127924 0.489818 -0.154336
C17   C     C_R   0.466735 0.063865 0.418476 -0.108811
C18   C     C_3   0.333740 0.075122 0.390812 0.447224
C19   C     C_3   0.327989 0.934472 0.399005 -0.092370
C20   C     C_R   0.888183 0.564433 0.578736 0.082975
C21   C     C_R   0.967143 0.432981 0.424668 0.425296
C22   C     C_R   0.111160 0.439033 0.420563 0.178406
C23   C     C_R   0.503578 0.260446 0.497259 0.858453
C24   C     C_R   0.032547 0.569994 0.575676 0.041716
C25   C     C_3   0.014414 0.710026 0.571567 0.414060
C26   C     C_3   0.855883 0.698395 0.594954 -0.171985
C27   C     C_R   0.581234 0.492959 0.295045 0.846522
C28   C     C_R   0.691466 0.285115 0.046056 0.118732
C29   C     C_R   0.630796 0.458092 0.177340 -0.153107
C30   C     C_R   0.260870 0.608823 0.880447 0.109360
C31   C     C_R   0.238038 0.642245 0.989239 0.154194
C32   C     C_R   0.326090 0.591058 0.040713 -0.237718
H1    H     H_    0.240771 0.901723 0.472292 0.180375
H2    H     H_    0.623291 0.182409 0.885009 0.186201
H3    H     H_    0.821885 0.742490 0.531424 0.198345
H4    H     H_    0.304064 0.618175 0.125271 0.181460
H5    H     H_    0.623105 0.880579 0.604543 0.164043
N1    N     N_R   0.856940 0.500860 0.500710 -0.164905
N2    N     N_R   0.142580 0.500820 0.500710 -0.115504
O1    O     O_R   0.385310 0.683210 0.499990 -0.592096
O2    O     O_R   0.614650 0.683240 0.500000 -0.619433
O3    O     O_R   0.328390 0.499940 0.653610 -0.625255
O4    O     O_R   0.557730 0.499980 0.653620 -0.572686
O5    O     O_R   0.385350 0.316760 0.500000 -0.621936
O6    O     O_R   0.614690 0.316790 0.500010 -0.595986
O7    O     O_R   0.442270 0.500020 0.346380 -0.585087
O8    O     O_R   0.671610 0.500060 0.346390 -0.625028
Zn1   Zn    Zn3+2 0.346870 0.499980 0.499990 0.962188
Zn2   Zn    Zn3+2 0.653130 0.500020 0.500010 0.968310
N3    N     N_3   0.779843 0.278868 0.196292 -0.456397
H6    H     H_    0.863729 0.335699 0.193135 0.250084
H7    H     H_    0.712231 0.263554 0.277611 0.185392
O9    O     O_3   0.666559 0.122046 0.600077 -0.760232
H8    H     H_    0.711164 0.060437 0.635156 0.325879
N4    N     N_3   0.210830 0.137758 0.475075 -0.434007
H9    H     H_    0.118800 0.117621 0.459056 0.202912
H10   H     H_    0.196926 0.102745 0.553256 0.157495
O10   O     O_3   0.357780 0.118523 0.283495 -0.779016
H11   H     H_    0.440116 0.174820 0.262186 0.329882
N5    N     N_3   0.344145 0.869518 0.296347 -0.400255
H12   H     H_    0.435321 0.899080 0.231833 0.222629
H13   H     H_    0.255059 0.892383 0.275860 0.230124
O11   O     O_3   0.942222 0.358913 0.348777 -0.812588
H14   H     H_    0.838483 0.350503 0.372953 0.382503
N6    N     N_3   0.226326 0.388595 0.327230 -0.402732
H15   H     H_    0.282140 0.325768 0.357382 0.251176
H16   H     H_    0.191029 0.339961 0.273157 0.244945
N7    N     N_3   0.048294 0.781766 0.653740 -0.479760
H17   H     H_    0.003551 0.741258 0.731081 0.160477
H18   H     H_    0.159032 0.779085 0.632264 0.209524
O12   O     O_3   0.086130 0.752308 0.463846 -0.762247
H19   H     H_    0.040194 0.833185 0.457519 0.317579
N8    N     N_3   0.757577 0.727447 0.707832 -0.447879
H20   H     H_    0.766747 0.820959 0.724392 0.189694
H21   H     H_    0.782098 0.673834 0.765963 0.196877
N9    N     N_3   0.765204 0.168704 0.006915 -0.468940
H22   H     H_    0.729014 0.103990 0.070358 0.209594
H23   H     H_    0.874701 0.180490 0.988280 0.208211
N10   N     N_3   0.537736 0.651614 0.127836 -0.473233
H24   H     H_    0.468582 0.669573 0.208642 0.220017
H25   H     H_    0.634810 0.693819 0.116276 0.185709
N11   N     N_3   0.182679 0.675030 0.824943 -0.440201
H26   H     H_    0.125278 0.610350 0.799341 0.193657
H27   H     H_    0.256571 0.717645 0.756321 0.175427
N12   N     N_3   0.129493 0.733313 0.045545 -0.431623
H28   H     H_    0.178773 0.806766 0.068752 0.190006
H29   H     H_    0.059322 0.693329 0.117632 0.190305
N13   N     N_3   0.449065 0.247437 0.788252 -0.432866
H30   H     H_    0.337162 0.250125 0.815508 0.174376
H31   H     H_    0.489912 0.278961 0.707820 0.241476

loop_
_geom_bond_atom_site_label_1
_geom_bond_atom_site_label_2
_ccdc_geom_bond_type
N4    H9    S    
C31   N12   S    
C27   C29   S    
N8    H20   S    
C4    C8    A    
C26   N8    S    
O8    Zn2   S    
N1    Zn2   S    
O9    H8    S    
C5    C6    A    
C11   C19   S    
C23   O6    A    
C8    C29   A    
C15   O9    S    
N5    H13   S    
N9    H23   S    
C12   O4    A    
C3    C7    A    
C30   C31   A    
C15   C16   A    
C24   N2    A    
C2    C32   A    
C18   C19   S    
C12   O3    A    
C1    O1    A    
C18   O10   S    
C21   N1    A    
C31   C32   A    
N7    H17   S    
N6    H16   S    
C8    N10   S    
N3    H7    S    
C25   O12   S    
C9    C29   A    
C21   C22   A    
N8    H21   S    
C25   N7    S    
O2    Zn2   S    
C17   C18   S    
N12   H29   S    
O7    Zn1   S    
C20   C24   A    
N9    H22   S    
C19   H1    S    
N10   H25   S    
O4    Zn2   S    
C25   C26   S    
N12   H28   S    
C23   O5    A    
C6    H2    S    
N5    H12   S    
C30   N11   S    
C2    C4    A    
C22   N6    S    
C5    C28   A    
C20   N1    A    
C10   C30   A    
C7    N13   S    
O6    Zn2   S    
N3    H6    S    
O3    Zn1   S    
C24   C25   S    
C10   C12   S    
C18   N4    S    
C27   O7    A    
C1    O2    A    
N13   H31   S    
N6    H15   S    
C16   C23   S    
N11   H27   S    
N4    H10   S    
N10   H24   S    
C1    C13   S    
C28   N9    S    
C32   H4    S    
C27   O8    A    
O1    Zn1   S    
C11   C17   A    
C9    N3    S    
C4    C5    A    
C6    C7    A    
C19   N5    S    
C2    C3    A    
O10   H11   S    
O12   H19   S    
C3    C10   A    
C14   H5    S    
C11   C13   A    
C16   C17   A    
C20   C26   S    
C22   N2    A    
C21   O11   S    
O11   H14   S    
C26   H3    S    
N13   H30   S    
N7    H18   S    
N11   H26   S    
C14   C15   A    
C13   C14   A    
O5    Zn1   S    
C9    C28   A    
N2    Zn1   S    
