data_mof_unit_29444.cif
_audit_creation_date              2012-10-26T19:04:43-0400
_audit_creation_method            fapswitch 2.2
_symmetry_space_group_name_H-M    P1
_symmetry_Int_Tables_number       1
_space_group_crystal_system       triclinic
_cell_length_a                    9.603544
_cell_length_b                    10.84059
_cell_length_c                    13.511657
_cell_angle_alpha                 92.666027
_cell_angle_beta                  72.251032
_cell_angle_gamma                 89.615752
_cell_volume                      1337.94429905

loop_
_atom_site_label
_atom_site_type_symbol
_atom_type_description
_atom_site_fract_x
_atom_site_fract_y
_atom_site_fract_z
_atom_type_partial_charge
C1    C     C_R   0.502010 0.737218 0.492750 0.572375
C2    C     C_R   0.374359 0.506271 0.813774 0.012736
C3    C     C_R   0.262290 0.890845 0.449709 0.418246
C4    C     C_R   0.421374 0.496831 0.699584 0.604795
C5    C     C_R   0.125788 0.950860 0.477739 0.341046
C6    C     C_R   0.102223 0.059571 0.540044 -0.133539
C7    C     C_R   0.218392 0.116881 0.562936 0.329502
C8    C     C_R   0.360909 0.064197 0.523919 -0.076251
C9    C     C_R   0.375900 0.940285 0.485351 -0.099700
C10   C     C_R   0.501397 0.871944 0.487778 -0.001865
C11   C     C_R   0.619209 0.934122 0.505754 -0.136542
C12   C     C_R   0.444955 0.520410 0.973271 -0.037808
C13   C     C_R   0.615656 0.061694 0.520011 0.079572
C14   C     C_R   0.488711 0.129058 0.523189 0.092403
C15   C     C_R   0.913912 0.329334 0.367303 -0.045453
C16   C     C_R   0.495622 0.263294 0.510275 0.615265
C17   C     C_R   0.011487 0.239634 0.306884 0.093215
C18   C     C_R   0.156543 0.239987 0.305846 0.076321
C19   C     C_R   0.201686 0.328868 0.366704 -0.046811
C20   C     C_R   0.103182 0.415828 0.434613 0.172000
C21   C     C_R   0.953845 0.416016 0.434667 0.132673
C22   C     C_R   0.898751 0.579829 0.562433 0.046636
C23   C     C_R   0.469116 0.470280 0.870546 -0.006492
C24   C     C_R   0.046634 0.579797 0.562408 0.058478
C25   C     C_R   0.578657 0.499877 0.299633 0.579867
C26   C     C_R   0.795502 0.429336 0.017230 -0.132941
C27   C     C_R   0.623163 0.493582 0.184333 0.062214
C28   C     C_R   0.247822 0.577380 0.863394 -0.145691
C29   C     C_R   0.223765 0.627102 0.964069 0.061891
C30   C     C_R   0.324174 0.602914 0.016761 -0.000637
C31   C     C_R   0.547654 0.492463 0.026309 -0.012314
C32   C     C_R   0.684639 0.436906 0.969763 -0.045524
C33   C     C_R   0.704942 0.382808 0.869540 0.109664
C34   C     C_R   0.590273 0.389044 0.825954 0.395121
C35   C     C_R   0.515290 0.511684 0.134768 0.335309
C36   C     C_R   0.766946 0.460601 0.123138 0.020552
Cu1   Cu    Cu3+1 0.359340 0.500010 0.500010 1.068953
Cu2   Cu    Cu3+1 0.640660 0.499990 0.499990 1.017385
F1    F     F_    0.285816 0.791876 0.380830 -0.541841
F2    F     F_    0.015290 0.901364 0.447213 -0.630155
F3    F     F_    0.188131 0.216687 0.631206 -0.607135
F4    F     F_    0.374402 0.533597 0.193765 -0.620830
F5    F     F_    0.595729 0.313257 0.741737 -0.619943
H1    H     H_    0.995199 0.102017 0.569527 0.146201
H2    H     H_    0.929107 0.361637 0.149500 0.243485
H3    H     H_    0.963210 0.512627 0.134315 0.265406
H4    H     H_    0.830399 0.097047 0.474820 0.257912
H5    H     H_    0.752331 0.087037 0.605259 0.252958
H6    H     H_    0.023698 0.153797 0.168196 0.261462
H7    H     H_    0.978695 0.061702 0.270338 0.296092
H8    H     H_    0.343038 0.198172 0.190046 0.245000
H9    H     H_    0.305276 0.101935 0.289244 0.234457
H10   H     H_    0.831600 0.269611 0.747514 0.299293
H11   H     H_    0.920531 0.380703 0.791365 0.235468
H12   H     H_    0.821229 0.645315 0.613643 0.113683
H13   H     H_    0.116139 0.787221 0.963479 0.243628
H14   H     H_    0.007488 0.667974 0.008871 0.232486
H15   H     H_    0.808365 0.327916 0.357587 0.207599
H16   H     H_    0.315391 0.325053 0.357007 0.170764
H17   H     H_    0.079451 0.645262 0.613536 0.101047
H18   H     H_    0.904009 0.394762 0.973627 0.163263
H19   H     H_    0.174548 0.604814 0.820777 0.122043
H20   H     H_    0.309743 0.656170 0.088717 0.240032
H21   H     H_    0.715177 0.883994 0.509758 0.196973
N1    N     N_R   0.852480 0.498790 0.499000 -0.236488
N2    N     N_R   0.148360 0.498710 0.498970 -0.210979
N3    N     N_3   0.882587 0.450240 0.168714 -0.593740
N4    N     N_3   0.738522 0.121445 0.537794 -0.558047
N5    N     N_3   0.960759 0.148984 0.246079 -0.623497
N6    N     N_3   0.259241 0.150666 0.241484 -0.600511
N7    N     N_3   0.838596 0.315731 0.815407 -0.580784
N8    N     N_3   0.103745 0.711436 0.010317 -0.606513
O1    O     O_R   0.381190 0.680360 0.500010 -0.451720
O2    O     O_R   0.618760 0.680340 0.500000 -0.521672
O3    O     O_R   0.323240 0.499990 0.650990 -0.504261
O4    O     O_R   0.560820 0.499960 0.650980 -0.467058
O5    O     O_R   0.381240 0.319660 0.500000 -0.502422
O6    O     O_R   0.618810 0.319640 0.499990 -0.483521
O7    O     O_R   0.439180 0.500040 0.349020 -0.438836
O8    O     O_R   0.676760 0.500010 0.349010 -0.503947

loop_
_geom_bond_atom_site_label_1
_geom_bond_atom_site_label_2
_ccdc_geom_bond_type
C18   N6    S    
C26   C32   A    
C25   O8    A    
C19   C20   A    
C36   N3    S    
C7    C8    A    
Cu2   O4    S    
C17   N5    S    
Cu1   O7    S    
C12   C23   A    
C29   C30   A    
C1    O2    A    
C22   C24   A    
C20   N2    A    
C28   C29   A    
C26   H18   S    
C18   C19   A    
C5    C6    A    
C16   O5    A    
C35   F4    S    
C4    O3    A    
H11   N7    S    
C8    C9    A    
H13   N8    S    
H2    N3    S    
H8    N6    S    
C9    C10   A    
C24   N2    A    
C29   N8    S    
C21   N1    A    
Cu1   O3    S    
C3    F1    S    
H6    N5    S    
C30   H20   S    
C17   C18   A    
C34   F5    S    
C11   H21   S    
Cu2   O6    S    
C27   C35   A    
Cu1   O5    S    
C2    C4    S    
C22   N1    A    
Cu1   Cu2   S    
C3    C9    A    
C31   C32   A    
Cu2   N1    S    
C24   H17   S    
C23   C34   A    
Cu1   N2    S    
C33   C34   A    
H5    N4    S    
C22   H12   S    
C26   C36   A    
C12   C31   A    
C15   H15   S    
C31   C35   A    
H10   N7    S    
H4    N4    S    
C6    H1    S    
C19   H16   S    
Cu2   O2    S    
C15   C17   A    
Cu1   O1    S    
C8    C14   A    
C12   C30   A    
C14   C16   S    
C25   O7    A    
H7    N5    S    
C1    C10   S    
C3    C5    A    
C6    C7    A    
C27   C36   A    
C25   C27   S    
C1    O1    A    
C32   C33   A    
H3    N3    S    
C11   C13   A    
Cu2   O8    S    
C16   O6    A    
C7    F3    S    
H14   N8    S    
C4    O4    A    
H9    N6    S    
C10   C11   A    
C33   N7    S    
C15   C21   A    
C20   C21   A    
C5    F2    S    
C2    C23   A    
C2    C28   A    
C13   C14   A    
C13   N4    S    
C28   H19   S    
