data_mof_unit_21397.cif
_audit_creation_date              2012-10-26T18:30:18-0400
_audit_creation_method            fapswitch 2.2
_symmetry_space_group_name_H-M    P1
_symmetry_Int_Tables_number       1
_space_group_crystal_system       triclinic
_cell_length_a                    10.709068
_cell_length_b                    13.019021
_cell_length_c                    11.679093
_cell_angle_alpha                 98.806344
_cell_angle_beta                  93.304034
_cell_angle_gamma                 92.469012
_cell_volume                      1604.22269691

loop_
_atom_site_label
_atom_site_type_symbol
_atom_type_description
_atom_site_fract_x
_atom_site_fract_y
_atom_site_fract_z
_atom_type_partial_charge
C1    C     C_R   0.495681 0.299234 0.479915 0.629231
C2    C     C_R   0.617064 0.581553 0.852893 0.564129
C3    C     C_R   0.562950 0.531485 0.153935 0.566451
C4    C     C_R   0.441584 0.462590 0.844538 0.555525
C5    C     C_R   0.550429 0.529071 0.032056 -0.152154
C6    C     C_R   0.451726 0.467499 0.966920 -0.153212
C7    C     C_R   0.259753 0.498722 0.500652 0.607442
C8    C     C_R   0.740544 0.501100 0.499523 0.616069
C9    C     C_3   0.051276 0.575729 0.582070 0.160327
C10   C     C_3   0.950126 0.422861 0.419390 0.158873
C11   C     C_3   0.963168 0.485370 0.604366 0.338719
C12   C     C_R   0.498737 0.701501 0.520383 0.603491
C13   C     C_3   0.038041 0.513530 0.397296 0.364989
C14   C     C_3   0.876742 0.501044 0.498612 -0.116510
C15   C     C_3   0.124139 0.497938 0.502571 -0.115401
C16   C     C_3   0.965177 0.591532 0.476828 0.157640
C17   C     C_3   0.036481 0.407266 0.524948 0.149920
C18   C     C_R   0.484217 0.815444 0.532482 -0.009296
C19   C     C_R   0.475577 0.186510 0.472380 0.005701
C20   C     C_R   0.372767 0.025086 0.372330 0.243754
C21   C     C_R   0.480363 0.981045 0.662183 0.236460
C22   C     C_R   0.397742 0.131813 0.379763 0.398417
C23   C     C_R   0.516248 0.135821 0.565802 0.205772
C24   C     C_R   0.485583 0.873082 0.645703 0.392796
C25   C     C_R   0.458253 0.867462 0.435260 0.159052
C26   C     C_R   0.474236 0.031593 0.564043 -0.124514
C27   C     C_R   0.430521 0.973027 0.456763 -0.132468
C28   C     C_R   0.367098 0.412269 0.025958 0.472330
C29   C     C_R   0.633301 0.586609 0.973654 0.476131
C30   C     C_R   0.380681 0.420678 0.147352 0.556643
Cu1   Cu    Cu3+1 0.509400 0.507730 0.615930 1.308678
Cu2   Cu    Cu3+1 0.490600 0.492270 0.384070 1.316940
F1    F     F_    0.924804 0.472450 0.712569 -0.496124
F2    F     F_    0.728477 0.648781 0.032462 -0.442328
F3    F     F_    0.077275 0.528154 0.289857 -0.460728
F4    F     F_    0.495513 0.825543 0.741427 -0.502105
F5    F     F_    0.343236 0.182501 0.298122 -0.472598
F6    F     F_    0.351205 0.400107 0.779318 -0.472097
F7    F     F_    0.663117 0.582564 0.216316 -0.450929
F8    F     F_    0.696113 0.639145 0.798422 -0.471072
F9    F     F_    0.297877 0.367010 0.202243 -0.447241
F10   F     F_    0.270742 0.351256 0.967538 -0.429353
H1    H     H_    0.048332 0.805107 0.805082 0.389141
H2    H     H_    0.959320 0.196343 0.193886 0.403934
H3    H     H_    0.917912 0.767452 0.273942 0.395939
H4    H     H_    0.000786 0.132404 0.557138 0.375229
H5    H     H_    0.705058 0.836636 0.333641 0.366193
H6    H     H_    0.803868 0.297148 0.654240 0.418906
H7    H     H_    0.100414 0.037272 0.373989 0.358004
H8    H     H_    0.273727 0.955309 0.809764 0.357570
N1    N     N_R   0.523540 0.519360 0.790140 -0.294516
N2    N     N_R   0.476460 0.480640 0.209860 -0.299975
O1    O     O_R   0.506670 0.354460 0.582000 -0.455157
O2    O     O_2   0.215558 0.739348 0.647033 -0.282237
O3    O     O_3   0.004414 0.749787 0.747266 -0.372043
O4    O     O_2   0.787132 0.258526 0.350175 -0.228568
O5    O     O_2   0.828588 0.375294 0.209020 -0.163507
O6    O     O_3   0.001182 0.250113 0.254810 -0.342555
O7    O     O_2   0.813171 0.750718 0.505885 -0.239375
O8    O     O_2   0.032744 0.792116 0.473954 -0.222112
O9    O     O_3   0.889988 0.700419 0.296882 -0.331428
O10   O     O_2   0.201980 0.257876 0.501393 -0.257788
O11   O     O_2   0.113524 0.298310 0.690989 -0.100607
O12   O     O_R   0.493330 0.645540 0.418000 -0.451525
O13   O     O_3   0.973362 0.192144 0.520453 -0.442233
O14   O     O_2   0.416787 0.732163 0.234368 -0.173924
O15   O     O_2   0.516977 0.901161 0.218306 -0.190806
O16   O     O_3   0.649244 0.773242 0.310774 -0.379963
O17   O     O_2   0.603604 0.255293 0.767137 -0.194650
O18   O     O_2   0.722853 0.103776 0.697808 -0.199247
O19   O     O_3   0.740254 0.264286 0.593342 -0.480271
O20   O     O_2   0.282297 0.959984 0.152305 -0.072896
O21   O     O_2   0.211595 0.857950 0.298728 -0.211956
O22   O     O_3   0.121934 0.038827 0.292915 -0.400316
O23   O     O_R   0.490800 0.341410 0.386200 -0.436620
O24   O     O_2   0.565325 0.067551 0.877978 -0.093917
O25   O     O_2   0.384285 0.145275 0.792616 -0.172584
O26   O     O_3   0.349751 0.967917 0.863492 -0.362351
O27   O     O_R   0.509200 0.658590 0.613800 -0.415765
O28   O     O_R   0.324790 0.506500 0.597880 -0.449656
O29   O     O_R   0.675210 0.493500 0.402120 -0.439012
O30   O     O_R   0.308910 0.493440 0.402080 -0.425560
O31   O     O_R   0.691090 0.506560 0.597920 -0.434432
O32   O     O_2   0.177400 0.624043 0.790483 -0.152203
S1    S     S_3+6 0.117984 0.674278 0.694824 0.169348
S2    S     S_3+6 0.885861 0.324601 0.305285 0.185079
S3    S     S_3+6 0.924130 0.714160 0.440925 0.150808
S4    S     S_3+6 0.085875 0.286622 0.561921 0.141884
S5    S     S_3+6 0.506505 0.818247 0.294259 0.137088
S6    S     S_3+6 0.647322 0.189368 0.661382 0.122548
S7    S     S_3+6 0.246932 0.965517 0.275656 0.193141
S8    S     S_3+6 0.446550 0.045235 0.801564 0.207595

loop_
_geom_bond_atom_site_label_1
_geom_bond_atom_site_label_2
_ccdc_geom_bond_type
C21   C26   A    
O25   S8    D    
O11   S4    D    
C8    O31   A    
Cu2   O23   S    
Cu1   O28   S    
Cu2   O29   S    
C26   C27   A    
C24   F4    S    
C2    C29   A    
C18   C24   A    
C9    C16   S    
C13   F3    S    
C5    C6    A    
C12   O12   A    
C11   C14   S    
C10   C17   S    
C17   S4    S    
C12   O27   A    
O6    S2    S    
O15   S5    D    
Cu1   O31   S    
O5    S2    D    
C23   C26   A    
C28   F10   S    
C1    O1    A    
Cu2   N2    S    
O9    S3    S    
C9    S1    S    
C6    C28   A    
H2    O6    S    
C16   S3    S    
C30   F9    S    
C7    C15   S    
C3    F7    S    
O18   S6    D    
C18   C25   A    
H8    O26   S    
O8    S3    D    
O14   S5    D    
C5    C29   A    
C20   S7    S    
C1    C19   S    
C4    N1    A    
C8    O29   A    
C1    O23   A    
C11   F1    S    
C19   C22   A    
O32   S1    D    
O21   S7    D    
H4    O13   S    
C4    C6    A    
C10   C14   S    
O20   S7    D    
O26   S8    S    
C22   F5    S    
O10   S4    D    
C29   F2    S    
O22   S7    S    
O3    S1    S    
C19   C23   A    
O4    S2    D    
Cu1   Cu2   S    
O16   S5    S    
C23   S6    S    
Cu1   O1    S    
C9    C11   S    
Cu2   O12   S    
O24   S8    D    
H1    O3    S    
C20   C22   A    
C13   C15   S    
C14   C16   S    
C21   C24   A    
H6    O19   S    
O17   S6    D    
H5    O16   S    
O13   S4    S    
C15   C17   S    
C30   N2    A    
C10   S2    S    
C8    C14   S    
Cu1   N1    S    
C3    C5    A    
C10   C13   S    
C11   C17   S    
O2    S1    D    
C3    N2    A    
Cu1   O27   S    
C20   C27   A    
C25   C27   A    
Cu2   O30   S    
C25   S5    S    
C28   C30   A    
C9    C15   S    
O19   S6    S    
H3    O9    S    
O7    S3    D    
C2    N1    A    
C2    F8    S    
C7    O30   A    
C13   C16   S    
C12   C18   S    
H7    O22   S    
C4    F6    S    
C7    O28   A    
C21   S8    S    
