data_mof_unit_33743.cif
_audit_creation_date              2013-03-05T16:34:52-0500
_audit_creation_method            fapswitch 2.2
_symmetry_space_group_name_H-M    P1
_symmetry_Int_Tables_number       1
_space_group_crystal_system       triclinic
_cell_length_a                    15.065967
_cell_length_b                    9.083548
_cell_length_c                    7.794629
_cell_angle_alpha                 90.055271
_cell_angle_beta                  89.999979
_cell_angle_gamma                 90.0
_cell_volume                      1066.71345765

loop_
_atom_site_label
_atom_site_type_symbol
_atom_site_description
_atom_site_fract_x
_atom_site_fract_y
_atom_site_fract_z
_atom_type_partial_charge
O1    O     O_R   0.500000 0.288390 0.642760 -0.561512
O2    O     O_R   0.500000 0.711610 0.357240 -0.561512
O3    O     O_R   0.500000 0.711610 0.642760 -0.580711
O4    O     O_R   0.500000 0.288390 0.357240 -0.580711
H1    H     H_    0.921124 0.142839 0.628510 0.202647
H2    H     H_    0.078877 0.857163 0.371498 0.202648
H3    H     H_    0.921124 0.857161 0.371489 0.202647
H4    H     H_    0.078877 0.142837 0.628502 0.202648
C1    C     C_R   0.500000 0.220071 0.499940 0.891206
C2    C     C_R   0.500000 0.779928 0.500060 0.891206
O5    O     O_R   0.370260 0.500000 0.642800 -0.564959
O6    O     O_R   0.629740 0.500000 0.357200 -0.564956
O7    O     O_R   0.629740 0.500000 0.642800 -0.564956
O8    O     O_R   0.370260 0.500000 0.357200 -0.564959
C3    C     C_R   0.328680 0.500000 0.500000 0.913768
C4    C     C_R   0.671320 0.500000 0.500000 0.913763
Cu1   Cu    Cu3+1 0.500000 0.500000 0.669080 1.095200
Cu2   Cu    Cu3+1 0.500000 0.500000 0.330920 1.095200
N1    N     N_1   0.500000 0.500000 0.076820 -0.022636
N2    N     N_1   0.500000 0.500000 0.923180 -0.022636
C5    C     C_R   0.813048 0.628389 0.451987 0.160644
C6    C     C_R   0.186953 0.371607 0.547999 0.160643
C7    C     C_R   0.813048 0.371611 0.548013 0.160644
C8    C     C_R   0.186952 0.628393 0.452002 0.160643
C9    C     C_R   0.767518 0.500000 0.500000 -0.166164
C10   C     C_R   0.232482 0.500000 0.500000 -0.166165
C11   C     C_R   0.906283 0.370889 0.547289 0.062648
C12   C     C_R   0.093717 0.629113 0.452718 0.062648
C13   C     C_R   0.906283 0.629111 0.452711 0.062648
C14   C     C_R   0.093717 0.370887 0.547282 0.062648
C15   C     C_R   0.953060 0.500000 0.500000 0.010742
C16   C     C_R   0.046940 0.500000 0.500000 0.010741
C17   C     C_R   0.953975 0.243985 0.592472 -0.150230
C18   C     C_R   0.046025 0.756017 0.407533 -0.150230
C19   C     C_R   0.953975 0.756015 0.407528 -0.150230
C20   C     C_R   0.046025 0.243983 0.592467 -0.150230
C21   C     C_1   0.500000 0.065395 0.499917 -0.057544
C22   C     C_1   0.500000 0.934604 0.500082 -0.057545
Br1   Br    Br    0.745973 0.802471 0.389626 -0.471926
Br2   Br    Br    0.254028 0.197517 0.610329 -0.471922
Br3   Br    Br    0.745973 0.197529 0.610373 -0.471926
Br4   Br    Br    0.254028 0.802483 0.389671 -0.471922

loop_
_geom_bond_atom_site_label_1
_geom_bond_atom_site_label_2
_geom_bond_distance
_ccdc_geom_bond_type
C21   C22   1.188047 T    
O7    Cu1   1.965363 S    
O2    Cu2   1.932890 S    
C8    Br4   1.938922 S    
C13   C19   1.403533 A    
O1    Cu1   1.932891 S    
N1    N2    1.197568 T    
C7    Br3   1.938921 S    
C14   C20   1.403532 A    
C2    C22   1.405007 S    
C6    Br2   1.938923 S    
Cu1   N2    1.980614 S    
O5    C3    1.277250 A    
C1    C21   1.405007 S    
Cu1   Cu2   2.635833 S    
C12   C18   1.403532 A    
C13   C15   1.417321 A    
O3    C2    1.274223 A    
C11   C17   1.403532 A    
C14   C16   1.417323 A    
H3    C19   1.080968 S    
C8    C10   1.404110 A    
O3    Cu1   1.933284 S    
C7    C11   1.404708 A    
C7    C9    1.404108 A    
H4    C20   1.080970 S    
C18   C19   1.386816 A    
C11   C15   1.417322 A    
O2    C2    1.273992 A    
O6    C4    1.277250 A    
C12   C16   1.417323 A    
C17   C20   1.386818 A    
O1    C1    1.273992 A    
C8    C12   1.404708 A    
Cu2   N1    1.980614 S    
C6    C10   1.404109 A    
O7    C4    1.277251 A    
O6    Cu2   1.965363 S    
C4    C9    1.449305 S    
O8    Cu2   1.965364 S    
O8    C3    1.277250 A    
O5    Cu1   1.965364 S    
C3    C10   1.449304 S    
C5    C9    1.404107 A    
C6    C14   1.404708 A    
O4    C1    1.274223 A    
C5    C13   1.404708 A    
O4    Cu2   1.933285 S    
C15   C16   1.414385 A    
H2    C18   1.080970 S    
H1    C17   1.080968 S    
C5    Br1   1.938920 S    
