data_mof_unit_9330.cif
_audit_creation_date              2012-12-10T16:32:38-0500
_audit_creation_method            fapswitch 2.2
_symmetry_space_group_name_H-M    P1
_symmetry_Int_Tables_number       1
_space_group_crystal_system       triclinic
_cell_length_a                    16.913886
_cell_length_b                    16.927728
_cell_length_c                    16.899679
_cell_angle_alpha                 65.638283
_cell_angle_beta                  65.564032
_cell_angle_gamma                 65.530936
_cell_volume                      3835.99672629

loop_
_atom_site_label
_atom_site_type_symbol
_atom_type_description
_atom_site_fract_x
_atom_site_fract_y
_atom_site_fract_z
_atom_type_partial_charge
C1    C     C_R   0.589919 0.019046 0.598826 -0.103986
C2    C     C_R   0.821048 0.561907 0.038132 0.913906
C3    C     C_R   0.436757 0.964652 0.178931 0.915271
C4    C     C_R   0.561798 0.038199 0.821065 0.919188
C5    C     C_R   0.568530 0.823148 0.022603 0.926121
C6    C     C_R   0.437031 0.178800 0.963991 0.902878
C7    C     C_R   0.035428 0.563062 0.821150 0.920258
C8    C     C_R   0.965229 0.436605 0.178863 0.902746
C9    C     C_R   0.823113 0.022610 0.568541 0.922110
C10   C     C_R   0.178868 0.963731 0.437126 0.906563
C11   C     C_R   0.542732 0.999254 0.555240 0.157854
C12   C     C_R   0.416144 0.943861 0.417934 -0.119358
C13   C     C_R   0.461316 0.961388 0.465235 0.141864
C14   C     C_R   0.019727 0.541061 0.543383 0.127609
C15   C     C_R   0.975811 0.458581 0.459425 0.136611
C16   C     C_R   0.554928 0.542658 0.999870 0.161768
C17   C     C_R   0.464854 0.461100 0.962252 0.141717
C18   C     C_R   0.550125 0.909108 0.568527 -0.082047
C19   C     C_R   0.453313 0.051408 0.452690 -0.023879
C20   C     C_R   0.088956 0.489094 0.487295 -0.145302
C21   C     C_R   0.906553 0.510448 0.515622 -0.146081
C22   C     C_R   0.568073 0.549876 0.909648 -0.096131
C23   C     C_R   0.041349 0.586105 0.587591 -0.121265
C24   C     C_R   0.452358 0.453350 0.052350 -0.024715
C25   C     C_R   0.509543 0.890220 0.523700 -0.147128
C26   C     C_R   0.493872 0.070252 0.497320 -0.082476
C27   C     C_R   0.523246 0.509222 0.890891 -0.143635
C28   C     C_R   0.497020 0.493961 0.071068 -0.076385
C29   C     C_R   0.067055 0.447888 0.445663 -0.020821
C30   C     C_R   0.928472 0.551424 0.557505 -0.015258
C31   C     C_R   0.542079 0.049634 0.676681 -0.035063
C32   C     C_R   0.458722 0.941366 0.327230 -0.049185
C33   C     C_R   0.045569 0.675772 0.544669 -0.034835
C34   C     C_R   0.954488 0.413965 0.414565 -0.120377
C35   C     C_R   0.947964 0.324981 0.457764 -0.052026
C36   C     C_R   0.676539 0.542257 0.049877 -0.049206
C37   C     C_R   0.327067 0.458419 0.941950 -0.050434
C38   C     C_R   0.326560 0.938654 0.460307 -0.044245
C39   C     C_R   0.684776 0.003026 0.565099 -0.054717
C40   C     C_R   0.460016 0.326250 0.939573 -0.045365
C41   C     C_R   0.564919 0.684699 0.003394 -0.053204
C42   C     C_R   0.947960 0.457289 0.325500 -0.044806
C43   C     C_R   0.051585 0.542127 0.675296 -0.053728
C44   C     C_R   0.592700 0.054522 0.723453 -0.111880
C45   C     C_R   0.598603 0.589918 0.019491 -0.107986
C46   C     C_R   0.406499 0.944510 0.277169 -0.120650
C47   C     C_R   0.049731 0.723731 0.594808 -0.122140
C48   C     C_R   0.947027 0.276561 0.406233 -0.120268
C49   C     C_R   0.723414 0.592921 0.054446 -0.114755
C50   C     C_R   0.277144 0.406306 0.944786 -0.117928
C51   C     C_R   0.276962 0.942982 0.407122 -0.121326
C52   C     C_R   0.728234 0.027258 0.604735 -0.129990
C53   C     C_R   0.407008 0.276780 0.943471 -0.121815
C54   C     C_R   0.604680 0.728294 0.027301 -0.130742
C55   C     C_R   0.947151 0.406052 0.276712 -0.119372
C56   C     C_R   0.417614 0.415806 0.944789 -0.120131
C57   C     C_R   0.053182 0.593522 0.723408 -0.114057
C58   C     C_R   0.681326 0.054035 0.682024 -0.241491
C59   C     C_R   0.318654 0.941250 0.318766 -0.250594
C60   C     C_R   0.056966 0.681013 0.681240 -0.237338
C61   C     C_R   0.942656 0.318762 0.318786 -0.246372
C62   C     C_R   0.682048 0.681543 0.053814 -0.240603
C63   C     C_R   0.318792 0.318526 0.941448 -0.234814
C64   C     C_2   0.440964 0.074976 0.709545 0.952267
C65   C     C_2   0.558064 0.929817 0.287995 0.950860
C66   C     C_2   0.049145 0.716020 0.447134 0.975376
C67   C     C_R   0.965039 0.178852 0.436673 0.914737
C68   C     C_2   0.937418 0.285755 0.556965 0.957700
C69   C     C_2   0.709269 0.441263 0.075532 0.945217
C70   C     C_2   0.287897 0.557684 0.930311 0.951598
C71   C     C_2   0.287529 0.925153 0.560030 0.952239
C72   C     C_2   0.736947 0.958153 0.491609 0.934933
C73   C     C_2   0.559643 0.287162 0.926417 0.954079
C74   C     C_2   0.491271 0.736618 0.958834 0.935014
C75   C     C_2   0.937506 0.556287 0.286833 0.957067
C76   C     C_2   0.065436 0.442447 0.713510 0.958824
C77   C     C_R   0.033403 0.821201 0.563971 0.910029
C78   C     C_R   0.178929 0.436658 0.964756 0.914774
H1    H     H_    0.487989 0.139971 0.486176 0.135239
H2    H     H_    0.612445 0.587608 0.854015 0.138070
H3    H     H_    0.836003 0.519004 0.526892 0.143547
H4    H     H_    0.159508 0.480656 0.475890 0.145447
H5    H     H_    0.716355 0.066343 0.715070 0.204169
H6    H     H_    0.279751 0.944431 0.279563 0.200458
H7    H     H_    0.058780 0.718701 0.718800 0.202899
H8    H     H_    0.942476 0.280744 0.280582 0.200727
H9    H     H_    0.715156 0.716644 0.065880 0.203209
H10   H     H_    0.279715 0.279749 0.944312 0.202360
H11   H     H_    0.326646 0.045825 0.736141 0.348780
H12   H     H_    0.515676 0.820560 0.534359 0.146484
H13   H     H_    0.680809 0.856518 0.226686 0.349415
H14   H     H_    0.987523 0.754923 0.351698 0.345388
H15   H     H_    0.862778 0.228190 0.680694 0.352657
H16   H     H_    0.735272 0.326695 0.047103 0.352642
H17   H     H_    0.227031 0.680174 0.856685 0.349442
H18   H     H_    0.257102 0.968883 0.666530 0.350884
H19   H     H_    0.755071 0.959370 0.365460 0.359348
H20   H     H_    0.665563 0.256422 0.971003 0.352239
H21   H     H_    0.364961 0.754650 0.960800 0.359913
H22   H     H_    0.987658 0.658818 0.253582 0.346732
H23   H     H_    0.874446 0.591562 0.600741 0.144182
H24   H     H_    0.142805 0.320433 0.770593 0.352263
H25   H     H_    0.121102 0.407740 0.402449 0.136719
H26   H     H_    0.485914 0.488231 0.140853 0.134674
H27   H     H_    0.533858 0.515222 0.821161 0.146256
H28   H     H_    0.415703 0.106942 0.408080 0.132966
H29   H     H_    0.587936 0.853657 0.612991 0.146919
H30   H     H_    0.407786 0.415868 0.108052 0.133065
O1    O     O_R   0.982940 0.138950 0.510160 -0.609498
O2    O     O_R   0.982940 0.510160 0.138950 -0.613681
O3    O     O_R   0.861050 0.017060 0.489840 -0.612265
O4    O     O_R   0.138950 0.982940 0.510160 -0.612153
O5    O     O_R   0.867700 0.025880 0.612340 -0.624089
O6    O     O_R   0.132300 0.974120 0.387660 -0.624776
O7    O     O_R   0.025880 0.612340 0.867700 -0.622168
O8    O     O_R   0.974120 0.387660 0.132300 -0.622813
O9    O     O_R   0.612340 0.867700 0.025880 -0.622811
O10   O     O_R   0.387660 0.132300 0.974120 -0.624987
O11   O     O_R   0.387660 0.974120 0.132300 -0.632037
O12   O     O_R   0.017060 0.861050 0.489840 -0.599473
O13   O     O_R   0.612340 0.025880 0.867700 -0.625825
O14   O     O_R   0.132300 0.387660 0.974120 -0.624899
O15   O     O_R   0.867700 0.612340 0.025880 -0.620976
O16   O     O_R   0.974120 0.132300 0.387660 -0.631065
O17   O     O_R   0.025880 0.867700 0.612340 -0.626026
O18   O     O_2   0.397975 0.143101 0.734843 -0.616281
O19   O     O_R   0.395046 0.021032 0.712569 -0.774401
O20   O     O_2   0.590149 0.982947 0.287376 -0.613603
O21   O     O_R   0.614717 0.857529 0.251613 -0.776138
O22   O     O_2   0.115838 0.738897 0.391021 -0.612785
O23   O     O_R   0.138950 0.510160 0.982940 -0.612273
O24   O     O_R   0.976792 0.727142 0.419715 -0.769158
O25   O     O_2   0.993509 0.281407 0.587774 -0.600101
O26   O     O_R   0.862798 0.253565 0.614861 -0.774899
O27   O     O_2   0.734801 0.398686 0.143540 -0.613223
O28   O     O_R   0.711819 0.394969 0.022080 -0.785559
O29   O     O_2   0.286973 0.589902 0.983604 -0.612546
O30   O     O_R   0.251950 0.614111 0.857740 -0.774980
O31   O     O_2   0.257871 0.860510 0.608631 -0.611127
O32   O     O_R   0.284751 0.985892 0.598125 -0.786532
O33   O     O_2   0.797340 0.886618 0.503906 -0.604250
O34   O     O_R   0.861050 0.489840 0.017060 -0.613174
O35   O     O_R   0.715717 0.996873 0.409414 -0.770729
O36   O     O_2   0.608674 0.257736 0.861479 -0.610179
O37   O     O_R   0.597158 0.284097 0.987811 -0.786893
O38   O     O_2   0.503464 0.796666 0.887063 -0.614539
O39   O     O_R   0.409039 0.715521 0.998125 -0.769073
O40   O     O_2   0.871155 0.607744 0.260710 -0.610327
O41   O     O_R   0.002920 0.590484 0.280612 -0.793228
O42   O     O_2   0.011711 0.409273 0.716997 -0.600531
O43   O     O_R   0.140449 0.386804 0.745894 -0.774855
O44   O     O_R   0.510160 0.982940 0.138950 -0.608115
O45   O     O_R   0.489840 0.017060 0.861050 -0.598867
O46   O     O_R   0.489840 0.861050 0.017060 -0.610972
O47   O     O_R   0.510160 0.138950 0.982940 -0.614287
O48   O     O_R   0.017060 0.489840 0.861050 -0.614132
Zn1   Zn    Zn3+2 0.004880 0.004880 0.583590 1.042156
Zn2   Zn    Zn3+2 0.995120 0.995120 0.416410 1.047916
Zn3   Zn    Zn3+2 0.004880 0.583590 0.004880 1.041196
Zn4   Zn    Zn3+2 0.995120 0.416410 0.995120 1.039961
Zn5   Zn    Zn3+2 0.583590 0.004880 0.004880 1.041177
Zn6   Zn    Zn3+2 0.416410 0.995120 0.995120 1.046531

loop_
_geom_bond_atom_site_label_1
_geom_bond_atom_site_label_2
_ccdc_geom_bond_type
C16   C28   A    
C72   O35   S    
C11   C18   A    
C9    O3    A    
C20   H4    S    
C63   H10   S    
C34   C42   A    
C77   O12   A    
O1    Zn1   S    
C67   O16   A    
C2    O15   A    
O47   Zn5   S    
C5    C54   S    
C18   C25   A    
C29   H25   S    
C3    O44   A    
C68   O25   D    
H14   O24   S    
O3    Zn2   S    
O8    Zn4   S    
C46   C59   A    
O17   Zn1   S    
C35   C48   A    
C5    O46   A    
C1    C31   A    
C23   C43   A    
C40   C73   S    
O11   Zn6   S    
C34   C35   A    
C7    O7    A    
C19   C26   A    
C18   H29   S    
H19   O35   S    
C41   C74   S    
C37   C56   A    
C67   O1    A    
O6    Zn2   S    
C7    O48   A    
C44   C58   A    
C23   C33   A    
O16   Zn2   S    
H16   O28   S    
C39   C72   S    
C10   O4    A    
C24   H30   S    
C24   C28   A    
C15   C34   S    
C6    O47   A    
C10   O6    A    
H24   O43   S    
C39   C52   A    
C47   C60   A    
C69   O27   D    
C37   C70   S    
C12   C32   A    
O12   Zn2   S    
C50   C63   A    
C13   C25   A    
C9    C52   S    
C14   C30   A    
C10   C51   S    
C50   C78   S    
C8    C55   S    
O46   Zn6   S    
C33   C66   S    
C15   C29   A    
C66   O24   S    
C20   C29   A    
C72   O33   D    
C17   C24   A    
O4    Zn1   S    
C13   C19   A    
C62   H9    S    
C17   C27   A    
C65   O20   D    
C14   C20   A    
C74   O39   S    
O48   Zn4   S    
C59   H6    S    
H15   O26   S    
C31   C44   A    
C1    C39   A    
C57   C60   A    
C71   O31   D    
C38   C51   A    
C4    C44   S    
C11   C26   A    
C40   C56   A    
O7    Zn3   S    
C14   C23   S    
C78   O23   A    
C73   O37   S    
C2    C49   S    
C8    O2    A    
C42   C55   A    
C28   H26   S    
C76   O42   D    
C60   H7    S    
C64   O19   S    
O13   Zn5   S    
C42   C75   S    
C43   C57   A    
C36   C45   A    
O23   Zn3   S    
C17   C56   S    
C52   C58   A    
C27   H27   S    
C21   H3    S    
C70   O30   S    
C69   O28   S    
C64   O18   D    
C22   C27   A    
C2    O34   A    
C51   C59   A    
C47   C77   S    
C6    C53   S    
C77   O17   A    
C36   C69   S    
H11   O19   S    
C43   C76   S    
H21   O39   S    
C38   C71   S    
O10   Zn6   S    
H17   O30   S    
C16   C22   A    
C49   C62   A    
C32   C46   A    
C31   C64   S    
C74   O38   D    
C25   H12   S    
O44   Zn5   S    
O34   Zn4   S    
C16   C45   S    
H18   O32   S    
C65   O21   S    
C3    O11   A    
C71   O32   S    
H13   O21   S    
H20   O37   S    
H22   O41   S    
C54   C62   A    
C21   C30   A    
C3    C46   S    
C26   H1    S    
C76   O43   S    
O45   Zn6   S    
O9    Zn5   S    
C68   O26   S    
C9    O5    A    
C41   C45   A    
C58   H5    S    
C37   C50   A    
C53   C63   A    
C48   C61   A    
O15   Zn3   S    
C35   C68   S    
C75   O41   S    
C33   C47   A    
C55   C61   A    
C75   O40   D    
C30   H23   S    
C4    O13   A    
C4    O45   A    
C48   C67   S    
C12   C38   A    
C78   O14   A    
C41   C54   A    
C61   H8    S    
C8    O8    A    
C22   H2    S    
O2    Zn3   S    
C19   H28   S    
C15   C21   A    
C12   C13   S    
C70   O29   D    
C40   C53   A    
C5    O9    A    
O14   Zn4   S    
C1    C11   S    
O5    Zn1   S    
C7    C57   S    
C36   C49   A    
C6    O10   A    
C32   C65   S    
C66   O22   D    
C73   O36   D    
