data_mof_unit_41485.cif
_audit_creation_date              2013-03-05T15:58:06-0500
_audit_creation_method            fapswitch 2.2
_symmetry_space_group_name_H-M    P1
_symmetry_Int_Tables_number       1
_space_group_crystal_system       triclinic
_cell_length_a                    14.994869
_cell_length_b                    14.00187
_cell_length_c                    11.008051
_cell_angle_alpha                 90.123858
_cell_angle_beta                  90.45383
_cell_angle_gamma                 88.699339
_cell_volume                      2310.53611564

loop_
_atom_site_label
_atom_site_type_symbol
_atom_site_description
_atom_site_fract_x
_atom_site_fract_y
_atom_site_fract_z
_atom_type_partial_charge
O1    O     O_R   0.370250 0.582280 0.500040 -0.578054
O2    O     O_R   0.370250 0.417720 0.500040 -0.512458
C1    C     C_R   0.328811 0.501420 0.497378 0.875693
O3    O     O_R   0.499970 0.582270 0.317700 -0.572877
O4    O     O_R   0.499970 0.417730 0.317700 -0.582287
C2    C     C_R   0.498811 0.500060 0.261212 0.984790
Cu1   Cu    Cu3+1 0.499990 0.597420 0.500010 1.125640
Cu2   Cu    Cu3+1 0.499990 0.402580 0.500010 1.149032
O5    O     O_R   0.629730 0.582260 0.499980 -0.539613
O6    O     O_R   0.629730 0.417740 0.499980 -0.534492
O7    O     O_R   0.500000 0.582270 0.682320 -0.528892
O8    O     O_R   0.500000 0.417730 0.682320 -0.502992
C3    C     C_R   0.671246 0.499081 0.497446 0.862442
C4    C     C_R   0.501031 0.500081 0.740803 0.944416
C5    C     C_3   0.461641 0.598259 0.078359 0.093793
C6    C     C_3   0.440168 0.418861 0.075184 0.117228
H1    H     H_    0.504456 0.654147 0.116501 0.161482
H2    H     H_    0.462536 0.352068 0.121819 0.190993
C7    C     C_3   0.459207 0.601260 0.935253 0.361013
C8    C     C_3   0.449015 0.406226 0.932960 0.397974
C9    C     C_3   0.598644 0.485139 0.080621 0.434637
C10   C     C_3   0.499721 0.500772 0.124366 -0.200471
C11   C     C_3   0.502654 0.499393 0.881309 -0.525939
C12   C     C_3   0.605618 0.489231 0.933794 0.357608
C13   C     C_R   0.811558 0.489865 0.378016 -0.121992
C14   C     C_R   0.768776 0.498914 0.490383 -0.077674
C15   C     C_R   0.819585 0.515537 0.595656 0.250538
C16   C     C_R   0.904673 0.553032 0.581558 -0.130818
C17   C     C_R   0.951602 0.529073 0.475622 0.044936
C18   C     C_R   0.904739 0.496286 0.372898 0.076420
C19   C     C_R   0.947232 0.604198 0.674995 0.369279
C20   C     C_R   0.039929 0.611902 0.673912 0.346826
C21   C     C_R   0.090376 0.567206 0.579739 -0.098764
C22   C     C_R   0.045207 0.531318 0.476222 -0.099936
C23   C     C_R   0.092821 0.492683 0.376364 -0.079397
C24   C     C_R   0.045205 0.472600 0.266792 0.295440
C25   C     C_R   0.951492 0.473070 0.267351 -0.148539
C26   C     C_R   0.183666 0.555929 0.588000 0.419563
C27   C     C_R   0.230863 0.508089 0.493980 -0.148898
C28   C     C_R   0.185600 0.473683 0.391235 0.409267
H3    H     H_    0.773327 0.473314 0.297336 0.187205
H4    H     H_    0.915085 0.455146 0.185252 0.215312
C29   C     C_R   0.425586 0.798237 0.532212 0.452193
C30   C     C_R   0.426098 0.205043 0.534989 0.446369
N1    N     N_R   0.499930 0.743810 0.499950 -0.303534
N2    N     N_R   0.499930 0.256190 0.499950 -0.309303
C31   C     C_R   0.573460 0.792665 0.458072 0.460198
C32   C     C_R   0.574440 0.203963 0.461577 0.470705
C33   C     C_R   0.575272 0.895188 0.453923 -0.150884
C34   C     C_R   0.576651 0.101090 0.457328 -0.144936
C35   C     C_R   0.502766 0.948648 0.499339 -0.028491
C36   C     C_R   0.502842 0.051134 0.499226 -0.030208
C37   C     C_R   0.427140 0.899807 0.537331 -0.037860
C38   C     C_R   0.427432 0.103501 0.537983 -0.041831
C39   C     C_R   0.645978 0.945638 0.399904 0.356049
C40   C     C_R   0.649879 0.046690 0.409642 0.363679
C41   C     C_R   0.352230 0.053086 0.575344 -0.076412
C42   C     C_R   0.351936 0.953923 0.574467 -0.068593
H5    H     H_    0.291720 0.089372 0.604631 0.213123
H6    H     H_    0.291063 0.920807 0.602369 0.219603
N3    N     N_R   0.081074 0.667911 0.767228 0.226306
O9    O     O_R   0.067924 0.648406 0.881150 -0.170245
O10   O     O_R   0.121373 0.745943 0.738562 -0.221994
O11   O     O_3   0.225050 0.583823 0.694312 -0.571641
H7    H     H_    0.290259 0.578808 0.687343 0.369442
O12   O     O_3   0.233216 0.416966 0.311397 -0.653501
H8    H     H_    0.193675 0.365845 0.282295 0.359015
N4    N     N_R   0.089921 0.459801 0.152639 0.144312
O13   O     O_R   0.154264 0.515948 0.123316 -0.172425
O14   O     O_R   0.057360 0.403356 0.070213 -0.255337
N5    N     N_R   0.341873 0.754720 0.549513 0.120289
O15   O     O_R   0.309038 0.753138 0.658068 -0.264513
O16   O     O_R   0.287428 0.749740 0.457139 -0.335949
N6    N     N_R   0.343009 0.252002 0.560770 0.141269
O17   O     O_R   0.317219 0.258354 0.672879 -0.241981
O18   O     O_R   0.282453 0.255084 0.475414 -0.346990
N7    N     N_R   0.649752 0.740968 0.415252 0.195275
O19   O     O_R   0.723971 0.742268 0.477509 -0.296135
O20   O     O_R   0.650237 0.708201 0.304812 -0.303671
N8    N     N_R   0.650515 0.252866 0.420736 0.182983
O21   O     O_R   0.721555 0.254561 0.489372 -0.245676
O22   O     O_R   0.657115 0.272609 0.306131 -0.288701
O23   O     O_3   0.708863 0.896510 0.331477 -0.627950
H9    H     H_    0.728384 0.937825 0.264156 0.365423
O24   O     O_3   0.724738 0.092115 0.369164 -0.626377
H10   H     H_    0.777816 0.050079 0.383892 0.362454
O25   O     O_3   0.377334 0.617633 0.130669 -0.562710
H11   H     H_    0.366428 0.687872 0.127884 0.373530
O26   O     O_3   0.351134 0.436302 0.110272 -0.550481
H12   H     H_    0.325823 0.374215 0.133932 0.383077
N9    N     N_R   0.364164 0.619466 0.899186 0.163185
O27   O     O_R   0.336564 0.707616 0.885484 -0.207178
O28   O     O_R   0.302758 0.560949 0.931251 -0.154657
N10   N     N_R   0.358685 0.394764 0.879617 0.231898
O29   O     O_R   0.337579 0.429858 0.774004 -0.332908
O30   O     O_R   0.308673 0.327375 0.920814 -0.227125
N11   N     N_R   0.511424 0.685806 0.893930 0.148931
O31   O     O_R   0.571380 0.725389 0.962554 -0.329266
O32   O     O_R   0.487971 0.733367 0.796843 -0.248493
N12   N     N_R   0.497009 0.313787 0.906286 0.144550
O33   O     O_R   0.544857 0.268083 0.987550 -0.264198
O34   O     O_R   0.477287 0.266207 0.808335 -0.244748
O35   O     O_3   0.654097 0.551481 0.140030 -0.694425
H13   H     H_    0.639407 0.616515 0.111493 0.387053
O36   O     O_3   0.625109 0.393699 0.122455 -0.621206
H14   H     H_    0.688406 0.394916 0.149311 0.407878
N13   N     N_R   0.662047 0.568906 0.893229 0.146284
O37   O     O_R   0.737607 0.583819 0.948471 -0.210566
O38   O     O_R   0.657141 0.597398 0.781045 -0.336072
N14   N     N_R   0.654130 0.401809 0.890821 0.204511
O39   O     O_R   0.729838 0.377116 0.941752 -0.198152
O40   O     O_R   0.639224 0.366399 0.783914 -0.258759
N15   N     N_R   0.806644 0.454422 0.698374 0.159053
O41   O     O_R   0.843104 0.474702 0.802509 -0.212535
O42   O     O_R   0.790946 0.365055 0.676431 -0.213407
O43   O     O_3   0.900029 0.651842 0.764981 -0.587323
H15   H     H_    0.836309 0.656950 0.740757 0.383273

loop_
_geom_bond_atom_site_label_1
_geom_bond_atom_site_label_2
_geom_bond_distance
_ccdc_geom_bond_type
O25   H11   0.993818 S    
C23   C24   1.427494 A    
C39   C40   1.421245 A    
N11   O31   1.302361 A    
C7    N11   1.507125 S    
Cu1   Cu2   2.728123 S    
C31   C33   1.437225 A    
N7    O19   1.302834 A    
Cu1   O7    2.018512 S    
C14   C15   1.403727 A    
N6    O18   1.301588 A    
Cu1   N1    2.049715 S    
C16   C17   1.402930 A    
C20   N3    1.435027 S    
O24   H10   0.991598 S    
O4    C2    1.310677 A    
Cu2   O6    1.961769 S    
O7    C4    1.319573 A    
C41   H5    1.080899 S    
C42   H6    1.080171 S    
C2    C10   1.506634 S    
O43   H15   0.991009 S    
C5    H1    1.103615 S    
C22   C23   1.415286 A    
N1    C31   1.392752 A    
C25   H4    1.084065 S    
N3    O10   1.301139 A    
O5    C3    1.308429 A    
N14   O39   1.302131 A    
N14   O40   1.295797 A    
C5    C7    1.576079 S    
C29   C37   1.423868 A    
C5    C10   1.552028 S    
C19   C20   1.396738 A    
C36   C38   1.402477 A    
N4    O13   1.301382 A    
C33   C35   1.400833 A    
C34   C36   1.404105 A    
N13   O37   1.302458 A    
C6    C8    1.581475 S    
N10   O30   1.302970 A    
C32   C34   1.440710 A    
O12   H8    0.990861 S    
C1    C27   1.469753 S    
C6    O26   1.408596 S    
C28   O12   1.376246 S    
C9    C10   1.573597 S    
N13   O38   1.299605 A    
N10   O29   1.297236 A    
O3    Cu1   2.017600 S    
N11   O32   1.302239 A    
C30   N2    1.389704 A    
C26   O11   1.380110 S    
N7    O20   1.298498 A    
N2    C32   1.389432 A    
N6    O17   1.298458 A    
C35   C36   1.435034 A    
C12   N14   1.487892 S    
N8    O22   1.297122 A    
C13   H3    1.080828 S    
N9    O27   1.301564 A    
N5    O16   1.301725 A    
C13   C14   1.402076 A    
C33   C39   1.422132 A    
C17   C22   1.404632 A    
C34   C40   1.425080 A    
C18   C25   1.395706 A    
N15   O42   1.300274 A    
O1    C1    1.303960 A    
C4    C11   1.546746 S    
C7    C11   1.664855 S    
C17   C18   1.408212 A    
N9    O28   1.297849 A    
O23   H9    0.991209 S    
C8    N12   1.496269 S    
C8    C11   1.652281 S    
Cu2   O8    2.017601 S    
N12   O34   1.301814 A    
C21   C22   1.417922 A    
C12   N13   1.486906 S    
C30   N6    1.425748 S    
C29   N1    1.384256 A    
C15   N15   1.436535 S    
O3    C2    1.307520 A    
O8    C4    1.319737 A    
C3    C14   1.465072 S    
C31   N7    1.422796 S    
C39   O23   1.381771 S    
C19   O43   1.383493 S    
C27   C28   1.404381 A    
C5    O25   1.413714 S    
N15   O41   1.299723 A    
C13   C18   1.403740 A    
Cu1   O5    1.952189 S    
C8    N10   1.483931 S    
C24   C25   1.405144 A    
C6    C10   1.562719 S    
O1    Cu1   1.961730 S    
C16   C19   1.409122 A    
O2    Cu2   1.952163 S    
N8    O21   1.301710 A    
O6    C3    1.310753 A    
O4    Cu2   2.018511 S    
C37   C42   1.407155 A    
C24   N4    1.437943 S    
O36   H14   0.992379 S    
C21   C26   1.406422 A    
C6    H2    1.111662 S    
C32   N8    1.420275 S    
O2    C1    1.314248 A    
O26   H12   0.992548 S    
N5    O15   1.296455 A    
C20   C21   1.423614 A    
C40   O24   1.380093 S    
C26   C27   1.416981 A    
O11   H7    0.982319 S    
N12   O33   1.302298 A    
C23   C28   1.418732 A    
N3    O9    1.301528 A    
C29   N5    1.422067 S    
Cu2   N2    2.049753 S    
C7    N9    1.492869 S    
C11   C12   1.647429 S    
C9    O35   1.416270 S    
C30   C38   1.421914 A    
N4    O14   1.301421 A    
C9    C12   1.621700 S    
O35   H13   0.983573 S    
C35   C37   1.404450 A    
C41   C42   1.388587 A    
C9    O36   1.409032 S    
C15   C16   1.400536 A    
C38   C41   1.408459 A    
