data_mof_unit_26941.cif
_audit_creation_date              2012-12-11T14:04:17-0500
_audit_creation_method            fapswitch 2.2
_symmetry_space_group_name_H-M    P1
_symmetry_Int_Tables_number       1
_space_group_crystal_system       triclinic
_cell_length_a                    19.220112
_cell_length_b                    10.899738
_cell_length_c                    18.986233
_cell_angle_alpha                 89.830028
_cell_angle_beta                  89.33949
_cell_angle_gamma                 90.228127
_cell_volume                      3977.19154117

loop_
_atom_site_label
_atom_site_type_symbol
_atom_type_description
_atom_site_fract_x
_atom_site_fract_y
_atom_site_fract_z
_atom_type_partial_charge
C1    C     C_R   0.237766 0.471271 0.645598 0.591416
C2    C     C_R   0.046105 0.651312 0.560592 -0.039857
C3    C     C_1   0.343943 0.400045 0.470324 0.185982
C4    C     C_R   0.471455 0.159933 0.434217 -0.012230
C5    C     C_R   0.546105 0.151311 0.560592 -0.039857
C6    C     C_R   0.002999 0.886511 0.423812 -0.046052
C7    C     C_R   0.082317 0.861376 0.540920 -0.076113
C8    C     C_R   0.502998 0.386512 0.423812 -0.046052
C9    C     C_R   0.582317 0.361376 0.540920 -0.076114
C10   C     C_R   0.039877 0.986805 0.448460 -0.109517
C11   C     C_R   0.080186 0.973619 0.507055 -0.108412
C12   C     C_R   0.539876 0.486805 0.448460 -0.109516
C13   C     C_R   0.760395 0.469394 0.353730 0.573021
C14   C     C_R   0.580186 0.473619 0.507055 -0.108412
C15   C     C_R   0.042656 0.761423 0.521365 0.007134
C16   C     C_R   0.004760 0.769084 0.458603 0.040624
C17   C     C_R   0.542656 0.261423 0.521365 0.007134
C18   C     C_R   0.504760 0.269083 0.458603 0.040623
C19   C     C_R   0.025107 0.541418 0.528023 0.023679
C20   C     C_R   0.977899 0.547956 0.472897 0.028126
C21   C     C_R   0.525107 0.041418 0.528023 0.023680
C22   C     C_R   0.477899 0.047955 0.472897 0.028126
C23   C     C_R   0.048534 0.424453 0.550035 -0.075186
C24   C     C_R   0.737766 0.971271 0.645598 0.591416
C25   C     C_R   0.940563 0.439544 0.456423 -0.056055
C26   C     C_R   0.548534 0.924453 0.550035 -0.075186
C27   C     C_R   0.440563 0.939544 0.456423 -0.056056
C28   C     C_R   0.016292 0.317572 0.527504 -0.118316
C29   C     C_R   0.960125 0.325521 0.482861 -0.104245
C30   C     C_R   0.516292 0.817572 0.527504 -0.118316
C31   C     C_R   0.460125 0.825521 0.482861 -0.104246
C32   C     C_2   0.241957 0.908037 0.924337 -0.076397
C33   C     C_2   0.759507 0.905784 0.074610 -0.081229
C34   C     C_2   0.741957 0.408037 0.924337 -0.076397
C35   C     C_R   0.260395 0.969394 0.353730 0.573021
C36   C     C_2   0.259507 0.405784 0.074610 -0.081230
C37   C     C_2   0.248273 0.900124 0.084354 -0.017136
C38   C     C_2   0.751264 0.896591 0.915046 -0.017807
C39   C     C_2   0.748273 0.400124 0.084354 -0.017136
C40   C     C_2   0.251264 0.396591 0.915046 -0.017807
C41   C     C_R   0.229177 0.877129 0.649635 0.534365
C42   C     C_R   0.792211 0.825582 0.358557 0.539758
C43   C     C_R   0.729177 0.377129 0.649635 0.534365
C44   C     C_R   0.292211 0.325582 0.358557 0.539758
C45   C     C_2   0.196984 0.942631 0.043535 -0.144152
C46   C     C_2   0.254003 0.814179 0.531453 -0.167796
C47   C     C_2   0.805197 0.931866 0.954645 -0.125058
C48   C     C_2   0.696984 0.442631 0.043535 -0.144152
C49   C     C_2   0.305197 0.431866 0.954645 -0.125058
C50   C     C_2   0.188493 0.911996 0.970155 -0.144887
C51   C     C_2   0.812738 0.900608 0.028381 -0.132793
C52   C     C_2   0.688493 0.411996 0.970155 -0.144887
C53   C     C_2   0.312738 0.400608 0.028381 -0.132793
C54   C     C_2   0.001627 0.655564 0.921886 0.250954
C55   C     C_2   0.011735 0.664219 0.085181 0.232475
C56   C     C_2   0.501627 0.155564 0.921886 0.250954
C57   C     C_2   0.731602 0.796729 0.473058 -0.168850
C58   C     C_2   0.511735 0.164219 0.085181 0.232475
C59   C     C_2   0.011816 0.566713 0.041839 -0.178890
C60   C     C_2   0.029363 0.574144 0.967680 -0.171771
C61   C     C_2   0.511817 0.066713 0.041839 -0.178890
C62   C     C_2   0.529363 0.074144 0.967680 -0.171771
C63   C     C_R   0.062705 0.649731 0.637413 0.524372
C64   C     C_R   0.943297 0.651784 0.362945 0.505092
C65   C     C_R   0.562705 0.149731 0.637413 0.524372
C66   C     C_R   0.443297 0.151784 0.362945 0.505092
C67   C     C_R   0.238664 0.463834 0.850019 0.549300
C68   C     C_2   0.754003 0.314178 0.531453 -0.167796
C69   C     C_R   0.761226 0.464460 0.149983 0.551827
C70   C     C_R   0.738664 0.963834 0.850019 0.549300
C71   C     C_R   0.261226 0.964460 0.149983 0.551827
C72   C     C_R   0.226223 0.872263 0.853159 0.556509
C73   C     C_R   0.774011 0.872112 0.146539 0.564739
C74   C     C_R   0.726223 0.372263 0.853159 0.556509
C75   C     C_R   0.274011 0.372112 0.146539 0.564739
C76   C     C_R   0.029386 0.651766 0.850885 0.615756
C77   C     C_R   0.972263 0.653017 0.150340 0.607551
C78   C     C_R   0.529386 0.151766 0.850885 0.615756
C79   C     C_2   0.231602 0.296729 0.473058 -0.168850
C80   C     C_R   0.472263 0.153017 0.150340 0.607551
C81   C     C_2   0.254048 0.907051 0.579063 -0.049568
C82   C     C_2   0.786660 0.839161 0.435211 -0.040018
C83   C     C_2   0.754047 0.407051 0.579063 -0.049568
C84   C     C_2   0.286660 0.339162 0.435211 -0.040017
C85   C     C_2   0.245541 0.928733 0.424760 -0.023244
C86   C     C_2   0.742119 0.935530 0.573160 -0.001821
C87   C     C_2   0.745541 0.428733 0.424760 -0.023245
C88   C     C_2   0.242119 0.435530 0.573161 -0.001820
C89   C     C_2   0.271767 0.830736 0.456209 0.185689
C90   C     C_R   0.971456 0.659933 0.434217 -0.012229
C91   C     C_2   0.722887 0.824905 0.549534 0.206573
C92   C     C_2   0.771767 0.330736 0.456209 0.185689
C93   C     C_2   0.222887 0.324905 0.549534 0.206573
C94   C     C_1   0.293852 0.800945 0.062932 0.198689
C95   C     C_1   0.702251 0.802436 0.937639 0.198557
C96   C     C_1   0.793852 0.300945 0.062932 0.198689
C97   C     C_1   0.202251 0.302436 0.937639 0.198557
C98   C     C_1   0.296420 0.015681 0.568801 0.183737
C99   C     C_1   0.843944 0.900043 0.470324 0.185982
C100  C     C_1   0.796419 0.515681 0.568801 0.183736
Cr1   Cr    Cr6+3 0.113970 0.508630 0.747920 1.054043
Cr2   Cr    Cr6+3 0.887700 0.820070 0.250200 1.050486
Cr3   Cr    Cr6+3 0.612300 0.320070 0.749800 1.067910
Cr4   Cr    Cr6+3 0.387700 0.320070 0.250200 1.050487
Cr5   Cr    Cr6+3 0.886030 0.508630 0.252080 1.050355
Cr6   Cr    Cr6+3 0.613970 0.008630 0.747920 1.054043
Cr7   Cr    Cr6+3 0.386030 0.008630 0.252080 1.050355
Cr8   Cr    Cr6+3 0.269200 0.666740 0.749850 1.054625
Cr9   Cr    Cr6+3 0.730800 0.666740 0.250150 1.036386
Cr10  Cr    Cr6+3 0.769200 0.166740 0.749850 1.054625
Cr11  Cr    Cr6+3 0.230800 0.166740 0.250150 1.036386
Cr12  Cr    Cr6+3 0.112300 0.820070 0.749800 1.067910
H1    H     H_    0.135163 0.902503 0.952499 0.175455
H2    H     H_    0.066210 0.505265 0.949595 0.139702
H3    H     H_    0.493968 0.977095 0.059790 0.151179
H4    H     H_    0.566210 0.005265 0.949595 0.139701
H5    H     H_    0.233791 0.724572 0.546659 0.102757
H6    H     H_    0.691902 0.741313 0.447985 0.126461
H7    H     H_    0.733791 0.224572 0.546659 0.102756
H8    H     H_    0.191902 0.241311 0.447985 0.126460
H9    H     H_    0.211251 0.988702 0.454563 0.051310
H10   H     H_    0.756008 0.009098 0.537125 0.045247
H11   H     H_    0.711250 0.488701 0.454563 0.051311
H12   H     H_    0.865450 0.883404 0.045969 0.185574
H13   H     H_    0.256007 0.509098 0.537125 0.045247
H14   H     H_    0.036807 0.074901 0.422134 0.115314
H15   H     H_    0.111028 0.049067 0.524972 0.094223
H16   H     H_    0.536807 0.574901 0.422134 0.115314
H17   H     H_    0.611028 0.549066 0.524972 0.094223
H18   H     H_    0.968724 0.912587 0.382420 0.171158
H19   H     H_    0.120405 0.844711 0.577317 0.147586
H20   H     H_    0.468723 0.412587 0.382421 0.171158
H21   H     H_    0.620405 0.344711 0.577317 0.147586
H22   H     H_    0.896734 0.442063 0.422396 0.175282
H23   H     H_    0.635163 0.402503 0.952499 0.175454
H24   H     H_    0.091519 0.414732 0.585163 0.177686
H25   H     H_    0.396734 0.942063 0.422396 0.175281
H26   H     H_    0.591518 0.914732 0.585163 0.177687
H27   H     H_    0.033542 0.229232 0.546445 0.135654
H28   H     H_    0.933153 0.242995 0.467274 0.155037
H29   H     H_    0.533542 0.729232 0.546445 0.135655
H30   H     H_    0.433153 0.742995 0.467274 0.155036
H31   H     H_    0.159753 0.009311 0.063261 0.194159
H32   H     H_    0.844826 0.993934 0.933915 0.191966
H33   H     H_    0.659753 0.509311 0.063261 0.194160
H34   H     H_    0.365450 0.383404 0.045969 0.185574
H35   H     H_    0.344826 0.493934 0.933915 0.191966
H36   H     H_    0.316004 0.672871 0.449810 0.332006
H37   H     H_    0.687242 0.664072 0.570174 0.316490
H38   H     H_    0.816003 0.172870 0.449809 0.332006
H39   H     H_    0.187243 0.164071 0.570175 0.316490
H40   H     H_    0.073241 0.767311 0.028390 0.332248
H41   H     H_    0.926956 0.716143 0.982133 0.333132
H42   H     H_    0.573241 0.267311 0.028390 0.332247
H43   H     H_    0.426956 0.216142 0.982133 0.333132
H44   H     H_    0.295600 0.919732 0.940394 0.117877
H45   H     H_    0.706529 0.924715 0.058725 0.108607
H46   H     H_    0.795600 0.419733 0.940394 0.117877
H47   H     H_    0.206529 0.424715 0.058725 0.108607
H48   H     H_    0.993967 0.477095 0.059790 0.151179
N1    N     N_1   0.330241 0.721763 0.045934 -0.289092
N2    N     N_1   0.663080 0.727383 0.955556 -0.292881
N3    N     N_1   0.830240 0.221763 0.045934 -0.289092
N4    N     N_1   0.163080 0.227383 0.955556 -0.292881
N5    N     N_1   0.331078 0.101778 0.560854 -0.275247
N6    N     N_1   0.886430 0.951632 0.501291 -0.308040
N7    N     N_1   0.831077 0.601779 0.560853 -0.275247
N8    N     N_1   0.386429 0.451636 0.501290 -0.308043
O1    O     O_R   0.043230 0.549300 0.667990 -0.500758
O2    O     O_R   0.832470 0.905110 0.169660 -0.493401
O3    O     O_R   0.667530 0.405110 0.830340 -0.498796
O4    O     O_R   0.332470 0.405110 0.169660 -0.493401
O5    O     O_R   0.054010 0.748440 0.822860 -0.471338
O6    O     O_R   0.945990 0.748440 0.177140 -0.459474
O7    O     O_R   0.554010 0.248440 0.822860 -0.471339
O8    O     O_R   0.445990 0.248440 0.177140 -0.459473
O9    O     O_3   0.165160 0.665150 0.749190 -0.306905
O10   O     O_3   0.834840 0.665150 0.250810 -0.310474
O11   O     O_3   0.665160 0.165150 0.749190 -0.306905
O12   O     O_R   0.956770 0.549300 0.332010 -0.505811
O13   O     O_3   0.334840 0.165150 0.250810 -0.310474
O14   O     O_R   0.178620 0.457600 0.674100 -0.503595
O15   O     O_R   0.821380 0.457600 0.325900 -0.491869
O16   O     O_R   0.678620 0.957600 0.674100 -0.503594
O17   O     O_R   0.321380 0.957600 0.325900 -0.491869
O18   O     O_R   0.284680 0.542100 0.669460 -0.502451
O19   O     O_R   0.715320 0.542100 0.330540 -0.537346
O20   O     O_R   0.784680 0.042100 0.669460 -0.502451
O21   O     O_R   0.215320 0.042100 0.330540 -0.537346
O22   O     O_R   0.262860 0.790390 0.676650 -0.495904
O23   O     O_R   0.543230 0.049300 0.667990 -0.500758
O24   O     O_R   0.737140 0.790390 0.323350 -0.491385
O25   O     O_R   0.762860 0.290390 0.676650 -0.495905
O26   O     O_R   0.237140 0.290390 0.323350 -0.491384
O27   O     O_R   0.167460 0.907030 0.670940 -0.528174
O28   O     O_R   0.832540 0.907030 0.329060 -0.501838
O29   O     O_R   0.667460 0.407030 0.670940 -0.528174
O30   O     O_R   0.332540 0.407030 0.329060 -0.501838
O31   O     O_R   0.053950 0.750220 0.675100 -0.476636
O32   O     O_R   0.946050 0.750220 0.324900 -0.535371
O33   O     O_R   0.553950 0.250220 0.675100 -0.476635
O34   O     O_R   0.456770 0.049300 0.332010 -0.505811
O35   O     O_R   0.446050 0.250220 0.324900 -0.535371
O36   O     O_R   0.043300 0.547370 0.827390 -0.534897
O37   O     O_R   0.956700 0.547370 0.172610 -0.538857
O38   O     O_R   0.543300 0.047370 0.827390 -0.534897
O39   O     O_R   0.456700 0.047370 0.172610 -0.538857
O40   O     O_R   0.178690 0.455820 0.821860 -0.494605
O41   O     O_R   0.821310 0.455820 0.178140 -0.488097
O42   O     O_R   0.678690 0.955820 0.821860 -0.494605
O43   O     O_R   0.321310 0.955820 0.178140 -0.488097
O44   O     O_R   0.284750 0.540170 0.828860 -0.506913
O45   O     O_R   0.262920 0.788600 0.824420 -0.490609
O46   O     O_R   0.715250 0.540170 0.171140 -0.510258
O47   O     O_R   0.784750 0.040170 0.828860 -0.506913
O48   O     O_R   0.215250 0.040170 0.171140 -0.510258
O49   O     O_3   0.305632 0.741772 0.417459 -0.684687
O50   O     O_3   0.695198 0.740511 0.596359 -0.679498
O51   O     O_3   0.805632 0.241773 0.417460 -0.684689
O52   O     O_3   0.195199 0.240510 0.596360 -0.679498
O53   O     O_3   0.038640 0.778012 0.066840 -0.680055
O54   O     O_3   0.952341 0.742891 0.939100 -0.686812
O55   O     O_3   0.538640 0.278013 0.066840 -0.680054
O56   O     O_R   0.737080 0.788600 0.175580 -0.486364
O57   O     O_3   0.452341 0.242890 0.939100 -0.686813
O58   O     O_R   0.762920 0.288600 0.824420 -0.490609
O59   O     O_R   0.237080 0.288600 0.175580 -0.486364
O60   O     O_R   0.167530 0.905110 0.830340 -0.498796

loop_
_geom_bond_atom_site_label_1
_geom_bond_atom_site_label_2
_ccdc_geom_bond_type
Cr2   O2    S    
C4    C66   S    
C21   C26   A    
C38   C70   S    
C44   O30   A    
C77   O6    A    
Cr12  O60   S    
C55   C59   D    
C24   O16   A    
C43   C83   S    
C82   C99   S    
C60   H2    S    
C19   C20   A    
C42   C82   S    
C64   C90   S    
Cr5   O10   S    
C6    H18   S    
Cr3   O33   S    
C56   C78   S    
C32   C72   S    
C46   C89   S    
C54   C60   D    
C1    O18   A    
Cr9   O19   S    
C7    C11   A    
Cr10  O20   S    
C27   H25   S    
C30   H29   S    
C23   H24   S    
Cr7   O13   S    
C93   O52   S    
C13   O19   A    
C16   C90   A    
Cr10  O11   S    
Cr8   O18   S    
C76   O5    A    
C36   C75   S    
C89   O49   S    
C56   O57   S    
C79   C93   S    
Cr2   O32   S    
C86   C91   D    
C68   H7    S    
C79   C84   D    
C64   O12   A    
C58   O55   S    
Cr4   O13   S    
C54   O54   S    
C5    C17   A    
C81   C98   S    
Cr9   O24   S    
C71   O48   A    
Cr6   O42   S    
C8    H20   S    
Cr11  O13   S    
Cr5   O41   S    
C49   H35   S    
Cr3   O29   S    
H42   O55   S    
C36   C53   D    
C55   O53   S    
C36   H47   S    
C32   H44   S    
Cr9   O10   S    
H43   O57   S    
C65   O23   A    
C13   O15   A    
C40   C67   S    
C74   O3    A    
C38   C95   S    
C86   H10   S    
H38   O51   S    
Cr1   O1    S    
C58   C61   D    
H36   O49   S    
Cr12  O31   S    
Cr7   O39   S    
Cr8   O45   S    
C8    C12   A    
Cr4   O4    S    
C99   N6    T    
C4    C18   A    
C1    C88   S    
C7    C15   A    
C72   O45   A    
C10   C11   A    
C59   C60   S    
C35   O21   A    
H40   O53   S    
C79   H8    S    
Cr3   O3    S    
C51   H12   S    
Cr8   O22   S    
Cr6   O38   S    
C28   H27   S    
Cr4   O30   S    
Cr6   O23   S    
Cr8   O44   S    
C33   H45   S    
C3    N8    T    
C25   C29   A    
C37   C71   S    
C15   C16   A    
C27   C31   A    
Cr4   O35   S    
Cr11  O48   S    
C80   O8    A    
Cr7   O34   S    
C5    C65   S    
Cr9   O46   S    
Cr10  O58   S    
C95   N2    T    
C40   C97   S    
C85   C89   D    
C47   C51   S    
C44   C84   S    
C20   C90   A    
C47   H32   S    
C8    C18   A    
C46   H5    S    
C92   O51   S    
C19   C23   A    
C9    C14   A    
C78   O38   A    
Cr12  O27   S    
C61   H3    S    
C88   H13   S    
C2    C15   A    
Cr1   O40   S    
C77   O37   A    
C46   C81   D    
C4    C22   A    
C59   H48   S    
C35   O17   A    
C97   N4    T    
C41   C81   S    
C48   H33   S    
C13   C87   S    
Cr10  O25   S    
Cr3   O7    S    
C17   C18   A    
C39   C69   S    
C65   O33   A    
C67   O44   A    
C43   O29   A    
C23   C28   A    
Cr5   O15   S    
C42   O28   A    
C25   H22   S    
Cr4   O8    S    
C94   N1    T    
Cr6   O16   S    
C38   C47   D    
Cr9   O56   S    
C34   C74   S    
C54   C76   S    
C11   H15   S    
C41   O22   A    
C37   C94   S    
C33   C73   S    
C12   C14   A    
Cr11  O21   S    
C71   O43   A    
C22   C27   A    
C100  N7    T    
C55   C77   S    
C72   O60   A    
C78   O7    A    
Cr2   O10   S    
C56   C62   D    
C69   O41   A    
C70   O47   A    
Cr5   O12   S    
C37   C45   D    
C34   C52   D    
C34   H46   S    
Cr6   O11   S    
C75   O4    A    
C66   O35   A    
C87   C92   D    
C2    C63   S    
C24   O20   A    
C9    C17   A    
C29   H28   S    
C88   C93   D    
C28   C29   A    
C57   C91   S    
C73   O56   A    
Cr12  O9    S    
C2    C19   A    
C57   C82   D    
C68   C83   D    
C7    H19   S    
C69   O46   A    
C26   H26   S    
Cr1   O36   S    
Cr2   O28   S    
C6    C10   A    
C1    O14   A    
C76   O36   A    
C26   C30   A    
Cr2   O6    S    
C12   H16   S    
Cr5   O37   S    
C58   C80   S    
C33   C51   D    
Cr7   O17   S    
C44   O26   A    
C96   N3    T    
C43   O25   A    
C83   C100  S    
C50   H1    S    
Cr11  O59   S    
C85   H9    S    
C91   O50   S    
C64   O32   A    
Cr10  O47   S    
H41   O54   S    
C41   O27   A    
C10   H14   S    
Cr7   O43   S    
C87   H11   S    
C35   C85   S    
C30   C31   A    
C45   C50   S    
C31   H30   S    
C49   C53   S    
C75   O59   A    
C53   H34   S    
C68   C92   S    
C63   O31   A    
Cr8   O9    S    
C32   C50   D    
Cr3   O11   S    
H37   O50   S    
C61   C62   S    
C39   C96   S    
C98   N5    T    
Cr1   O9    S    
C62   H4    S    
C67   O40   A    
Cr11  O26   S    
C6    C16   A    
C66   O34   A    
C42   O24   A    
C48   C52   S    
C80   O39   A    
C5    C21   A    
C74   O58   A    
C20   C25   A    
C3    C84   S    
C45   H31   S    
C52   H23   S    
H39   O52   S    
C39   C48   D    
C70   O42   A    
C73   O2    A    
C21   C22   A    
C24   C86   S    
C14   H17   S    
Cr1   O14   S    
C40   C49   D    
Cr12  O5    S    
C57   H6    S    
C63   O1    A    
C9    H21   S    
