data_mof_unit_62750.cif
_audit_creation_date              2012-12-10T17:37:14-0500
_audit_creation_method            fapswitch 2.2
_symmetry_space_group_name_H-M    P1
_symmetry_Int_Tables_number       1
_space_group_crystal_system       triclinic
_cell_length_a                    45.2313
_cell_length_b                    31.995685
_cell_length_c                    31.973763
_cell_angle_alpha                 89.996746
_cell_angle_beta                  135.015795
_cell_angle_gamma                 90.002051
_cell_volume                      32710.6729187

loop_
_atom_site_label
_atom_site_type_symbol
_atom_type_description
_atom_site_fract_x
_atom_site_fract_y
_atom_site_fract_z
_atom_type_partial_charge
C1    C     C_R   0.580309 0.000000 0.580312 0.820019
C2    C     C_3   0.000138 0.208654 0.499939 -0.012163
C3    C     C_R   0.580295 0.500000 0.080367 0.825363
C4    C     C_3   0.021682 0.033109 0.785711 -0.153526
C5    C     C_3   0.017721 0.964649 0.781746 -0.155334
C6    C     C_3   0.521102 0.533483 0.785130 -0.153417
C7    C     C_3   0.518334 0.464964 0.782360 -0.155390
C8    C     C_3   0.481519 0.535082 0.717611 -0.145330
C9    C     C_3   0.478751 0.466563 0.714842 -0.149989
C10   C     C_3   0.982133 0.035397 0.718225 -0.145330
C11   C     C_3   0.978172 0.966937 0.714262 -0.149989
C12   C     C_1   0.499954 0.500014 0.625244 -0.150098
C13   C     C_3   0.470495 0.236069 0.445110 0.633061
C14   C     C_1   0.999954 0.000014 0.625244 -0.150123
C15   C     C_1   0.999935 0.000006 0.874766 -0.167009
C16   C     C_1   0.499935 0.500006 0.874766 -0.167003
C17   C     C_3   0.539514 0.498427 0.775646 -0.157132
C18   C     C_3   0.039480 0.997738 0.775612 -0.157167
C19   C     C_3   0.499931 0.500025 0.708826 0.177688
C20   C     C_3   0.999931 0.000025 0.708827 0.177698
C21   C     C_3   0.999923 0.000021 0.791147 0.178791
C22   C     C_3   0.499923 0.500021 0.791146 0.178771
C23   C     C_3   0.537616 0.235992 0.524465 -0.210218
C24   C     C_3   0.462901 0.763934 0.451267 0.633286
C25   C     C_3   0.529367 0.764018 0.502404 -0.211024
C26   C     C_3   0.037663 0.735992 0.524652 -0.210207
C27   C     C_3   0.029347 0.264017 0.502366 -0.211020
C28   C     C_3   0.960374 0.002308 0.724361 -0.154134
C29   C     C_3   0.460339 0.501620 0.724327 -0.154170
C30   C     C_1   0.499942 0.500021 0.662955 -0.052306
C31   C     C_1   0.999942 0.000021 0.662955 -0.052335
C32   C     C_1   0.999926 0.000013 0.837033 -0.062940
C33   C     C_1   0.499926 0.500013 0.837033 -0.062929
C34   C     C_3   0.020216 0.965908 0.256331 -0.154754
C35   C     C_3   0.970588 0.736069 0.445095 0.633061
C36   C     C_3   0.019523 0.034480 0.255634 -0.155695
C37   C     C_3   0.520234 0.465919 0.256349 -0.154762
C38   C     C_3   0.519505 0.534490 0.255615 -0.155692
C39   C     C_3   0.480616 0.465499 0.244613 -0.150412
C40   C     C_3   0.479887 0.534070 0.243879 -0.152882
C41   C     C_3   0.980598 0.965509 0.244595 -0.150385
C42   C     C_3   0.979905 0.034080 0.243897 -0.152893
C43   C     C_1   0.500036 0.499997 0.374859 -0.161078
C44   C     C_1   0.000036 0.999997 0.374859 -0.161059
C45   C     C_1   0.000058 0.999996 0.125342 -0.167853
C46   C     C_3   0.962891 0.263934 0.451286 0.633294
C47   C     C_1   0.500058 0.499996 0.125342 -0.167858
C48   C     C_3   0.539675 0.500415 0.303710 -0.156782
C49   C     C_3   0.039675 0.000394 0.303710 -0.156781
C50   C     C_3   0.500057 0.499994 0.291274 0.181220
C51   C     C_3   0.000057 0.999994 0.291274 0.181211
C52   C     C_3   0.000064 0.999994 0.208954 0.181698
C53   C     C_3   0.500064 0.499994 0.208954 0.181707
C54   C     C_1   0.500039 0.125138 0.500055 -0.149497
C55   C     C_1   0.500066 0.874861 0.500082 -0.149567
C56   C     C_1   0.000038 0.625138 0.500055 -0.149492
C57   C     C_3   0.507453 0.263913 0.468297 -0.282166
C58   C     C_1   0.000067 0.374861 0.500083 -0.149570
C59   C     C_3   0.960446 0.999595 0.196519 -0.152864
C60   C     C_3   0.460446 0.499574 0.196519 -0.152866
C61   C     C_1   0.500047 0.499995 0.337147 -0.061912
C62   C     C_1   0.000047 0.999995 0.337147 -0.061892
C63   C     C_1   0.000064 0.999995 0.163072 -0.065048
C64   C     C_1   0.500064 0.499995 0.163072 -0.065057
C65   C     C_1   0.500030 0.374854 0.499987 -0.134245
C66   C     C_1   0.500023 0.625145 0.499941 -0.134226
C67   C     C_1   0.000030 0.874854 0.499987 -0.134243
C68   C     C_3   0.491383 0.736104 0.452461 -0.282500
C69   C     C_1   0.000021 0.125145 0.499943 -0.134233
C70   C     C_3   0.492928 0.236022 0.532179 -0.279031
C71   C     C_3   0.509079 0.763956 0.547938 -0.278832
C72   C     C_3   0.992783 0.736022 0.532008 -0.279031
C73   C     C_3   0.009106 0.263958 0.547961 -0.278859
C74   C     C_3   0.500236 0.208635 0.500459 0.007792
C75   C     C_3   0.500341 0.791363 0.500468 0.007661
C76   C     C_3   0.000234 0.708635 0.500459 0.007789
C77   C     C_3   0.000340 0.291363 0.500469 0.007667
C78   C     C_3   0.007596 0.763913 0.468469 -0.282176
C79   C     C_3   0.991354 0.236103 0.452441 -0.282510
C80   C     C_1   0.500111 0.162817 0.500195 0.046410
C81   C     C_R   0.080309 0.500000 0.580312 0.820020
C82   C     C_1   0.500168 0.837182 0.500223 0.046477
C83   C     C_1   0.000110 0.662817 0.500195 0.046415
C84   C     C_1   0.000168 0.337182 0.500224 0.046468
C85   C     C_1   0.500115 0.337179 0.500010 0.059833
C86   C     C_1   0.500093 0.662819 0.499920 0.060263
C87   C     C_1   0.000115 0.837179 0.500011 0.059833
C88   C     C_1   0.000092 0.162819 0.499922 0.060267
C89   C     C_3   0.763960 0.965576 0.783544 -0.155213
C90   C     C_3   0.763960 0.034148 0.784019 -0.155776
C91   C     C_3   0.263960 0.466446 0.785004 -0.155132
C92   C     C_3   0.463347 0.263724 0.476397 0.411278
C93   C     C_3   0.263959 0.534976 0.782535 -0.155847
C94   C     C_3   0.736035 0.965852 0.715997 -0.154280
C95   C     C_3   0.736035 0.034425 0.716472 -0.154173
C96   C     C_3   0.236036 0.465024 0.717482 -0.154211
C97   C     C_3   0.236035 0.533554 0.715012 -0.154220
C98   C     C_1   0.625227 0.000000 0.625225 -0.166784
C99   C     C_1   0.125227 0.500000 0.625225 -0.166781
C100  C     C_1   0.874768 0.000000 0.874805 -0.168402
C101  C     C_1   0.374768 0.500000 0.874805 -0.168402
C102  C     C_R   0.499992 0.080280 0.499995 0.820430
C103  C     C_3   0.471552 0.736260 0.498041 0.412778
C104  C     C_R   0.499994 0.919719 0.499999 0.821135
C105  C     C_R   0.999992 0.580280 0.499995 0.820421
C106  C     C_R   0.999995 0.419719 0.500000 0.821137
C107  C     C_3   0.736059 0.999724 0.775685 -0.155334
C108  C     C_3   0.236059 0.501422 0.775660 -0.155359
C109  C     C_3   0.708834 0.000000 0.708837 0.183317
C110  C     C_3   0.208834 0.500000 0.708837 0.183316
C111  C     C_3   0.791161 0.000000 0.791180 0.183328
C112  C     C_3   0.291161 0.500000 0.791180 0.183330
C113  C     C_3   0.763936 0.000277 0.724332 -0.153138
C114  C     C_3   0.963299 0.763724 0.476214 0.411270
C115  C     C_3   0.263936 0.498578 0.724356 -0.153153
C116  C     C_1   0.662951 0.000000 0.662949 -0.066268
C117  C     C_1   0.162951 0.500000 0.662949 -0.066267
C118  C     C_1   0.837044 0.000000 0.837072 -0.066440
C119  C     C_1   0.337044 0.500000 0.837072 -0.066440
C120  C     C_3   0.236050 0.033728 0.256856 -0.152620
C121  C     C_3   0.236050 0.965180 0.254950 -0.150589
C122  C     C_3   0.736050 0.533764 0.256798 -0.152621
C123  C     C_3   0.736050 0.465213 0.255010 -0.150594
C124  C     C_3   0.263926 0.034831 0.245122 -0.147167
C125  C     C_3   0.971569 0.236262 0.498081 0.412781
C126  C     C_3   0.263926 0.966283 0.243215 -0.147013
C127  C     C_3   0.763926 0.534799 0.245062 -0.147179
C128  C     C_3   0.763926 0.466248 0.243273 -0.146998
C129  C     C_1   0.374761 0.000003 0.374776 -0.148943
C130  C     C_1   0.874761 0.500003 0.374777 -0.148950
C131  C     C_1   0.125214 0.000001 0.125286 -0.166249
C132  C     C_1   0.625214 0.500001 0.125286 -0.166249
C133  C     C_R   0.419680 0.000001 0.419688 0.835097
C134  C     C_R   0.919680 0.500001 0.419688 0.835089
C135  C     C_3   0.263976 0.998904 0.303623 -0.153417
C136  C     C_3   0.500167 0.291344 0.500035 -0.012305
C137  C     C_3   0.763976 0.498972 0.303625 -0.153428
C138  C     C_3   0.291153 0.000006 0.291189 0.175853
C139  C     C_3   0.791153 0.500007 0.291189 0.175856
C140  C     C_3   0.208823 0.000005 0.208881 0.175941
C141  C     C_3   0.708823 0.500005 0.208881 0.175944
C142  C     C_3   0.236001 0.001107 0.196448 -0.157166
C143  C     C_3   0.736001 0.501040 0.196446 -0.157162
C144  C     C_1   0.337037 0.000005 0.337061 -0.048494
C145  C     C_1   0.837037 0.500005 0.337061 -0.048501
C146  C     C_1   0.162939 0.000002 0.163006 -0.061045
C147  C     C_3   0.500140 0.708654 0.499937 -0.012174
C148  C     C_1   0.662939 0.500003 0.163006 -0.061046
C149  C     C_R   0.499969 0.500005 0.580342 0.830689
C150  C     C_R   0.999969 0.000005 0.580342 0.830665
C151  C     C_R   0.499994 0.419705 0.500023 0.816377
C152  C     C_R   0.499993 0.580295 0.500018 0.818373
C153  C     C_R   0.999994 0.919705 0.500023 0.816365
C154  C     C_R   0.999993 0.080295 0.500018 0.818374
C155  C     C_R   0.500018 0.499999 0.419758 0.820191
C156  C     C_R   0.000018 0.999999 0.419758 0.820206
C157  C     C_R   0.000043 0.999999 0.080409 0.825356
C158  C     C_3   0.000167 0.791344 0.500036 -0.012308
C159  C     C_R   0.500043 0.499999 0.080409 0.825354
C160  C     C_3   0.530321 0.264073 0.556153 -0.184155
C161  C     C_3   0.538100 0.735919 0.549821 -0.184506
C162  C     C_3   0.030225 0.764073 0.556169 -0.184144
C163  C     C_3   0.038107 0.235919 0.549805 -0.184517
C164  C     C_R   0.919686 0.000000 0.919733 0.825210
C165  C     C_R   0.419686 0.500000 0.919733 0.825211
C166  C     C_R   0.999951 0.000001 0.919700 0.825297
C167  C     C_R   0.499951 0.500001 0.919700 0.825300
C168  C     C_R   0.080295 1.000000 0.080367 0.825363
Cu1   Cu    Cu3+1 0.500020 0.000000 0.541470 0.983499
Cu2   Cu    Cu3+1 0.999990 0.041450 0.000050 0.970708
Cu3   Cu    Cu3+1 0.499990 0.458550 0.000050 0.970834
Cu4   Cu    Cu3+1 0.499990 0.541450 0.000050 0.970697
Cu5   Cu    Cu3+1 0.000020 0.500000 0.541470 0.983465
Cu6   Cu    Cu3+1 0.499960 1.000000 0.458530 0.989054
Cu7   Cu    Cu3+1 0.999960 0.500000 0.458530 0.989097
Cu8   Cu    Cu3+1 0.541430 0.500000 0.541530 0.968973
Cu9   Cu    Cu3+1 0.041430 0.000000 0.541530 0.968972
Cu10  Cu    Cu3+1 0.458550 0.500000 0.458570 1.027136
Cu11  Cu    Cu3+1 0.958550 1.000000 0.458570 1.027147
Cu12  Cu    Cu3+1 0.999990 0.958550 0.000050 0.970823
F1    F     F_    0.439346 0.221315 0.387835 -0.614525
F2    F     F_    0.423961 0.778690 0.400658 -0.615409
F3    F     F_    0.939535 0.721315 0.387802 -0.614512
F4    F     F_    0.923943 0.278690 0.400696 -0.615385
H1    H     H_    0.568413 0.224090 0.544561 0.165697
H2    H     H_    0.775867 0.438473 0.238184 0.147926
H3    H     H_    0.224110 0.061473 0.261995 0.142401
H4    H     H_    0.224110 0.936528 0.258521 0.143536
H5    H     H_    0.724110 0.561539 0.261889 0.142400
H6    H     H_    0.724110 0.436587 0.258630 0.143530
H7    H     H_    0.224019 0.002014 0.151887 0.139854
H8    H     H_    0.724019 0.501890 0.151883 0.139856
H9    H     H_    0.275957 0.997997 0.348184 0.142309
H10   H     H_    0.775956 0.498121 0.348187 0.142301
H11   H     H_    0.466377 0.563926 0.690501 0.149105
H12   H     H_    0.553409 0.775931 0.504433 0.166382
H13   H     H_    0.461331 0.439034 0.685454 0.144955
H14   H     H_    0.967496 0.064501 0.691620 0.149121
H15   H     H_    0.960274 0.939715 0.684396 0.144949
H16   H     H_    0.039581 0.060331 0.815576 0.140889
H17   H     H_    0.032360 0.935546 0.808350 0.139517
H18   H     H_    0.538523 0.561012 0.814518 0.140970
H19   H     H_    0.533478 0.436120 0.809469 0.139482
H20   H     H_    0.927832 0.004189 0.703754 0.139442
H21   H     H_    0.427770 0.502933 0.703691 0.139433
H22   H     H_    0.572083 0.497113 0.796282 0.139189
H23   H     H_    0.068500 0.724090 0.544900 0.165703
H24   H     H_    0.072022 0.995858 0.796220 0.139160
H25   H     H_    0.464619 0.437118 0.240563 0.141583
H26   H     H_    0.463290 0.562104 0.239226 0.138973
H27   H     H_    0.964586 0.937137 0.240530 0.141617
H28   H     H_    0.963323 0.062124 0.239259 0.138971
H29   H     H_    0.555165 0.276056 0.602087 0.166456
H30   H     H_    0.569259 0.723935 0.590516 0.167144
H31   H     H_    0.054991 0.776056 0.602116 0.166451
H32   H     H_    0.069273 0.223937 0.590486 0.167141
H33   H     H_    0.036799 0.937865 0.260970 0.138663
H34   H     H_    0.053376 0.275928 0.504365 0.166382
H35   H     H_    0.035536 0.062851 0.259700 0.137640
H36   H     H_    0.536832 0.437884 0.261003 0.138649
H37   H     H_    0.535503 0.562870 0.259666 0.137638
H38   H     H_    0.927854 0.999266 0.151950 0.137330
H39   H     H_    0.427855 0.499228 0.151950 0.137322
H40   H     H_    0.572267 0.500760 0.348278 0.137696
H41   H     H_    0.072267 0.000722 0.348278 0.137702
H42   H     H_    0.513133 0.275511 0.441758 0.174822
H43   H     H_    0.483845 0.724524 0.413073 0.174758
H44   H     H_    0.013396 0.775511 0.442070 0.174826
H45   H     H_    0.724118 0.999496 0.796337 0.137752
H46   H     H_    0.983790 0.224523 0.413034 0.174762
H47   H     H_    0.486688 0.224424 0.558057 0.186367
H48   H     H_    0.516066 0.775538 0.586902 0.186546
H49   H     H_    0.986425 0.724424 0.557744 0.186363
H50   H     H_    0.016119 0.275539 0.586946 0.186528
H51   H     H_    0.724074 0.937757 0.687542 0.135989
H52   H     H_    0.724074 0.062747 0.688408 0.136107
H53   H     H_    0.224075 0.436248 0.690248 0.135903
H54   H     H_    0.224073 0.561161 0.685746 0.136231
H55   H     H_    0.775920 0.937253 0.811609 0.137092
H56   H     H_    0.224118 0.502592 0.796291 0.137725
H57   H     H_    0.775920 0.062243 0.812475 0.136653
H58   H     H_    0.275921 0.438840 0.814270 0.137039
H59   H     H_    0.275919 0.563752 0.809769 0.136709
H60   H     H_    0.775878 0.000504 0.703681 0.135994
H61   H     H_    0.275879 0.497408 0.703726 0.135991
H62   H     H_    0.355844 0.253023 0.405544 0.376964
H63   H     H_    0.387720 0.746889 0.490835 0.376824
H64   H     H_    0.855665 0.753022 0.404848 0.376962
H65   H     H_    0.887879 0.246888 0.491174 0.376792
H66   H     H_    0.275867 0.063484 0.241553 0.148584
H67   H     H_    0.275867 0.938537 0.238078 0.147911
H68   H     H_    0.775867 0.563425 0.241444 0.148571
O1    O     O_R   0.560480 0.000000 0.595480 -0.580712
O2    O     O_R   0.965020 1.000000 0.404580 -0.575008
O3    O     O_R   0.000030 0.965010 0.060550 -0.579172
O4    O     O_R   0.000030 0.034990 0.060550 -0.579718
O5    O     O_R   0.500030 0.465010 0.060550 -0.579177
O6    O     O_R   0.500030 0.534990 0.060550 -0.579716
O7    O     O_R   0.939530 0.965000 0.939580 -0.579534
O8    O     O_R   0.939530 0.035000 0.939580 -0.579606
O9    O     O_R   0.439530 0.465000 0.939580 -0.579529
O10   O     O_R   0.439530 0.535000 0.939580 -0.579611
O11   O     O_R   0.999960 0.964990 0.939550 -0.579278
O12   O     O_R   0.060480 0.500000 0.595480 -0.580716
O13   O     O_R   0.999960 0.035010 0.939550 -0.578750
O14   O     O_R   0.499960 0.464990 0.939550 -0.579274
O15   O     O_R   0.499960 0.535010 0.939550 -0.578751
O16   O     O_R   0.060450 0.965000 0.060520 -0.578792
O17   O     O_R   0.060450 0.035000 0.060520 -0.578828
O18   O     O_R   0.560450 0.465000 0.060520 -0.578790
O19   O     O_R   0.560450 0.535000 0.060520 -0.578831
O20   O     O_R   0.560430 0.000000 0.525440 -0.580724
O21   O     O_R   0.060430 0.500000 0.525440 -0.580717
O22   O     O_R   0.500020 0.060460 0.535020 -0.580264
O23   O     O_R   0.465000 0.439530 0.465010 -0.556991
O24   O     O_R   0.500020 0.939540 0.535020 -0.576332
O25   O     O_R   0.000020 0.560460 0.535020 -0.580301
O26   O     O_R   0.000020 0.439540 0.535020 -0.576326
O27   O     O_R   0.499970 0.060450 0.464980 -0.572493
O28   O     O_R   0.499970 0.939550 0.464980 -0.577311
O29   O     O_R   0.999970 0.560450 0.464980 -0.572453
O30   O     O_R   0.999970 0.439550 0.464980 -0.577312
O31   O     O_R   0.439560 0.000000 0.474560 -0.576876
O32   O     O_R   0.939560 0.500000 0.474560 -0.576887
O33   O     O_R   0.439510 1.000000 0.404520 -0.574616
O34   O     O_R   0.465000 0.560470 0.465010 -0.561123
O35   O     O_R   0.939510 0.500000 0.404520 -0.574607
O36   O     O_R   0.534970 0.500000 0.595520 -0.583632
O37   O     O_R   0.034970 0.000000 0.595520 -0.583632
O38   O     O_R   0.464980 0.500000 0.525470 -0.567858
O39   O     O_R   0.964980 1.000000 0.525470 -0.567871
O40   O     O_R   0.534980 0.439530 0.535070 -0.588904
O41   O     O_R   0.534980 0.560470 0.535070 -0.587214
O42   O     O_R   0.034980 0.939530 0.535070 -0.588912
O43   O     O_R   0.034980 0.060470 0.535070 -0.587208
O44   O     O_2   0.419083 0.308161 0.487811 -0.292727
O45   O     O_R   0.965000 0.939530 0.465010 -0.556970
O46   O     O_2   0.394032 0.307843 0.390114 -0.253025
O47   O     O_3   0.382873 0.240753 0.423738 -0.503351
O48   O     O_2   0.401243 0.692059 0.439596 -0.252427
O49   O     O_2   0.452990 0.691838 0.548161 -0.297131
O50   O     O_3   0.408626 0.759183 0.492485 -0.501399
O51   O     O_2   0.918830 0.808165 0.487257 -0.292697
O52   O     O_2   0.894043 0.807838 0.389734 -0.253022
O53   O     O_3   0.882725 0.740752 0.423165 -0.503370
O54   O     O_2   0.901262 0.192069 0.439690 -0.252269
O55   O     O_2   0.953058 0.191831 0.548260 -0.297299
O56   O     O_R   0.965000 0.060470 0.465010 -0.561132
O57   O     O_3   0.908692 0.259183 0.492631 -0.501382
O58   O     O_R   0.535000 0.500000 0.474630 -0.583408
O59   O     O_R   0.035000 1.000000 0.474630 -0.583408
O60   O     O_R   0.465020 0.500000 0.404580 -0.575023
S1    S     S_3+6 0.413610 0.281983 0.443703 0.043412
S2    S     S_3+6 0.432643 0.717972 0.494472 0.042254
S3    S     S_3+6 0.913499 0.781983 0.443274 0.043419
S4    S     S_3+6 0.932686 0.217974 0.494567 0.042259

loop_
_geom_bond_atom_site_label_1
_geom_bond_atom_site_label_2
_ccdc_geom_bond_type
C22   C29   S    
C96   H53   S    
C36   C42   S    
C86   C147  S    
C104  O28   A    
C15   C32   T    
Cu5   O32   S    
C51   C62   S    
C103  S2    S    
C56   C83   T    
C111  C118  S    
C121  C140  S    
C17   H22   S    
C128  C139  S    
C90   C107  S    
C157  O3    A    
C46   C79   S    
C53   C64   S    
C152  O34   A    
C35   F3    S    
C39   H25   S    
C131  C146  T    
C89   C94   S    
C7    H19   S    
C91   C96   S    
Cu11  O2    S    
C9    C19   S    
C10   C20   S    
C49   C51   S    
C70   C74   S    
C105  O29   A    
Cu1   Cu6   S    
C15   C166  S    
C106  O26   A    
C97   C115  S    
C4    C18   S    
C48   C50   S    
Cu9   O42   S    
C55   C82   T    
C130  C134  S    
Cu4   O19   S    
C168  O16   A    
O46   S1    D    
C11   C20   S    
Cu1   O22   S    
C90   C95   S    
C95   C109  S    
C47   C64   T    
C1    O20   A    
C5    C18   S    
C81   C99   S    
C35   C78   S    
C133  O31   A    
C126  H67   S    
C101  C119  T    
C137  C139  S    
C163  H32   S    
C123  C141  S    
C111  C113  S    
C127  C143  S    
C102  O22   A    
C3    O18   A    
C73   H50   S    
C69   C88   T    
C129  C133  S    
C21   C28   S    
C107  H45   S    
Cu11  O56   S    
C43   C61   T    
C122  H5    S    
C94   C113  S    
Cu5   O26   S    
C153  O45   A    
C71   C161  S    
Cu8   O41   S    
C122  C137  S    
C52   C63   S    
C46   C77   S    
C7    C22   S    
C94   C109  S    
Cu9   O37   S    
C69   C154  S    
C120  C135  S    
C167  O14   A    
C73   C163  S    
C168  O17   A    
C38   C53   S    
C39   C60   S    
C93   C112  S    
C5    C21   S    
C27   H34   S    
C73   C77   S    
C37   H36   S    
Cu1   O31   S    
C19   C30   S    
C41   C51   S    
Cu10  O23   S    
C40   C60   S    
C72   C114  S    
C102  O27   A    
C34   H33   S    
C103  C147  S    
C129  C144  T    
C47   C159  S    
C26   C78   S    
C8    C29   S    
C38   H37   S    
C5    H17   S    
C13   C57   S    
C3    O19   A    
C8    H11   S    
C151  O40   A    
C46   F4    S    
C122  C127  S    
Cu3   O9    S    
C70   H47   S    
C124  H66   S    
C27   C163  S    
Cu12  O7    S    
C78   C158  S    
C25   C161  S    
C7    C17   S    
C120  C140  S    
C104  O24   A    
C38   C48   S    
C36   C52   S    
C37   C53   S    
Cu8   Cu10  S    
Cu6   O27   S    
C159  O5    A    
Cu2   O13   S    
Cu1   O24   S    
C90   C111  S    
C36   H35   S    
Cu12  O16   S    
Cu12  O3    S    
C9    H13   S    
Cu5   Cu7   S    
C35   C76   S    
C8    C19   S    
C44   C156  S    
Cu1   O1    S    
Cu11  O45   S    
C45   C157  S    
O48   S2    D    
Cu6   O20   S    
C48   H40   S    
C77   C84   S    
C55   C104  S    
C134  O32   A    
C106  O30   A    
C91   C112  S    
C65   C151  S    
Cu7   O21   S    
C66   C152  S    
C59   H38   S    
C99   C117  T    
C92   S1    S    
C123  H6    S    
C25   H12   S    
Cu8   O40   S    
C13   F1    S    
C95   H52   S    
C23   C74   S    
C49   H41   S    
C60   H39   S    
C93   C97   S    
C42   H28   S    
C23   C57   S    
C6    C17   S    
C71   C103  S    
C155  O60   A    
C34   C49   S    
C149  O38   A    
Cu9   O59   S    
Cu10  O60   S    
C1    C98   S    
C66   C86   T    
C75   C82   S    
C153  O42   A    
C123  C137  S    
C24   C103  S    
C152  O41   A    
C138  C144  S    
H62   O47   S    
C73   C125  S    
C108  C110  S    
C70   C160  S    
C167  O15   A    
C85   C136  S    
O51   S3    D    
C136  C160  S    
C2    C125  S    
C4    H16   S    
C164  O7    A    
C50   C61   S    
C72   C162  S    
C165  O10   A    
Cu3   O18   S    
C122  C141  S    
C151  O23   A    
C161  H30   S    
Cu10  O38   S    
C46   C125  S    
C26   H23   S    
Cu3   Cu4   S    
Cu10  O34   S    
C34   C41   S    
C128  H2    S    
C124  C138  S    
C140  C142  S    
C5    C11   S    
C141  C143  S    
C93   C108  S    
C94   H51   S    
C16   C167  S    
C6    C22   S    
C40   H26   S    
C72   H49   S    
C76   C83   S    
C127  H68   S    
C114  C158  S    
Cu5   O12   S    
C2    C79   S    
C109  C116  S    
C137  H10   S    
C139  C145  S    
Cu7   O30   S    
C14   C31   T    
C54   C80   T    
C155  O58   A    
C74   C80   S    
O50   S2    S    
C130  C145  T    
C107  C109  S    
C92   C136  S    
C25   C68   S    
C125  S4    S    
C43   C155  S    
C110  C117  S    
C1    O1    A    
Cu5   O25   S    
O49   S2    D    
C154  O43   A    
C3    C132  S    
Cu3   O5    S    
C147  C161  S    
C157  O4    A    
C140  C146  S    
C23   H1    S    
Cu12  O11   S    
C6    C8    S    
C96   C110  S    
C26   C162  S    
C25   C75   S    
C42   C59   S    
C91   H58   S    
C113  H60   S    
C14   C150  S    
Cu2   O17   S    
C134  O35   A    
C100  C164  S    
C166  O11   A    
C101  C165  S    
C156  O59   A    
Cu9   O43   S    
C133  O33   A    
C13   C92   S    
C93   H59   S    
C149  O36   A    
C100  C118  T    
Cu4   O6    S    
C120  H3    S    
O52   S3    D    
H65   O57   S    
C10   C28   S    
C12   C30   T    
C91   C108  S    
C54   C102  S    
C70   C92   S    
C2    C163  S    
C112  C119  S    
C24   C75   S    
C34   C52   S    
O53   S3    S    
Cu2   O4    S    
C67   C153  S    
C37   C39   S    
C121  H4    S    
C38   C40   S    
C11   C28   S    
C40   C50   S    
C166  O13   A    
C126  C142  S    
C81   O21   A    
C128  C143  S    
C11   H15   S    
C56   C105  S    
C24   C68   S    
C89   C107  S    
C13   C74   S    
C36   C49   S    
C115  H61   S    
C135  C138  S    
Cu6   O28   S    
H64   O53   S    
C4    C21   S    
C105  O25   A    
C89   H55   S    
C72   C76   S    
C68   H43   S    
C29   H21   S    
C97   H54   S    
Cu3   O14   S    
C6    H18   S    
Cu4   O15   S    
C27   C79   S    
C142  H7    S    
C35   C114  S    
C18   H24   S    
C141  C148  S    
C108  H56   S    
C26   C76   S    
C71   H48   S    
C96   C115  S    
C2    C88   S    
C9    C29   S    
C42   C51   S    
Cu8   O58   S    
C150  O39   A    
C124  C142  S    
C127  C139  S    
C10   H14   S    
O57   S4    S    
C156  O2    A    
C162  H31   S    
C78   H44   S    
C21   C32   S    
C24   F2    S    
C132  C148  T    
C41   C59   S    
O47   S1    S    
Cu7   O35   S    
C44   C62   T    
Cu6   O33   S    
C45   C63   T    
C121  C135  S    
Cu2   Cu12  S    
C58   C106  S    
C79   H46   S    
C52   C59   S    
C58   C84   T    
C16   C33   T    
C135  H9    S    
Cu8   O36   S    
C98   C116  T    
C143  H8    S    
C23   C160  S    
C53   C60   S    
C57   C136  S    
C37   C48   S    
Cu11  O39   S    
C68   C147  S    
C57   H42   S    
C131  C168  S    
C159  O6    A    
C164  O8    A    
H63   O50   S    
C12   C149  S    
C165  O9    A    
C4    C10   S    
C7    C9    S    
C22   C33   S    
C126  C138  S    
O44   S1    D    
C114  S3    S    
C27   C77   S    
C65   C85   T    
C154  O56   A    
C89   C111  S    
C67   C87   T    
C87   C158  S    
O54   S4    D    
C121  C126  S    
C71   C75   S    
C97   C110  S    
C123  C128  S    
C28   H20   S    
C95   C113  S    
C160  H29   S    
C17   C19   S    
Cu9   Cu11  S    
C18   C20   S    
Cu4   O10   S    
C158  C162  S    
C41   H27   S    
C39   C50   S    
C81   O12   A    
C90   H57   S    
C150  O37   A    
Cu2   O8    S    
O55   S4    D    
Cu7   O29   S    
C112  C115  S    
C120  C124  S    
C20   C31   S    
