data_mof_unit_5927.cif
_audit_creation_date              2012-12-11T14:21:03-0500
_audit_creation_method            fapswitch 2.2
_symmetry_space_group_name_H-M    P1
_symmetry_Int_Tables_number       1
_space_group_crystal_system       triclinic
_cell_length_a                    22.029964
_cell_length_b                    7.212348
_cell_length_c                    14.882786
_cell_angle_alpha                 89.99421
_cell_angle_beta                  107.184938
_cell_angle_gamma                 89.999964
_cell_volume                      2259.1234351

loop_
_atom_site_label
_atom_site_type_symbol
_atom_type_description
_atom_site_fract_x
_atom_site_fract_y
_atom_site_fract_z
_atom_type_partial_charge
O1    O     O_R   0.584770 0.505770 0.002090 -0.514835
O2    O     O_R   0.415230 0.005770 0.997910 -0.514834
O3    O     O_R   0.467060 0.173340 0.861950 -0.533797
O4    O     O_R   0.532940 0.673340 0.138050 -0.533851
C1    C     C_R   0.454767 0.344432 0.825805 0.769549
C2    C     C_R   0.545236 0.844414 0.174196 0.769595
O5    O     O_R   0.587510 0.175890 0.993210 -0.557764
O6    O     O_R   0.412490 0.675890 0.006790 -0.557775
O7    O     O_R   0.536540 0.008150 0.130100 -0.543942
O8    O     O_R   0.463460 0.508150 0.869900 -0.543970
C3    C     C_R   0.612137 0.343775 0.995627 0.658732
C4    C     C_R   0.387862 0.843774 0.004373 0.658734
O9    O     O_3   0.483140 0.340040 0.044760 -0.379324
O10   O     O_3   0.516860 0.840040 0.955240 -0.379310
V1    V     V_3+5 0.503130 0.064190 0.991700 1.565929
V2    V     V_3+5 0.496870 0.564190 0.008300 1.565847
C5    C     C_2   0.210298 0.744355 0.973936 0.622181
C6    C     C_2   0.789700 0.244331 0.026054 0.622046
C7    C     C_2   0.179096 0.898328 0.988811 -0.302398
C8    C     C_2   0.820906 0.398318 0.011194 -0.302464
C9    C     C_2   0.276206 0.745845 0.965143 -0.276312
C10   C     C_2   0.723792 0.245808 0.034845 -0.276345
C11   C     C_2   0.324608 0.850012 0.018213 0.455016
C12   C     C_2   0.675392 0.350023 0.981786 0.454941
H1    H     H_    0.285351 0.652301 0.913373 0.138982
H2    H     H_    0.714644 0.152210 0.086601 0.139078
C13   C     C_R   0.926888 0.891480 0.723201 -0.230838
C14   C     C_R   0.073106 0.391395 0.276797 -0.230883
C15   C     C_R   0.574317 0.856140 0.276048 -0.129214
C16   C     C_R   0.425687 0.356218 0.723953 -0.129210
C17   C     C_R   0.937363 0.951475 0.568734 0.713818
C18   C     C_R   0.062609 0.450961 0.431276 0.713918
C19   C     C_R   0.964736 0.932968 0.665397 -0.313074
C20   C     C_R   0.035241 0.432589 0.334607 -0.313058
C21   C     C_R   0.860980 0.873777 0.684530 0.586048
C22   C     C_R   0.139023 0.373853 0.315466 0.586010
C23   C     C_R   0.831354 0.919595 0.588938 -0.087510
C24   C     C_R   0.168631 0.419528 0.411074 -0.087498
C25   C     C_R   0.870946 0.943393 0.529874 -0.077561
C26   C     C_R   0.129030 0.443025 0.470139 -0.077612
C27   C     C_R   0.763904 0.936525 0.549227 0.048828
C28   C     C_R   0.236075 0.436595 0.450793 0.048871
C29   C     C_R   0.737353 0.921282 0.449485 0.057121
C30   C     C_R   0.262630 0.421186 0.550529 0.057115
C31   C     C_R   0.778491 0.944016 0.393243 -0.104082
C32   C     C_R   0.221484 0.443627 0.606774 -0.104107
C33   C     C_R   0.843737 0.960098 0.432968 -0.092537
C34   C     C_R   0.156234 0.459579 0.567052 -0.092550
C35   C     C_R   0.722317 0.981288 0.603595 0.004550
C36   C     C_R   0.277649 0.481662 0.396446 0.004539
C37   C     C_R   0.656620 0.965334 0.563126 -0.213029
C38   C     C_R   0.343349 0.465847 0.436914 -0.213029
C39   C     C_R   0.630448 0.922788 0.468142 0.046861
C40   C     C_R   0.369536 0.423143 0.531883 0.046867
C41   C     C_R   0.670229 0.899471 0.409376 -0.028964
C42   C     C_R   0.329760 0.399518 0.590634 -0.028970
C43   C     C_R   0.564063 0.914424 0.430444 -0.138665
C44   C     C_R   0.435928 0.414930 0.569583 -0.138656
C45   C     C_R   0.536241 0.885670 0.334674 -0.258618
C46   C     C_R   0.463759 0.386044 0.665343 -0.258590
C47   C     C_R   0.640672 0.854976 0.313146 0.540096
C48   C     C_R   0.359330 0.354880 0.686848 0.540089
H3    H     H_    0.873069 0.981947 0.386874 0.194356
H4    H     H_    0.126894 0.481207 0.613149 0.194365
H5    H     H_    0.484954 0.887527 0.306085 0.161682
H6    H     H_    0.515049 0.388035 0.693937 0.161686
H7    H     H_    0.625096 0.997133 0.604961 0.156502
H8    H     H_    0.374863 0.497885 0.395094 0.156480
H9    H     H_    0.015647 0.949065 0.695245 0.171907
H10   H     H_    0.984323 0.448555 0.304760 0.171897
H11   H     H_    0.761342 0.963756 0.318296 0.208530
H12   H     H_    0.238628 0.463236 0.681727 0.208565
H13   H     H_    0.533507 0.935931 0.474784 0.140365
H14   H     H_    0.466481 0.436669 0.525255 0.140371
O11   O     O_R   0.036450 0.233070 0.130130 -0.524469
O12   O     O_R   0.963550 0.733070 0.869870 -0.524417
O13   O     O_R   0.912470 0.560570 0.006790 -0.536192
O14   O     O_R   0.087530 0.060570 0.993210 -0.536205
C49   C     C_R   0.887187 0.393201 0.004073 0.696662
C50   C     C_R   0.112814 0.893203 0.995929 0.696604
O15   O     O_R   0.032920 0.562940 0.138050 -0.550731
O16   O     O_R   0.967080 0.062940 0.861950 -0.550744
O17   O     O_R   0.084790 0.730500 0.002090 -0.500444
O18   O     O_R   0.915210 0.230500 0.997910 -0.500458
C51   C     C_R   0.045125 0.394702 0.174650 0.797453
C52   C     C_R   0.954872 0.894722 0.825349 0.797434
O19   O     O_3   0.016820 0.396170 0.955260 -0.374337
O20   O     O_3   0.983180 0.896170 0.044740 -0.374356
V3    V     V_3+5 0.996880 0.672090 0.008300 1.635799
V4    V     V_3+5 0.003120 0.172090 0.991700 1.635750
F1    F     F_    0.178775 0.580082 0.956545 -0.663347
F2    F     F_    0.821220 0.080043 0.043427 -0.663348
F3    F     F_    0.826998 0.805420 0.739865 -0.659221
F4    F     F_    0.173031 0.305760 0.260113 -0.659245
C53   C     C_2   0.743962 0.080287 0.695371 0.909389
O21   O     O_2   0.716322 0.056545 0.754690 -0.522192
O22   O     O_R   0.794578 0.205641 0.712746 -0.657427
H15   H     H_    0.804587 0.264590 0.777339 0.317196
C54   C     C_2   0.255973 0.580836 0.304709 0.909355
O23   O     O_2   0.283611 0.557339 0.245369 -0.522122
O24   O     O_R   0.205322 0.706069 0.287395 -0.657454
H16   H     H_    0.195285 0.765134 0.222818 0.317179
C55   C     C_2   0.207432 0.086146 0.989603 0.911217
O25   O     O_2   0.227266 0.135763 0.924840 -0.530973
O26   O     O_R   0.211135 0.205277 0.065159 -0.574048
H17   H     H_    0.235161 0.323516 0.061740 0.373944
C56   C     C_2   0.792571 0.586132 0.010419 0.911284
O27   O     O_2   0.772745 0.635705 0.075193 -0.530963
O28   O     O_R   0.788854 0.705308 0.934862 -0.574004
H18   H     H_    0.764818 0.823523 0.938284 0.373974
F5    F     F_    0.318561 0.950149 0.092469 -0.667424
F6    F     F_    0.681439 0.450232 0.907543 -0.667458
F7    F     F_    0.674512 0.800758 0.254907 -0.699524
F8    F     F_    0.325505 0.300372 0.745061 -0.699514
F9    F     F_    0.975695 0.982294 0.513582 -0.639767
F10   F     F_    0.024266 0.481504 0.486433 -0.639751

loop_
_geom_bond_atom_site_label_1
_geom_bond_atom_site_label_2
_ccdc_geom_bond_type
O24   H16   S    
C31   H11   S    
C56   O28   S    
C53   O21   D    
C5    F1    S    
O2    C4    A    
C2    O7    A    
O22   H15   S    
C13   C19   A    
O5    C3    A    
C4    C11   S    
O13   V3    S    
C36   C54   S    
O18   V4    S    
C10   C12   D    
C21   C23   A    
C48   F8    S    
C16   C48   A    
C33   H3    S    
C49   O18   A    
O14   C50   A    
C34   H4    S    
C44   C46   A    
C3    C12   S    
C31   C33   A    
C27   C35   A    
O11   V4    S    
C7    C55   S    
O11   C51   A    
C15   C45   A    
C38   C40   A    
C35   C37   A    
C16   C46   A    
C36   C38   A    
C56   O27   D    
C17   C19   A    
C20   H10   S    
C32   H12   S    
C38   H8    S    
C19   H9    S    
O12   V3    S    
C8    C56   S    
O15   V3    S    
C21   F3    S    
C46   H6    S    
O6    V2    S    
C27   C29   A    
C28   C30   A    
C50   O17   A    
C17   F9    S    
C30   C32   A    
C15   C47   A    
C39   C41   A    
O17   V3    S    
C40   C42   A    
O4    C2    A    
C39   C43   A    
C13   C21   A    
O16   C52   A    
C35   C53   S    
C37   C39   A    
C18   C20   A    
O4    V2    S    
C13   C52   S    
C30   C42   A    
C54   O23   D    
O6    C4    A    
O13   C49   A    
C55   O26   S    
O1    V2    S    
C37   H7    S    
C18   F10   S    
O2    V1    S    
C29   C31   A    
C28   C36   A    
C29   C41   A    
C54   O24   S    
C9    C11   D    
C47   F7    S    
C42   C48   A    
O19   V4    S    
O12   C52   A    
C14   C51   S    
O3    V1    S    
C44   H14   S    
C25   C33   A    
C1    C16   S    
C40   C44   A    
C26   C34   A    
C9    H1    S    
C8    C49   S    
C6    C10   S    
C43   H13   S    
O3    C1    A    
C53   O22   S    
C24   C28   A    
C11   F5    S    
O26   H17   S    
O16   V4    S    
C6    F2    S    
C22   C24   A    
O7    V1    S    
C1    O8    A    
C23   C25   A    
O8    V2    S    
O28   H18   S    
C45   H5    S    
C24   C26   A    
O14   V4    S    
C41   C47   A    
O5    V1    S    
C5    C7    D    
C17   C25   A    
C6    C8    D    
C18   C26   A    
C23   C27   A    
C7    C50   S    
C5    C9    S    
C12   F6    S    
C43   C45   A    
C14   C20   A    
C32   C34   A    
C22   F4    S    
C2    C15   S    
O20   V3    S    
C14   C22   A    
C10   H2    S    
O9    V2    S    
C55   O25   D    
O10   V1    S    
O1    C3    A    
O15   C51   A    
