data_mof_unit_68151.cif
_audit_creation_date              2012-12-11T16:11:54-0500
_audit_creation_method            fapswitch 2.2
_symmetry_space_group_name_H-M    P1
_symmetry_Int_Tables_number       1
_space_group_crystal_system       triclinic
_cell_length_a                    7.005642
_cell_length_b                    14.368746
_cell_length_c                    15.906554
_cell_angle_alpha                 89.598164
_cell_angle_beta                  88.459081
_cell_angle_gamma                 89.166709
_cell_volume                      1600.40672665

loop_
_atom_site_label
_atom_site_type_symbol
_atom_type_description
_atom_site_fract_x
_atom_site_fract_y
_atom_site_fract_z
_atom_type_partial_charge
O1    O     O_R   0.638960 0.835150 0.161940 -0.537710
O2    O     O_R   0.361040 0.164850 0.838060 -0.537203
O3    O     O_R   0.309170 0.846340 0.337470 -0.535927
O4    O     O_R   0.690830 0.153660 0.662530 -0.536874
O5    O     O_R   0.138810 0.664830 0.338070 -0.514487
O6    O     O_R   0.861190 0.335170 0.661930 -0.530232
C1    C     C_R   0.476858 0.869087 0.366283 0.713942
C2    C     C_R   0.524176 0.134522 0.631675 0.774058
O7    O     O_R   0.309250 0.846350 0.162570 -0.552431
O8    O     O_R   0.690750 0.153650 0.837430 -0.549188
O9    O     O_R   0.138880 0.664840 0.161920 -0.533032
O10   O     O_R   0.861120 0.335160 0.838080 -0.536190
C3    C     C_R   0.479060 0.867431 0.132747 0.676012
C4    C     C_R   0.520597 0.130805 0.865565 0.696434
O11   O     O_R   0.638880 0.835150 0.338090 -0.545447
O12   O     O_R   0.361120 0.164850 0.661910 -0.548041
O13   O     O_3   0.472380 0.690440 0.250000 -0.356004
O14   O     O_3   0.527620 0.309560 0.750000 -0.354046
V1    V     V_3+5 0.197550 0.761040 0.250010 1.484637
V2    V     V_3+5 0.802450 0.238960 0.749990 1.527455
O15   O     O_R   0.809160 0.653640 0.162540 -0.534461
O16   O     O_R   0.190840 0.346360 0.837460 -0.538409
C5    C     C_R   0.980834 0.634454 0.131660 0.822225
C6    C     C_R   0.019157 0.364874 0.868662 0.813623
O17   O     O_R   0.809090 0.653640 0.337440 -0.540084
O18   O     O_R   0.190910 0.346360 0.662560 -0.511979
C7    C     C_R   0.976726 0.631934 0.366462 0.824619
C8    C     C_R   0.022588 0.368068 0.633985 0.817486
V3    V     V_3+5 0.697540 0.738950 0.250000 1.491086
V4    V     V_3+5 0.302460 0.261050 0.750000 1.564933
O19   O     O_3   0.972580 0.809550 0.250010 -0.396626
O20   O     O_3   0.027420 0.190450 0.749990 -0.392980
C9    C     C_3   0.171952 0.526164 0.476426 0.537322
C10   C     C_3   0.821106 0.474230 0.526832 0.553179
C11   C     C_3   0.084601 0.537937 0.565724 0.350519
C12   C     C_3   0.908220 0.461948 0.437075 0.268911
C13   C     C_3   0.010915 0.437596 0.564013 -0.403634
C14   C     C_3   0.983492 0.563171 0.438141 -0.473293
C15   C     C_3   0.097063 0.426248 0.474175 0.241107
C16   C     C_3   0.896280 0.574477 0.528629 0.216780
C17   C     C_3   0.916311 0.423138 0.032171 0.274685
C18   C     C_3   0.082161 0.575675 0.968070 0.272973
C19   C     C_3   0.096570 0.468357 0.067208 0.312364
C20   C     C_3   0.902211 0.530064 0.933026 0.300458
C21   C     C_3   0.998177 0.565789 0.060054 -0.369092
C22   C     C_3   0.001281 0.432940 0.940425 -0.366567
C23   C     C_3   0.819196 0.519885 0.023629 0.301095
C24   C     C_3   0.180059 0.478944 0.976647 0.301966
C25   C     C_3   0.677298 0.985931 0.466411 0.430369
C26   C     C_3   0.330695 0.025027 0.527640 0.469363
C27   C     C_3   0.585357 0.084748 0.467179 -0.436789
C28   C     C_3   0.421871 0.926104 0.529880 -0.398184
H1    H     H_    0.650121 0.149874 0.443102 0.127036
H2    H     H_    0.352051 0.863560 0.557058 0.135680
C29   C     C_3   0.515686 0.067728 0.559079 -0.244475
C30   C     C_3   0.489412 0.940988 0.435977 -0.272512
C31   C     C_3   0.610764 0.970749 0.558671 0.437582
C32   C     C_3   0.399790 0.039657 0.436054 0.451870
C33   C     C_3   0.635993 0.935538 0.986656 0.557373
C34   C     C_3   0.361672 0.060689 0.008901 0.562297
C35   C     C_3   0.475257 0.953781 0.923895 -0.277857
C36   C     C_3   0.522279 0.042838 0.071765 -0.297276
H3    H     H_    0.456239 0.917714 0.863263 0.129597
H4    H     H_    0.542786 0.080480 0.131346 0.112856
C37   C     C_3   0.506826 0.059416 0.934953 -0.108971
C38   C     C_3   0.491427 0.936866 0.061211 -0.110603
C39   C     C_3   0.669456 0.040633 0.996802 -0.255929
C40   C     C_3   0.328191 0.955489 0.998986 -0.253252
H5    H     H_    0.808520 0.075765 0.991563 0.162592
H6    H     H_    0.188334 0.920579 0.002290 0.164835
O21   O     O_3   0.184693 0.572585 0.634362 -0.517615
C41   C     C_3   0.196273 0.670246 0.628507 -0.128717
H7    H     H_    0.212522 0.696473 0.562653 0.119897
H8    H     H_    0.322679 0.692783 0.663132 0.132099
H9    H     H_    0.068350 0.702681 0.659273 0.130373
O22   O     O_3   0.814067 0.424756 0.367800 -0.533239
C42   C     C_3   0.774525 0.330130 0.383354 -0.247729
H10   H     H_    0.690127 0.320138 0.442830 0.188584
H11   H     H_    0.907003 0.286990 0.383813 0.154958
H12   H     H_    0.688147 0.303852 0.331556 0.118374
O23   O     O_3   0.783543 0.868218 0.977559 -0.565772
C43   C     C_3   0.882294 0.883022 0.900216 -0.317713
H13   H     H_    0.937149 0.955110 0.894251 0.161778
H14   H     H_    0.790711 0.866949 0.846370 0.141365
H15   H     H_    0.007876 0.835224 0.896697 0.187323
O24   O     O_3   0.214937 0.128709 0.015287 -0.563184
C44   C     C_3   0.105121 0.112801 0.089281 -0.338939
H16   H     H_    0.190296 0.125429 0.145098 0.131611
H17   H     H_    0.046194 0.041364 0.092096 0.154690
H18   H     H_    0.983093 0.162806 0.091319 0.195563
F1    F     F_    0.352144 0.551175 0.450194 -0.664105
F2    F     F_    0.638988 0.448949 0.552847 -0.600076
O25   O     O_3   0.203817 0.346834 0.449109 -0.554771
C45   C     C_3   0.283781 0.361849 0.368079 -0.147266
H19   H     H_    0.179299 0.392383 0.324039 0.160171
H20   H     H_    0.333333 0.294085 0.342325 0.125214
H21   H     H_    0.409105 0.407713 0.370881 0.237492
O26   O     O_3   0.792025 0.648659 0.566135 -0.554624
C46   C     C_3   0.667754 0.689172 0.507967 -0.106111
H22   H     H_    0.611625 0.638789 0.463432 0.242072
H23   H     H_    0.741598 0.745602 0.472972 0.109353
H24   H     H_    0.543360 0.719956 0.542013 0.117343
O27   O     O_3   0.202771 0.441915 0.138596 -0.536655
C47   C     C_3   0.215068 0.343791 0.148224 -0.247390
H25   H     H_    0.184091 0.304186 0.090906 0.175597
H26   H     H_    0.119091 0.319533 0.199810 0.139305
H27   H     H_    0.359956 0.323484 0.167632 0.119617
O28   O     O_3   0.792331 0.552425 0.861611 -0.527778
C48   C     C_3   0.783080 0.649402 0.845520 -0.187996
H28   H     H_    0.827930 0.693080 0.898285 0.160332
H29   H     H_    0.635519 0.670510 0.831407 0.126017
H30   H     H_    0.866614 0.666691 0.787616 0.150774
O29   O     O_3   0.828292 0.342951 0.066142 -0.568993
C49   C     C_3   0.758143 0.361011 0.148994 -0.234530
H31   H     H_    0.626244 0.403753 0.149387 0.201614
H32   H     H_    0.857889 0.399670 0.188177 0.189676
H33   H     H_    0.726426 0.293642 0.180377 0.119934
O30   O     O_3   0.169562 0.656165 0.934424 -0.568721
C50   C     C_3   0.238432 0.638732 0.851329 -0.230546
H34   H     H_    0.138370 0.600368 0.812298 0.185663
H35   H     H_    0.369526 0.595534 0.850474 0.208870
H36   H     H_    0.270224 0.706197 0.820110 0.121382
O31   O     O_3   0.630870 0.538479 0.053457 -0.536540
C51   C     C_3   0.568813 0.627897 0.028278 0.015836
H37   H     H_    0.680701 0.681704 0.028330 0.086923
H38   H     H_    0.450942 0.651122 0.071180 0.160502
H39   H     H_    0.513496 0.624809 0.965062 0.176845
O32   O     O_3   0.368479 0.462483 0.945809 -0.535892
C52   C     C_3   0.436488 0.373949 0.970165 0.015361
H40   H     H_    0.559894 0.354582 0.928884 0.162606
H41   H     H_    0.330675 0.317776 0.966497 0.082201
H42   H     H_    0.485679 0.376519 0.034398 0.177960
O33   O     O_3   0.862137 0.963067 0.434763 -0.536071
C53   C     C_3   0.888637 0.002568 0.353641 -0.078202
H43   H     H_    0.906133 0.079000 0.356677 0.110830
H44   H     H_    0.770129 0.988121 0.310999 0.080578
H45   H     H_    0.020105 0.972308 0.324225 0.193174
O34   O     O_3   0.145158 0.044852 0.560334 -0.528036
C54   C     C_3   0.085594 0.135316 0.535861 -0.005275
H46   H     H_    0.991152 0.131603 0.481799 0.138699
H47   H     H_    0.204112 0.183598 0.519904 0.128102
H48   H     H_    0.002292 0.167136 0.588177 0.139526
O35   O     O_3   0.726398 0.951570 0.628268 -0.541524
C55   C     C_3   0.789239 0.858908 0.627942 -0.163950
H49   H     H_    0.870121 0.842134 0.568895 0.177448
H50   H     H_    0.667511 0.812044 0.640864 0.132529
H51   H     H_    0.889293 0.849067 0.680217 0.134283
O36   O     O_3   0.281172 0.080176 0.375592 -0.555796
C56   C     C_3   0.384707 0.093642 0.299606 -0.335107
H52   H     H_    0.534205 0.116115 0.307521 0.120827
H53   H     H_    0.314488 0.151049 0.265206 0.147713
H54   H     H_    0.382012 0.029453 0.261293 0.140343

loop_
_geom_bond_atom_site_label_1
_geom_bond_atom_site_label_2
_ccdc_geom_bond_type
C38   C40   S    
C44   H16   S    
O25   C45   S    
C5    C21   S    
C10   C13   S    
O13   V3    S    
O4    C2    A    
V1    O19   S    
O32   C52   S    
C53   H45   S    
C47   H26   S    
O23   C43   S    
O31   C51   S    
C42   H10   S    
O9    V1    S    
C9    C15   S    
C36   C39   S    
C10   C16   S    
C11   C13   S    
O29   C49   S    
O3    C1    A    
C56   H53   S    
C33   C38   S    
C16   O26   S    
C54   H48   S    
C32   O36   S    
C42   H12   S    
C7    C14   S    
O12   V4    S    
O35   C55   S    
C25   C31   S    
O28   C48   S    
C34   C36   S    
C35   H3    S    
O7    C3    A    
O30   C50   S    
C15   O25   S    
C36   H4    S    
C12   O22   S    
C33   C39   S    
O5    C7    A    
C44   H17   S    
O7    V1    S    
O6    C8    A    
O8    V2    S    
C37   C39   S    
C26   C28   S    
C17   C22   S    
O3    V1    S    
O14   V4    S    
V4    O20   S    
C19   C24   S    
C27   C29   S    
C20   C23   S    
C41   H7    S    
C52   H42   S    
C21   C23   S    
C11   O21   S    
C2    O12   A    
C17   C19   S    
C55   H51   S    
C18   C20   S    
C1    C30   S    
C41   H9    S    
C2    C29   S    
C47   H25   S    
C28   H2    S    
O11   V3    S    
C10   F2    S    
C3    C38   S    
C20   O28   S    
O15   C5    A    
O17   V3    S    
C22   C24   S    
C33   C35   S    
C31   O35   S    
C26   C32   S    
C36   C38   S    
O36   C56   S    
C41   H8    S    
O8    C4    A    
C56   H54   S    
C34   O24   S    
O24   C44   S    
C18   O30   S    
C53   H44   S    
C1    O11   A    
C20   C22   S    
C45   H21   S    
C25   C27   S    
O15   V3    S    
C43   H13   S    
C27   H1    S    
C18   C21   S    
C24   O32   S    
C23   O31   S    
C46   H22   S    
C54   H46   S    
C26   C29   S    
O10   V2    S    
O1    V3    S    
C17   C23   S    
C42   H11   S    
C27   C32   S    
C18   C24   S    
O22   C42   S    
C45   H20   S    
C19   C21   S    
C34   C40   S    
C50   H35   S    
C51   H39   S    
C55   H50   S    
C46   H23   S    
C34   C37   S    
O18   V4    S    
C43   H14   S    
C29   C31   S    
O33   C53   S    
O16   C6    A    
C48   H30   S    
O1    C3    A    
O13   V1    S    
C12   C14   S    
C43   H15   S    
C28   C31   S    
C51   H38   S    
C52   H40   S    
V2    O20   S    
C50   H36   S    
C25   O33   S    
O16   V4    S    
C12   C15   S    
C33   O23   S    
C17   O29   S    
C55   H49   S    
C49   H32   S    
C50   H34   S    
C26   O34   S    
C49   H31   S    
C53   H43   S    
O5    V1    S    
O17   C7    A    
C25   C30   S    
O6    V2    S    
O10   C6    A    
O18   C8    A    
C9    C14   S    
O2    V4    S    
C6    C22   S    
C48   H29   S    
C11   C16   S    
O21   C41   S    
V3    O19   S    
C48   H28   S    
C14   C16   S    
C54   H47   S    
C35   C40   S    
C8    C13   S    
O9    C5    A    
C9    C11   S    
C4    C37   S    
C30   C32   S    
O14   V2    S    
C45   H19   S    
O2    C4    A    
C19   O27   S    
C49   H33   S    
O34   C54   S    
O4    V2    S    
C35   C37   S    
C46   H24   S    
C10   C12   S    
C13   C15   S    
O26   C46   S    
C44   H18   S    
O27   C47   S    
C40   H6    S    
C39   H5    S    
C56   H52   S    
C47   H27   S    
C28   C30   S    
C51   H37   S    
C52   H41   S    
C9    F1    S    
