data_mof_unit_60314.cif
_audit_creation_date              2012-10-26T19:16:18-0400
_audit_creation_method            fapswitch 2.2
_symmetry_space_group_name_H-M    P1
_symmetry_Int_Tables_number       1
_space_group_crystal_system       triclinic
_cell_length_a                    14.754206
_cell_length_b                    15.559
_cell_length_c                    16.00553
_cell_angle_alpha                 89.971587
_cell_angle_beta                  90.030176
_cell_angle_gamma                 70.983831
_cell_volume                      3473.72361075

loop_
_atom_site_label
_atom_site_type_symbol
_atom_type_description
_atom_site_fract_x
_atom_site_fract_y
_atom_site_fract_z
_atom_type_partial_charge
C1    C     C_R   0.499978 0.499977 0.340891 0.552738
C2    C     C_R   0.500522 0.499187 0.087317 -0.005057
C3    C     C_R   0.442762 0.457846 0.956107 0.100890
C4    C     C_R   0.558342 0.540500 0.043989 0.104636
C5    C     C_1   0.500233 0.499602 0.823102 0.027279
C6    C     C_1   0.500283 0.499444 0.176958 0.030001
C7    C     C_1   0.500084 0.499708 0.251939 0.040999
C8    C     C_1   0.500135 0.499790 0.748104 0.033879
C9    C     C_R   0.943154 0.526082 0.571465 -0.087534
C10   C     C_R   0.056811 0.474076 0.428528 -0.076767
C11   C     C_R   0.902878 0.499999 0.499995 0.005505
C12   C     C_R   0.500048 0.499957 0.659121 0.541421
C13   C     C_R   0.097067 0.500203 0.499989 0.012753
C14   C     C_R   0.961025 0.473953 0.428535 -0.083583
C15   C     C_R   0.038958 0.526157 0.571469 -0.084756
C16   C     C_R   0.557180 0.326551 0.496813 0.558490
C17   C     C_R   0.442586 0.673811 0.499491 0.524196
C18   C     C_1   0.802753 0.499975 0.499999 0.170981
C19   C     C_1   0.197189 0.500201 0.500010 0.183877
C20   C     C_R   0.588240 0.228925 0.474515 0.029203
C21   C     C_R   0.406498 0.774844 0.495329 0.000272
C22   C     C_R   0.680498 0.108018 0.382335 -0.092493
C23   C     C_R   0.552069 0.939394 0.355436 0.148795
C24   C     C_R   0.277791 0.917372 0.518706 -0.065548
C25   C     C_R   0.668086 0.191664 0.421984 0.193118
C26   C     C_R   0.314753 0.823533 0.527934 0.208992
C27   C     C_R   0.525524 0.178866 0.490545 0.214502
C28   C     C_R   0.461925 0.823912 0.457567 0.220170
C29   C     C_R   0.528612 0.104261 0.439092 0.020128
C30   C     C_R   0.423636 0.919833 0.448648 0.034640
C31   C     C_R   0.610668 0.064825 0.388920 -0.000906
C32   C     C_R   0.331167 0.966620 0.481014 -0.075497
C33   C     C_R   0.455863 0.063166 0.441469 -0.021097
C34   C     C_R   0.358737 0.110969 0.460627 0.237750
C35   C     C_R   0.478774 0.971938 0.415791 -0.007788
C36   C     C_R   0.620575 0.984185 0.344334 0.265490
C37   C     C_R   0.295594 0.062810 0.477968 0.256032
C38   C     C_R   0.558239 0.540637 0.956152 0.101318
C39   C     C_R   0.442853 0.457724 0.043952 0.101057
C40   C     C_R   0.500394 0.499373 0.912766 -0.004962
Cu1   Cu    Cu3+1 0.589210 0.500030 0.500000 1.077744
Cu2   Cu    Cu3+1 0.410790 0.499970 0.500000 1.065180
H1    H     H_    0.742975 0.078983 0.343319 0.182881
H2    H     H_    0.485028 0.237206 0.598341 0.338857
H3    H     H_    0.304376 0.733910 0.607742 0.341737
H4    H     H_    0.782382 0.203891 0.369324 0.332197
H5    H     H_    0.209002 0.951739 0.547225 0.178195
H6    H     H_    0.067686 0.546576 0.627521 0.139660
H7    H     H_    0.932333 0.453454 0.372503 0.139939
H8    H     H_    0.900437 0.546477 0.627510 0.140414
H9    H     H_    0.099555 0.453626 0.372503 0.147951
H10   H     H_    0.707155 0.886571 0.278528 0.365248
H11   H     H_    0.160418 0.075906 0.474067 0.327192
H12   H     H_    0.559862 0.728317 0.401976 0.354570
I1    I     I_    0.533311 0.853346 0.256711 -0.254476
I2    I     I_    0.295186 0.253145 0.434788 -0.194607
I3    I     I_    0.645558 0.602171 0.112584 -0.212550
I4    I     I_    0.355997 0.395677 0.887529 -0.222308
I5    I     I_    0.644986 0.602882 0.887663 -0.229285
I6    I     I_    0.356483 0.395105 0.112542 -0.224961
N1    N     N_1   0.276700 0.500030 0.499980 -0.162053
N2    N     N_1   0.723300 0.499970 0.500020 -0.166940
O1    O     O_R   0.575310 0.500040 0.380310 -0.484254
O2    O     O_3   0.200753 0.111867 0.493441 -0.648128
O3    O     O_3   0.556892 0.780909 0.437970 -0.660817
O4    O     O_3   0.464305 0.198479 0.558557 -0.649851
O5    O     O_3   0.260423 0.782726 0.573211 -0.660843
O6    O     O_3   0.731374 0.238951 0.408147 -0.658355
O7    O     O_R   0.424690 0.499960 0.619690 -0.492329
O8    O     O_R   0.424640 0.500000 0.380310 -0.485073
O9    O     O_R   0.575360 0.500000 0.619690 -0.487688
O10   O     O_R   0.617590 0.370200 0.500000 -0.434109
O11   O     O_R   0.382410 0.629800 0.500000 -0.483358
O12   O     O_R   0.466910 0.370160 0.500000 -0.479616
O13   O     O_R   0.533090 0.629840 0.500000 -0.481711
O14   O     O_3   0.696833 0.951560 0.289951 -0.671576

loop_
_geom_bond_atom_site_label_1
_geom_bond_atom_site_label_2
_ccdc_geom_bond_type
C30   C32   A    
C12   O7    A    
C11   C18   S    
C34   I2    S    
C27   C29   A    
C34   C37   A    
Cu1   Cu2   S    
H2    O4    S    
C16   O10   A    
C21   C26   A    
H12   O3    S    
C30   C35   A    
C16   O12   A    
C26   O5    S    
C15   H6    S    
C24   C26   A    
C11   C14   A    
C14   H7    S    
C20   C25   A    
C29   C33   A    
Cu2   O8    S    
C36   O14   S    
C33   C35   A    
C2    C39   A    
C22   C25   A    
C4    I3    S    
H3    O5    S    
C16   C20   S    
Cu1   O9    S    
C3    C39   A    
C17   O11   A    
C2    C6    S    
C25   O6    S    
Cu1   N2    S    
C10   H9    S    
C1    O1    A    
Cu2   O12   S    
C22   C31   A    
C13   C19   S    
C10   C14   A    
C18   N2    T    
Cu2   O7    S    
C17   C21   S    
C2    C4    A    
C24   C32   A    
H4    O6    S    
Cu1   O13   S    
C22   H1    S    
C8    C12   S    
C33   C34   A    
C32   C37   A    
C9    C11   A    
Cu2   N1    S    
Cu1   O10   S    
C21   C28   A    
C4    C38   A    
C3    C40   A    
C23   C35   A    
C13   C15   A    
Cu1   O1    S    
C37   O2    S    
Cu2   O11   S    
C1    C7    S    
C24   H5    S    
C12   O9    A    
C9    H8    S    
H10   O14   S    
C10   C13   A    
C5    C8    T    
C23   I1    S    
C6    C7    T    
C20   C27   A    
C1    O8    A    
C28   C30   A    
C28   O3    S    
C9    C15   A    
C29   C31   A    
C27   O4    S    
C38   C40   A    
C19   N1    T    
C39   I6    S    
H11   O2    S    
C38   I5    S    
C3    I4    S    
C23   C36   A    
C5    C40   S    
C17   O13   A    
C31   C36   A    
