data_mof_unit_59084.cif
_audit_creation_date              2013-03-05T16:35:51-0500
_audit_creation_method            fapswitch 2.2
_symmetry_space_group_name_H-M    P1
_symmetry_Int_Tables_number       1
_space_group_crystal_system       triclinic
_cell_length_a                    23.631181
_cell_length_b                    9.086162
_cell_length_c                    7.773886
_cell_angle_alpha                 90.220965
_cell_angle_beta                  90.009666
_cell_angle_gamma                 89.82692
_cell_volume                      1669.16340045

loop_
_atom_site_label
_atom_site_type_symbol
_atom_site_description
_atom_site_fract_x
_atom_site_fract_y
_atom_site_fract_z
_atom_type_partial_charge
O1    O     O_R   0.500000 0.288390 0.642760 -0.575061
O2    O     O_R   0.500000 0.711610 0.357240 -0.580726
O3    O     O_R   0.500000 0.711610 0.642760 -0.581963
O4    O     O_R   0.500000 0.288390 0.357240 -0.576502
C1    C     C_R   0.500018 0.219987 0.499798 0.847342
C2    C     C_R   0.499997 0.780012 0.500202 0.828738
O5    O     O_R   0.417880 0.500000 0.642820 -0.564448
O6    O     O_R   0.582120 0.500000 0.357180 -0.563769
O7    O     O_R   0.582120 0.500000 0.642820 -0.556538
O8    O     O_R   0.417880 0.500000 0.357180 -0.554339
C3    C     C_R   0.208300 0.501760 0.500050 0.291930
C4    C     C_R   0.790812 0.493473 0.500470 0.326273
C5    C     C_R   0.390561 0.500824 0.499978 0.827230
C6    C     C_R   0.609352 0.499737 0.500025 0.829788
Cu1   Cu    Cu3+1 0.500000 0.500000 0.669080 1.029971
Cu2   Cu    Cu3+1 0.500000 0.500000 0.330920 1.030777
H1    H     H_    0.214887 0.582556 0.759349 0.155085
H2    H     H_    0.784089 0.382066 0.742633 0.146901
H3    H     H_    0.215550 0.421336 0.239958 0.158711
H4    H     H_    0.785717 0.605970 0.259283 0.140527
C7    C     C_R   0.297417 0.554255 0.645596 0.078328
C8    C     C_R   0.701929 0.433225 0.638192 0.073253
C9    C     C_R   0.297431 0.452248 0.354129 0.070240
C10   C     C_R   0.702484 0.561479 0.361786 0.077757
C11   C     C_R   0.327800 0.502522 0.499892 -0.054928
C12   C     C_R   0.671945 0.498426 0.500131 -0.050408
C13   C     C_R   0.878807 0.612218 0.568755 0.548053
C14   C     C_R   0.119472 0.373669 0.454747 0.541743
C15   C     C_R   0.879594 0.374732 0.436880 0.544514
C16   C     C_R   0.118075 0.623611 0.547911 0.567326
N1    N     N_R   0.851416 0.493328 0.502185 -0.447855
N2    N     N_R   0.147196 0.499745 0.500683 -0.454057
C17   C     C_R   0.939444 0.371430 0.435102 -0.098893
C18   C     C_R   0.058572 0.621362 0.562200 -0.052038
C19   C     C_R   0.938594 0.616873 0.571662 -0.065476
C20   C     C_R   0.059737 0.371420 0.442392 -0.096320
C21   C     C_R   0.969008 0.494606 0.503224 -0.069612
C22   C     C_R   0.029058 0.495682 0.502703 -0.090019
C23   C     C_R   0.970693 0.250667 0.366466 0.165293
C24   C     C_R   0.028236 0.740731 0.634578 0.178361
C25   C     C_R   0.968976 0.738394 0.641077 0.099177
C26   C     C_R   0.029818 0.250180 0.371355 0.159765
C27   C     C_1   0.500016 0.065373 0.499721 -0.166069
C28   C     C_1   0.500009 0.934622 0.500279 -0.169546
C29   C     C_R   0.238139 0.548401 0.645876 -0.140691
C30   C     C_R   0.761086 0.431725 0.637038 -0.166716
C31   C     C_R   0.238294 0.456447 0.353907 -0.158755
C32   C     C_R   0.761788 0.557601 0.363511 -0.148456
N3    N     N_1   0.500000 0.500000 0.076820 -0.031693
N4    N     N_1   0.500000 0.500000 0.923180 -0.031847
O9    O     O_2   0.847532 0.724804 0.630753 -0.559170
O10   O     O_2   0.150013 0.250743 0.424695 -0.551364
O11   O     O_2   0.849062 0.261386 0.374560 -0.559821
O12   O     O_2   0.146865 0.749133 0.577968 -0.502883
N5    N     N_3   0.944103 0.125480 0.287595 -0.538717
H5    H     H_    0.919250 0.070892 0.378091 0.257747
H6    H     H_    0.919974 0.159775 0.182334 0.260335
N6    N     N_3   0.057654 0.863440 0.709561 -0.501065
H7    H     H_    0.047362 0.869538 0.840232 0.239825
H8    H     H_    0.043768 0.960066 0.650211 0.241126
N7    N     N_3   0.941498 0.861722 0.721993 -0.591779
H9    H     H_    0.917591 0.825361 0.826568 0.267400
H10   H     H_    0.916319 0.916805 0.632396 0.267746
N8    N     N_3   0.057943 0.126214 0.293694 -0.537411
H11   H     H_    0.079790 0.066844 0.387474 0.278110
H12   H     H_    0.085358 0.162792 0.197475 0.253222
N9    N     N_3   0.326615 0.615645 0.791393 -0.554825
H13   H     H_    0.345556 0.713476 0.751043 0.226612
H14   H     H_    0.297970 0.645440 0.888023 0.211914
N10   N     N_3   0.672547 0.365442 0.778220 -0.553037
H15   H     H_    0.685215 0.417099 0.892292 0.240817
H16   H     H_    0.685170 0.255183 0.784382 0.226505
N11   N     N_3   0.326295 0.392844 0.207254 -0.547647
H17   H     H_    0.312682 0.284492 0.189146 0.232023
H18   H     H_    0.314114 0.453310 0.099375 0.235713
N12   N     N_3   0.673318 0.632161 0.222154 -0.553749
H19   H     H_    0.701772 0.663035 0.125876 0.220752
H20   H     H_    0.655487 0.729344 0.270453 0.221262

loop_
_geom_bond_atom_site_label_1
_geom_bond_atom_site_label_2
_geom_bond_distance
_ccdc_geom_bond_type
N5    H5    1.044260 S    
N11   H17   1.045650 S    
C20   C26   1.420652 A    
C25   N7    1.436425 S    
C4    C32   1.394862 A    
O3    C2    1.272698 A    
C16   O12   1.349368 S    
C17   C23   1.422920 A    
C18   C24   1.413362 A    
N12   H20   1.045705 S    
C19   C21   1.422863 A    
C10   C12   1.418877 A    
H3    C31   1.083526 S    
N6    H8    1.045324 S    
Cu1   Cu2   2.628818 S    
C15   C17   1.414632 A    
Cu1   N4    1.975344 S    
N7    H10   1.044226 S    
C3    C31   1.399109 A    
C23   N5    1.436455 S    
N10   H15   1.045867 S    
O1    Cu1   1.932795 S    
O2    Cu2   1.932794 S    
O5    Cu1   1.951269 S    
C1    C27   1.404839 S    
O6    Cu2   1.951266 S    
C2    C28   1.404811 S    
C7    N9    1.438412 S    
N11   H18   1.044282 S    
C5    C11   1.483148 S    
O2    C2    1.271254 A    
C9    N11   1.433016 S    
H2    C30   1.083575 S    
C13   O9    1.347867 S    
C23   C26   1.397717 A    
C7    C29   1.401977 A    
C24   N6    1.437262 S    
C16   C18   1.410744 A    
C13   N1    1.361443 A    
N9    H13   1.045695 S    
C10   C32   1.401821 A    
C14   N2    1.367596 A    
C9    C31   1.397877 A    
N12   H19   1.045916 S    
C4    C30   1.393763 A    
O7    C6    1.283204 A    
C10   N12   1.438133 S    
C13   C19   1.413777 A    
N6    H7    1.045795 S    
C17   C21   1.421678 A    
N9    H14   1.045602 S    
N8    H12   1.045480 S    
O4    Cu2   1.934364 S    
C27   C28   1.188054 T    
C21   C22   1.419122 A    
C6    C12   1.479147 S    
H4    C32   1.083425 S    
C24   C25   1.401541 A    
C8    C30   1.398012 A    
C3    N2    1.444159 S    
N5    H6    1.045256 S    
C4    N1    1.432220 S    
O1    C1    1.271260 A    
C3    C29   1.399908 A    
C26   N8    1.437115 S    
Cu2   N3    1.975344 S    
O3    Cu1   1.934364 S    
C7    C11   1.418996 A    
O6    C6    1.283367 A    
C18   C22   1.415991 A    
H1    C29   1.083227 S    
O4    C1    1.272706 A    
O8    C5    1.284252 A    
N8    H11   1.044158 S    
C20   C22   1.418195 A    
O7    Cu1   1.951335 S    
C15   N1    1.361561 A    
O8    Cu2   1.951337 S    
C16   N2    1.366467 A    
C14   O10   1.347659 S    
C15   O11   1.347755 S    
C9    C11   1.416127 A    
N7    H9    1.045256 S    
C19   C25   1.423334 A    
O5    C5    1.284409 A    
C14   C20   1.415055 A    
N3    N4    1.194381 T    
C8    C12   1.416705 A    
N10   H16   1.045700 S    
C8    N10   1.433313 S    
