data_mof_unit_35574.cif
_audit_creation_date              2012-12-11T14:30:06-0500
_audit_creation_method            fapswitch 2.2
_symmetry_space_group_name_H-M    P1
_symmetry_Int_Tables_number       1
_space_group_crystal_system       triclinic
_cell_length_a                    13.002158
_cell_length_b                    13.002156
_cell_length_c                    26.484203
_cell_angle_alpha                 89.999951
_cell_angle_beta                  90.0
_cell_angle_gamma                 120.000401
_cell_volume                      3877.45348399

loop_
_atom_site_label
_atom_site_type_symbol
_atom_type_description
_atom_site_fract_x
_atom_site_fract_y
_atom_site_fract_z
_atom_type_partial_charge
C1    C     C_R   0.555847 0.457606 0.820904 0.562141
C2    C     C_R   0.901757 0.444151 0.679095 0.562159
C3    C     C_R   0.542394 0.098242 0.820904 0.562134
C4    C     C_R   0.555847 0.457606 0.679096 0.562143
C5    C     C_R   0.901758 0.444152 0.820904 0.562142
C6    C     C_R   0.542393 0.098240 0.679097 0.562147
C7    C     C_R   0.457606 0.555847 0.320904 0.562144
C8    C     C_R   0.444153 0.901759 0.179096 0.562138
C9    C     C_R   0.098240 0.542393 0.320903 0.562148
C10   C     C_R   0.457606 0.555847 0.179096 0.562140
C11   C     C_R   0.444152 0.901756 0.320905 0.562153
C12   C     C_R   0.098241 0.542394 0.179096 0.562137
C13   C     C_R   0.998371 0.507345 0.973374 0.016091
C14   C     C_R   0.508970 0.001618 0.526630 0.016093
C15   C     C_R   0.492651 0.491027 0.973373 0.016092
C16   C     C_R   0.998353 0.507334 0.526623 0.016093
C17   C     C_R   0.508975 0.001630 0.973373 0.016091
C18   C     C_R   0.492654 0.491023 0.526627 0.016092
C19   C     C_R   0.507341 0.998361 0.473376 0.016095
C20   C     C_R   0.001625 0.508973 0.026628 0.016091
C21   C     C_R   0.491026 0.492650 0.473373 0.016091
C22   C     C_R   0.507348 0.998375 0.026627 0.016091
C23   C     C_R   0.001608 0.508963 0.473369 0.016092
C24   C     C_R   0.491024 0.492654 0.026626 0.016092
C25   C     C_R   0.998243 0.693899 0.973730 -0.120061
C26   C     C_R   0.695649 0.001742 0.526274 -0.120090
C27   C     C_R   0.306095 0.304346 0.973729 -0.120065
C28   C     C_R   0.998222 0.693886 0.526267 -0.120061
C29   C     C_R   0.695646 0.001736 0.973728 -0.120066
C30   C     C_R   0.306099 0.304340 0.526270 -0.120062
C31   C     C_R   0.693896 0.998236 0.473733 -0.120058
C32   C     C_R   0.001748 0.695651 0.026271 -0.120063
C33   C     C_R   0.304346 0.306093 0.473729 -0.120063
C34   C     C_R   0.693896 0.998234 0.026270 -0.120062
C35   C     C_R   0.001726 0.695640 0.473726 -0.120080
C36   C     C_R   0.304342 0.306099 0.026270 -0.120065
C37   C     C_R   0.979951 0.589906 0.893347 0.126793
C38   C     C_R   0.609950 0.020042 0.606658 0.126867
C39   C     C_R   0.410091 0.390045 0.893346 0.126800
C40   C     C_R   0.979942 0.589899 0.606650 0.126783
C41   C     C_R   0.609955 0.020049 0.893345 0.126819
C42   C     C_R   0.410092 0.390042 0.606654 0.126801
C43   C     C_R   0.589902 0.979942 0.393349 0.126792
C44   C     C_R   0.020047 0.609955 0.106654 0.126800
C45   C     C_R   0.390043 0.410090 0.393346 0.126805
C46   C     C_R   0.589907 0.979950 0.106654 0.126797
C47   C     C_R   0.020036 0.609949 0.393342 0.126837
C48   C     C_R   0.390042 0.410093 0.106653 0.126799
C49   C     C_R   0.028683 0.518559 0.131606 0.019637
C50   C     C_R   0.489870 0.971307 0.368397 0.019644
C51   C     C_R   0.481439 0.510125 0.131605 0.019637
C52   C     C_R   0.028677 0.518556 0.368391 0.019645
C53   C     C_R   0.489876 0.971316 0.131606 0.019635
C54   C     C_R   0.481439 0.510124 0.368394 0.019638
C55   C     C_R   0.518556 0.028680 0.631608 0.019650
C56   C     C_R   0.971314 0.489874 0.868395 0.019640
C57   C     C_R   0.510125 0.481439 0.631605 0.019638
C58   C     C_R   0.518560 0.028688 0.868395 0.019638
C59   C     C_R   0.971306 0.489867 0.631603 0.019648
C60   C     C_R   0.510124 0.481440 0.868394 0.019636
C61   C     C_R   0.993606 0.598849 0.946507 0.050633
C62   C     C_R   0.605238 0.006383 0.553498 0.050621
C63   C     C_R   0.401147 0.394758 0.946506 0.050633
C64   C     C_R   0.993590 0.598838 0.553490 0.050632
C65   C     C_R   0.605241 0.006389 0.946506 0.050634
C66   C     C_R   0.401150 0.394754 0.553493 0.050633
C67   C     C_R   0.598845 0.993596 0.446510 0.050633
C68   C     C_R   0.006389 0.605241 0.053494 0.050633
C69   C     C_R   0.394757 0.401146 0.446506 0.050633
C70   C     C_R   0.598849 0.993604 0.053493 0.050634
C71   C     C_R   0.006372 0.605232 0.446502 0.050629
C72   C     C_R   0.394755 0.401150 0.053493 0.050632
C73   C     C_R   0.006493 0.418509 0.894184 0.050787
C74   C     C_R   0.412012 0.993497 0.605820 0.050764
C75   C     C_R   0.581486 0.587984 0.894183 0.050769
C76   C     C_R   0.006478 0.418498 0.605812 0.050812
C77   C     C_R   0.412017 0.993508 0.894184 0.050769
C78   C     C_R   0.581488 0.587982 0.605816 0.050767
C79   C     C_R   0.418506 0.006485 0.394187 0.050795
C80   C     C_R   0.993501 0.412015 0.105818 0.050771
C81   C     C_R   0.587984 0.581485 0.394183 0.050771
C82   C     C_R   0.418516 0.006501 0.105817 0.050772
C83   C     C_R   0.993492 0.412010 0.394179 0.050772
C84   C     C_R   0.587983 0.581488 0.105816 0.050767
C85   C     C_R   0.005035 0.416601 0.946969 0.018621
C86   C     C_R   0.411561 0.994954 0.553035 0.018618
C87   C     C_R   0.583396 0.588435 0.946968 0.018618
C88   C     C_R   0.005018 0.416590 0.553027 0.018623
C89   C     C_R   0.411568 0.994969 0.946969 0.018617
C90   C     C_R   0.583397 0.588432 0.553031 0.018620
C91   C     C_R   0.416598 0.005026 0.446972 0.018621
C92   C     C_R   0.994961 0.411564 0.053032 0.018617
C93   C     C_R   0.588435 0.583394 0.446968 0.018619
C94   C     C_R   0.416607 0.005043 0.053032 0.018617
C95   C     C_R   0.994946 0.411557 0.446964 0.018619
C96   C     C_R   0.588434 0.583398 0.053031 0.018617
C97   C     C_R   0.994859 0.318491 0.026182 -0.117478
C98   C     C_R   0.323629 0.005133 0.473823 -0.117488
C99   C     C_R   0.681507 0.676369 0.026180 -0.117480
C100  C     C_R   0.994844 0.318483 0.473814 -0.117480
C101  C     C_R   0.323638 0.005150 0.026181 -0.117476
C102  C     C_R   0.681509 0.676366 0.473819 -0.117477
C103  C     C_R   0.318489 0.994853 0.526184 -0.117477
C104  C     C_R   0.005140 0.323632 0.973821 -0.117479
C105  C     C_R   0.676369 0.681506 0.526180 -0.117475
C106  C     C_R   0.318497 0.994870 0.973820 -0.117479
C107  C     C_R   0.005123 0.323622 0.526176 -0.117494
C108  C     C_R   0.676367 0.681509 0.973819 -0.117479
Cr1   Cr    Cr6+3 0.487630 0.241180 0.750000 1.022887
Cr2   Cr    Cr6+3 0.753550 0.512370 0.750000 1.022886
Cr3   Cr    Cr6+3 0.758820 0.246450 0.750000 1.022910
Cr4   Cr    Cr6+3 0.241180 0.487630 0.250000 1.022889
Cr5   Cr    Cr6+3 0.512370 0.753550 0.250000 1.022892
Cr6   Cr    Cr6+3 0.246450 0.758820 0.250000 1.022896
H1    H     H_    0.001436 0.769185 0.044942 0.136437
H2    H     H_    0.767742 0.998548 0.455062 0.136430
H3    H     H_    0.230807 0.232253 0.044941 0.136436
H4    H     H_    0.001412 0.769174 0.455055 0.136438
H5    H     H_    0.767740 0.998539 0.044940 0.136433
H6    H     H_    0.230811 0.232247 0.455058 0.136439
H7    H     H_    0.769188 0.001439 0.544945 0.136422
H8    H     H_    0.998553 0.767744 0.955059 0.136439
H9    H     H_    0.232254 0.230803 0.544941 0.136438
H10   H     H_    0.769176 0.001410 0.955058 0.136438
H11   H     H_    0.998530 0.767729 0.544938 0.136435
H12   H     H_    0.232249 0.230810 0.955058 0.136437
H13   H     H_    0.992739 0.244129 0.045510 0.127331
H14   H     H_    0.251389 0.007258 0.454495 0.127327
H15   H     H_    0.755871 0.748611 0.045508 0.127328
H16   H     H_    0.992725 0.244121 0.454486 0.127332
H17   H     H_    0.251397 0.007274 0.045509 0.127333
H18   H     H_    0.755873 0.748608 0.454491 0.127323
H19   H     H_    0.244127 0.992735 0.545512 0.127332
H20   H     H_    0.007264 0.251391 0.954493 0.127332
H21   H     H_    0.748612 0.755869 0.545508 0.127323
H22   H     H_    0.244135 0.992752 0.954492 0.127328
H23   H     H_    0.007246 0.251380 0.545503 0.127322
H24   H     H_    0.748610 0.755872 0.954491 0.127326
O1    O     O_R   0.460870 0.120930 0.805240 -0.492957
O2    O     O_R   0.660060 0.539130 0.694760 -0.492956
O3    O     O_R   0.879070 0.339940 0.805240 -0.492941
O4    O     O_R   0.460870 0.120930 0.694760 -0.492963
O5    O     O_R   0.660060 0.539130 0.805240 -0.492956
O6    O     O_R   0.879070 0.339940 0.694760 -0.492939
O7    O     O_R   0.120930 0.460870 0.305240 -0.492958
O8    O     O_R   0.539130 0.660060 0.194760 -0.492959
O9    O     O_R   0.339940 0.879070 0.305240 -0.492952
O10   O     O_R   0.120930 0.460870 0.194760 -0.492958
O11   O     O_R   0.539130 0.660060 0.305240 -0.492947
O12   O     O_R   0.339940 0.879070 0.194760 -0.492954
O13   O     O_R   0.498910 0.350470 0.801870 -0.505905
O14   O     O_R   0.851560 0.501090 0.698130 -0.505913
O15   O     O_R   0.649530 0.148440 0.801870 -0.505907
O16   O     O_R   0.498910 0.350470 0.698130 -0.505905
O17   O     O_R   0.851560 0.501090 0.801870 -0.505910
O18   O     O_R   0.649530 0.148440 0.698130 -0.505896
O19   O     O_R   0.350470 0.498910 0.301870 -0.505904
O20   O     O_R   0.501090 0.851560 0.198130 -0.505908
O21   O     O_R   0.148440 0.649530 0.301870 -0.505903
O22   O     O_R   0.350470 0.498910 0.198130 -0.505906
O23   O     O_R   0.501090 0.851560 0.301870 -0.505905
O24   O     O_R   0.148440 0.649530 0.198130 -0.505906
O25   O     O_3   0.666667 0.333333 0.750000 -0.256870
O26   O     O_3   0.333333 0.666667 0.250000 -0.256869
N1    N     N_2   0.010598 0.696985 0.135713 -0.494237
H25   H     H_    0.976739 0.670551 0.171616 0.290122
C109  C     C_3   0.107099 0.817806 0.133110 -0.252441
H26   H     H_    0.141350 0.849251 0.171701 0.205528
H27   H     H_    0.073779 0.875578 0.118327 0.150165
H28   H     H_    0.180092 0.825712 0.108637 0.162815
N2    N     N_2   0.686385 0.989399 0.364290 -0.494238
H29   H     H_    0.693808 0.023258 0.328388 0.290123
C110  C     C_3   0.710712 0.892904 0.366893 -0.252439
H30   H     H_    0.707913 0.858661 0.328299 0.205522
H31   H     H_    0.645622 0.819905 0.391364 0.162820
H32   H     H_    0.801805 0.926229 0.381678 0.150152
N3    N     N_2   0.303012 0.313612 0.135713 -0.494237
H33   H     H_    0.329447 0.306187 0.171615 0.290121
C111  C     C_3   0.182191 0.289295 0.133111 -0.252443
H34   H     H_    0.150752 0.292108 0.171703 0.205533
H35   H     H_    0.124415 0.198200 0.118330 0.150167
H36   H     H_    0.174286 0.354381 0.108636 0.162811
N4    N     N_2   0.010585 0.696976 0.364282 -0.494237
H37   H     H_    0.976735 0.670550 0.328378 0.290126
C112  C     C_3   0.107054 0.817808 0.366898 -0.252539
H38   H     H_    0.141421 0.849227 0.328318 0.205611
H39   H     H_    0.179976 0.825762 0.391436 0.162737
H40   H     H_    0.073654 0.875568 0.381618 0.150223
N5    N     N_2   0.686388 0.989399 0.135712 -0.494235
H41   H     H_    0.693814 0.023260 0.171615 0.290122
C113  C     C_3   0.710699 0.892892 0.133111 -0.252441
H42   H     H_    0.707891 0.858645 0.171703 0.205532
H43   H     H_    0.801791 0.926205 0.118328 0.150165
H44   H     H_    0.645608 0.819898 0.108640 0.162815
N6    N     N_2   0.303013 0.313610 0.364286 -0.494235
H45   H     H_    0.329447 0.306184 0.328384 0.290120
C114  C     C_3   0.182190 0.289285 0.366891 -0.252455
H46   H     H_    0.150753 0.292114 0.328301 0.205541
H47   H     H_    0.174278 0.354357 0.391373 0.162804
H48   H     H_    0.124416 0.198181 0.381664 0.150167
N7    N     N_2   0.696963 0.010573 0.635722 -0.494215
H49   H     H_    0.670537 0.976726 0.671627 0.290120
C115  C     C_3   0.817817 0.107004 0.633098 -0.252558
H50   H     H_    0.849222 0.141425 0.671677 0.205638
H51   H     H_    0.825821 0.179910 0.608526 0.162692
H52   H     H_    0.875554 0.073528 0.618410 0.150253
N8    N     N_2   0.989401 0.686387 0.864288 -0.494235
H53   H     H_    0.023262 0.693813 0.828386 0.290121
C116  C     C_3   0.892893 0.710698 0.866889 -0.252435
H54   H     H_    0.858649 0.707894 0.828297 0.205529
H55   H     H_    0.926204 0.801788 0.881674 0.150156
H56   H     H_    0.819897 0.645603 0.891359 0.162817
N9    N     N_2   0.313610 0.303014 0.635713 -0.494235
H57   H     H_    0.306184 0.329451 0.671615 0.290119
C117  C     C_3   0.289290 0.182192 0.633112 -0.252441
H58   H     H_    0.292109 0.150756 0.671704 0.205535
H59   H     H_    0.354372 0.174282 0.608635 0.162811
H60   H     H_    0.198190 0.124415 0.618334 0.150164
N10   N     N_2   0.696970 0.010578 0.864284 -0.494218
H61   H     H_    0.670537 0.976736 0.828380 0.290122
C118  C     C_3   0.817808 0.107056 0.866891 -0.252506
H62   H     H_    0.849242 0.141353 0.828308 0.205538
H63   H     H_    0.875565 0.073690 0.881641 0.150192
H64   H     H_    0.825753 0.180021 0.891390 0.162784
N11   N     N_2   0.989398 0.686383 0.635709 -0.494237
H65   H     H_    0.023264 0.693809 0.671610 0.290120
C119  C     C_3   0.892890 0.710694 0.633111 -0.252429
H66   H     H_    0.858654 0.707894 0.671705 0.205529
H67   H     H_    0.819887 0.645595 0.608643 0.162824
H68   H     H_    0.926201 0.801786 0.618324 0.150147
N12   N     N_2   0.313610 0.303014 0.864286 -0.494236
H69   H     H_    0.306185 0.329448 0.828384 0.290120
C120  C     C_3   0.289292 0.182193 0.866889 -0.252443
H70   H     H_    0.292108 0.150754 0.828298 0.205534
H71   H     H_    0.198194 0.124416 0.881669 0.150166
H72   H     H_    0.354376 0.174287 0.891366 0.162811
I1    I     I_    0.907338 0.250545 0.147049 -0.402632
I2    I     I_    0.343202 0.092652 0.352957 -0.402648
I3    I     I_    0.749453 0.656793 0.147048 -0.402636
I4    I     I_    0.907337 0.250542 0.352946 -0.402640
I5    I     I_    0.343209 0.092661 0.147049 -0.402635
I6    I     I_    0.749452 0.656794 0.352951 -0.402655
I7    I     I_    0.250542 0.907340 0.647052 -0.402648
I8    I     I_    0.092653 0.343200 0.852953 -0.402645
I9    I     I_    0.656798 0.749452 0.647047 -0.402679
I10   I     I_    0.250545 0.907342 0.852954 -0.402642
I11   I     I_    0.092642 0.343188 0.647040 -0.402661
I12   I     I_    0.656795 0.749452 0.852950 -0.402642

loop_
_geom_bond_atom_site_label_1
_geom_bond_atom_site_label_2
_ccdc_geom_bond_type
C44   C49   A    
C45   N6    S    
C4    O16   A    
C115  H50   S    
C29   H10   S    
C107  H23   S    
N1    H25   S    
C82   C94   A    
C85   C104  A    
C114  H48   S    
C18   C21   A    
C2    O6    A    
N7    H49   S    
C5    C56   S    
C3    O15   A    
C6    C55   S    
C97   H13   S    
C25   H8    S    
C8    O20   A    
C50   C79   A    
C78   I9    S    
C12   C49   S    
Cr2   O2    S    
C109  H27   S    
N9    H57   S    
C78   C90   A    
C31   C67   A    
C99   C108  A    
C20   C92   A    
C77   C89   A    
C104  H20   S    
C115  H51   S    
Cr1   O13   S    
C102  H18   S    
Cr6   O9    S    
C118  H64   S    
Cr2   O14   S    
C117  H59   S    
C44   C68   A    
C27   H12   S    
C100  H16   S    
C98   H14   S    
C112  H39   S    
N10   C118  S    
C9    O21   A    
Cr3   O15   S    
C98   C103  A    
C14   C62   A    
C96   C99   A    
C42   N9    S    
C11   O23   A    
C116  H56   S    
C81   C93   A    
Cr4   O7    S    
C102  C105  A    
N5    C113  S    
C77   I10   S    
C84   C96   A    
C40   N11   S    
C114  H47   S    
Cr2   O17   S    
C58   C77   A    
N11   C119  S    
C7    O11   A    
C55   C74   A    
Cr6   O26   S    
C48   C51   A    
C87   C108  A    
C28   C35   A    
N3    C111  S    
C38   N7    S    
C4    C57   S    
Cr2   O5    S    
C19   C67   A    
Cr1   O4    S    
C26   H7    S    
Cr5   O20   S    
C6    O4    A    
C120  H70   S    
C34   C70   A    
C79   C91   A    
C13   C20   A    
C33   C69   A    
C32   C68   A    
C111  H36   S    
C25   C32   A    
C106  H22   S    
C35   C71   A    
C26   C31   A    
N1    C109  S    
C40   C59   A    
N7    C115  S    
N5    H41   S    
C9    C52   S    
C48   C72   A    
C86   C103  A    
C14   C19   A    
C42   C57   A    
C48   N3    S    
C41   N10   S    
C92   C97   A    
C116  H54   S    
C109  H28   S    
N9    C117  S    
C2    O14   A    
Cr4   O26   S    
C115  H52   S    
C16   C88   A    
C10   O22   A    
Cr4   O19   S    
C38   C55   A    
C45   C69   A    
N8    H53   S    
C18   C90   A    
Cr5   O11   S    
C7    C54   S    
C17   C89   A    
C94   C101  A    
C47   N4    S    
Cr1   O25   S    
C1    C60   S    
C109  H26   S    
C88   C107  A    
C99   H15   S    
C2    C59   S    
C112  H40   S    
C41   C65   A    
N6    H45   S    
C110  H30   S    
C38   C62   A    
C12   O24   A    
C29   C34   A    
C22   C94   A    
C113  H42   S    
C82   I5    S    
C21   C69   A    
C53   C82   A    
C80   I1    S    
C80   C92   A    
C52   C83   A    
C8    O12   A    
C117  H58   S    
C113  H43   S    
N4    H37   S    
C39   N12   S    
C118  H62   S    
C1    O5    A    
C23   C71   A    
C4    O2    A    
C81   I6    S    
N2    C110  S    
C5    O3    A    
C119  H66   S    
C83   C95   A    
N11   H65   S    
Cr3   O25   S    
N12   C120  S    
C25   C61   A    
C74   C86   A    
C36   H3    S    
C120  H71   S    
N2    H29   S    
C14   C86   A    
C30   C66   A    
C110  H31   S    
C27   C63   A    
C37   C56   A    
C10   O8    A    
C29   C65   A    
C74   I7    S    
Cr3   O6    S    
C75   C87   A    
C15   C24   A    
C119  H67   S    
C45   C54   A    
C16   C23   A    
C91   C98   A    
C89   C106  A    
C117  H60   S    
C84   I3    S    
C3    O1    A    
C47   C71   A    
C46   N5    S    
C101  H17   S    
C31   H2    S    
C101  C106  A    
C28   H11   S    
C24   C72   A    
C15   C87   A    
Cr3   O18   S    
C110  H32   S    
C34   H5    S    
N10   H61   S    
C76   C88   A    
C83   I4    S    
C100  C107  A    
C43   N2    S    
C56   C73   A    
Cr4   O22   S    
C30   C33   A    
C95   C100  A    
C93   C102  A    
C57   C78   A    
C20   C68   A    
C19   C91   A    
Cr1   O16   S    
C90   C105  A    
N8    C116  S    
C8    C53   S    
C41   C58   A    
C37   C61   A    
Cr2   O25   S    
C43   C50   A    
C28   C64   A    
C47   C52   A    
C7    O19   A    
C27   C36   A    
C18   C66   A    
C39   C63   A    
C60   C75   A    
C17   C65   A    
C17   C22   A    
C40   C64   A    
C49   C80   A    
C105  H21   S    
C97   C104  A    
Cr1   O1    S    
C10   C51   S    
C12   O10   A    
C24   C96   A    
C26   C62   A    
C113  H44   S    
C73   C85   A    
C118  H63   S    
C11   C50   S    
C5    O17   A    
Cr5   O26   S    
C108  H24   S    
C15   C63   A    
C11   O9    A    
C112  H38   S    
C73   I8    S    
C21   C93   A    
C39   C60   A    
C59   C76   A    
C46   C53   A    
C9    O7    A    
C116  H55   S    
C23   C95   A    
C1    O13   A    
C44   N1    S    
C32   H1    S    
C103  H19   S    
C114  H46   S    
C120  H72   S    
Cr6   O21   S    
C46   C70   A    
Cr5   O8    S    
Cr6   O24   S    
Cr3   O3    S    
Cr5   O23   S    
C111  H34   S    
C76   I11   S    
C3    C58   S    
Cr4   O10   S    
C119  H68   S    
C13   C61   A    
C30   H9    S    
C33   H6    S    
C43   C67   A    
N3    H33   S    
C13   C85   A    
N12   H69   S    
C42   C66   A    
Cr6   O12   S    
C35   H4    S    
N4    C112  S    
C16   C64   A    
C79   I2    S    
C111  H35   S    
C37   N8    S    
C51   C84   A    
C22   C70   A    
C54   C81   A    
C6    O18   A    
C75   I12   S    
C36   C72   A    
N6    C114  S    
