data_mof_unit_46111.cif
_audit_creation_date              2013-03-05T15:41:38-0500
_audit_creation_method            fapswitch 2.2
_symmetry_space_group_name_H-M    P1
_symmetry_Int_Tables_number       1
_space_group_crystal_system       triclinic
_cell_length_a                    7.824783
_cell_length_b                    8.569943
_cell_length_c                    15.697402
_cell_angle_alpha                 91.193739
_cell_angle_beta                  85.851207
_cell_angle_gamma                 93.238583
_cell_volume                      1048.05217493

loop_
_atom_site_label
_atom_site_type_symbol
_atom_site_description
_atom_site_fract_x
_atom_site_fract_y
_atom_site_fract_z
_atom_type_partial_charge
O1    O     O_R   0.389240 0.738570 0.505550 -0.621689
O2    O     O_R   0.678400 0.711630 0.491050 -0.596413
C1    C     C_R   0.545277 0.794392 0.497880 0.938918
O3    O     O_R   0.355360 0.513470 0.630110 -0.590085
O4    O     O_R   0.644510 0.486530 0.615610 -0.582691
C2    C     C_R   0.501911 0.500133 0.661453 0.887083
Zn1   Zn    Zn3+2 0.306930 0.517990 0.509680 1.094764
Zn2   Zn    Zn3+2 0.693070 0.482010 0.490320 1.094782
O5    O     O_R   0.321600 0.288370 0.508950 -0.596461
O6    O     O_R   0.610760 0.261430 0.494450 -0.621682
O7    O     O_R   0.355490 0.513470 0.384390 -0.582679
O8    O     O_R   0.644640 0.486530 0.369890 -0.590079
C3    C     C_R   0.454723 0.205608 0.502121 0.938930
C4    C     C_R   0.498084 0.499847 0.338545 0.887057
C5    C     C_3   0.348673 0.589357 0.955839 -0.396233
C6    C     C_3   0.671215 0.580330 0.947063 -0.380330
C7    C     C_3   0.667298 0.580505 0.045488 -0.400881
H1    H     H_    0.352675 0.712160 0.079078 0.174713
H2    H     H_    0.358399 0.711983 0.933140 0.175201
H3    H     H_    0.784053 0.517837 0.919699 0.183890
H4    H     H_    0.686349 0.702768 0.924168 0.177476
H5    H     H_    0.680634 0.703045 0.070108 0.175036
H6    H     H_    0.778358 0.518159 0.065643 0.179513
C8    C     C_1   0.494147 0.500101 0.249733 -0.092163
C9    C     C_3   0.503283 0.499738 0.917258 0.339591
C10   C     C_3   0.344753 0.589497 0.054267 -0.385526
C11   C     C_3   0.496688 0.500005 0.082736 0.340742
C12   C     C_3   0.481998 0.329803 0.047880 -0.391726
C13   C     C_3   0.485961 0.329641 0.949447 -0.398581
C14   C     C_1   0.493786 0.500130 0.174320 -0.099449
C15   C     C_1   0.506185 0.499656 0.825677 -0.099674
C16   C     C_1   0.505836 0.499771 0.750266 -0.092109
H7    H     H_    0.366160 0.269390 0.928235 0.175140
H8    H     H_    0.595740 0.263008 0.922154 0.176919
H9    H     H_    0.360288 0.269660 0.074185 0.179345
H10   H     H_    0.226497 0.533504 0.934760 0.179197
H11   H     H_    0.220787 0.533630 0.080698 0.184664
H12   H     H_    0.589868 0.263197 0.068104 0.174380
C17   C     C_2   0.569192 0.957758 0.496663 -0.343110
H13   H     H_    0.700224 0.007995 0.490275 0.208702
C18   C     C_2   0.430808 0.042242 0.503338 -0.343128
H14   H     H_    0.299776 0.992005 0.509726 0.208696
N1    N     N_2   0.950340 0.457950 0.477370 0.038046
N2    N     N_2   0.049660 0.542050 0.522630 0.038072
N3    N     N_R   0.022801 0.417291 0.397513 0.307308
O9    O     O_R   0.010762 0.509216 0.333576 -0.386219
O10   O     O_R   0.063028 0.273731 0.382313 -0.394075
N4    N     N_R   0.977187 0.582759 0.602477 0.307263
O11   O     O_R   0.989300 0.490918 0.666445 -0.386263
O12   O     O_R   0.936887 0.726314 0.617639 -0.394182

loop_
_geom_bond_atom_site_label_1
_geom_bond_atom_site_label_2
_geom_bond_distance
_ccdc_geom_bond_type
C9    C15   1.436103 S    
O4    Zn2   1.975917 S    
C2    C16   1.396769 S    
N1    N2    1.274148 D    
C10   H11   1.113480 S    
C6    H4    1.113422 S    
C18   H14   1.087980 S    
C7    H5    1.113387 S    
H1    C10   1.113401 S    
Zn2   N1    2.030340 S    
C12   H12   1.113464 S    
Zn2   O8    1.956331 S    
C3    C18   1.402310 S    
O2    C1    1.289865 A    
C1    C17   1.402309 S    
C17   C18   1.332929 D    
N2    N4    1.384052 S    
O1    Zn1   1.963153 S    
Zn1   N2    2.030340 S    
C11   C14   1.436146 S    
C5    H2    1.113451 S    
N1    N3    1.384035 S    
C12   C13   1.543182 S    
C10   C11   1.547733 S    
C7    H6    1.113581 S    
O3    Zn1   1.956332 S    
N4    O12   1.300154 A    
C6    H3    1.113493 S    
O8    C4    1.291888 A    
Zn1   O7    1.975917 S    
N3    O10   1.300117 A    
C9    C13   1.548263 S    
O4    C2    1.292857 A    
O7    C4    1.292863 A    
C8    C14   1.184002 T    
C5    C9    1.549138 S    
C17   H13   1.087980 S    
C7    C11   1.549122 S    
C13   H7    1.113353 S    
C5    H10   1.113557 S    
C11   C12   1.548246 S    
O3    C2    1.291865 A    
C4    C8    1.396736 S    
C6    C9    1.547750 S    
Zn1   O5    1.977386 S    
O5    C3    1.289865 A    
N4    O11   1.300710 A    
C5    C10   1.543118 S    
N3    O9    1.300696 A    
C13   H8    1.113326 S    
Zn2   O6    1.963153 S    
O2    Zn2   1.977387 S    
C15   C16   1.183970 T    
C12   H9    1.113391 S    
C6    C7    1.543083 S    
O1    C1    1.284224 A    
O6    C3    1.284224 A    
