data_mof_unit_41983.cif
_audit_creation_date              2012-12-10T16:53:10-0500
_audit_creation_method            fapswitch 2.2
_symmetry_space_group_name_H-M    P1
_symmetry_Int_Tables_number       1
_space_group_crystal_system       triclinic
_cell_length_a                    10.8151
_cell_length_b                    10.913835
_cell_length_c                    9.681476
_cell_angle_alpha                 89.64746
_cell_angle_beta                  90.010789
_cell_angle_gamma                 89.869272
_cell_volume                      1142.72080871

loop_
_atom_site_label
_atom_site_type_symbol
_atom_type_description
_atom_site_fract_x
_atom_site_fract_y
_atom_site_fract_z
_atom_type_partial_charge
C1    C     C_R   0.496620 0.265583 0.500258 0.766196
C2    C     C_R   0.064650 0.402013 0.588740 -0.037424
C3    C     C_R   0.128224 0.484456 0.499216 -0.186614
C4    C     C_R   0.062177 0.557282 0.403717 0.414280
C5    C     C_R   0.934618 0.557442 0.405987 -0.262214
C6    C     C_R   0.870594 0.484495 0.499838 -0.141679
C7    C     C_2   0.526323 0.937523 0.390859 0.407891
C8    C     C_2   0.543853 0.863242 0.500944 0.183115
C9    C     C_2   0.547489 0.069271 0.408250 -0.273329
C10   C     C_2   0.481758 0.134569 0.499167 0.261815
C11   C     C_2   0.410554 0.454672 0.922567 -0.079984
C12   C     C_R   0.262457 0.493663 0.499977 0.806848
C13   C     C_2   0.406572 0.463687 0.077785 -0.088334
C14   C     C_R   0.509039 0.734450 0.499670 0.823792
C15   C     C_R   0.737241 0.494701 0.500040 0.809491
C16   C     C_R   0.127383 0.315279 0.673150 -0.204535
C17   C     C_R   0.062912 0.231075 0.755672 0.534671
C18   C     C_R   0.933676 0.226685 0.745914 -0.236369
C19   C     C_R   0.870133 0.310974 0.664226 -0.217673
C20   C     C_R   0.933910 0.400905 0.586768 0.090841
Cu1   Cu    Cu3+1 0.500020 0.500020 0.638630 0.974542
Cu2   Cu    Cu3+1 0.499980 0.499980 0.361370 0.951565
H1    H     H_    0.333174 0.410764 0.872092 0.154822
H2    H     H_    0.567540 0.547748 0.893827 0.205459
H3    H     H_    0.321549 0.437359 0.128630 0.181740
H4    H     H_    0.581420 0.517192 0.105689 0.198446
H5    H     H_    0.226908 0.308227 0.673066 0.191591
H6    H     H_    0.881448 0.155320 0.797286 0.160865
H7    H     H_    0.770970 0.300547 0.657747 0.177455
H8    H     H_    0.885238 0.615613 0.333272 0.167410
H9    H     H_    0.614105 0.114449 0.341151 0.112150
N1    N     N_2   0.498640 0.498660 0.846910 -0.272564
N2    N     N_2   0.498610 0.498630 0.153040 -0.280811
O1    O     O_R   0.500020 0.321960 0.617040 -0.560467
O2    O     O_R   0.499980 0.321920 0.382900 -0.598824
O3    O     O_R   0.319670 0.500020 0.617100 -0.592339
O4    O     O_R   0.319630 0.499980 0.382950 -0.545547
O5    O     O_R   0.500020 0.678080 0.617100 -0.530354
O6    O     O_R   0.499980 0.678040 0.382960 -0.564283
O7    O     O_R   0.680370 0.500020 0.617050 -0.577102
O8    O     O_R   0.680330 0.499980 0.382900 -0.588078
O9    O     O_3   0.120675 0.617652 0.296400 -0.586087
C21   C     C_3   0.145843 0.739956 0.333713 0.116246
H10   H     H_    0.070687 0.781590 0.397195 0.099706
H11   H     H_    0.233428 0.743354 0.393745 0.161597
C22   C     C_3   0.160053 0.818272 0.202848 -0.356178
H12   H     H_    0.067537 0.833930 0.155831 0.191617
H13   H     H_    0.198777 0.908772 0.231665 0.191183
C23   C     C_3   0.244164 0.758146 0.095603 -0.641986
H14   H     H_    0.334122 0.732107 0.142460 0.281214
H15   H     H_    0.199814 0.674753 0.053183 0.255526
H16   H     H_    0.260766 0.822739 0.008638 0.214697
Cl1   Cl    Cl    0.363097 0.071276 0.602986 -0.614477
O10   O     O_3   0.130030 0.143344 0.828535 -0.570484
C24   C     C_3   0.094508 0.137600 0.969452 0.069119
H17   H     H_    0.129049 0.049096 0.011590 0.167895
H18   H     H_    0.992887 0.136322 0.985634 0.119283
C25   C     C_3   0.153220 0.241716 0.051993 -0.420880
H19   H     H_    0.254628 0.240309 0.035649 0.223290
H20   H     H_    0.116594 0.331319 0.015038 0.215749
C26   C     C_3   0.126767 0.228549 0.206296 -0.855518
H21   H     H_    0.025555 0.230560 0.225686 0.257543
H22   H     H_    0.170054 0.305479 0.262837 0.267993
H23   H     H_    0.165958 0.141260 0.246661 0.253628
O11   O     O_3   0.468797 0.893845 0.272218 -0.622424
C27   C     C_3   0.522780 0.942356 0.150241 0.067813
H24   H     H_    0.523136 0.868200 0.072122 0.179600
H25   H     H_    0.621595 0.969075 0.163343 0.121740
C28   C     C_3   0.445572 0.049341 0.092881 -0.404904
H26   H     H_    0.349998 0.017660 0.072649 0.234149
H27   H     H_    0.440345 0.124945 0.168680 0.232153
C29   C     C_3   0.500607 0.099042 0.958795 -0.751251
H28   H     H_    0.443038 0.175735 0.918869 0.266048
H29   H     H_    0.502873 0.025936 0.879835 0.321220
H30   H     H_    0.595870 0.133326 0.976675 0.236059
Cl2   Cl    Cl    0.626614 0.913361 0.648568 -0.657340

loop_
_geom_bond_atom_site_label_1
_geom_bond_atom_site_label_2
_ccdc_geom_bond_type
C17   C18   A    
C1    O1    A    
C26   H23   S    
C27   H25   S    
C24   H17   S    
H2    N1    S    
C13   N2    D    
Cu1   O1    S    
C2    C16   A    
C14   O5    A    
C6    C20   A    
C9    C10   D    
H4    N2    S    
C19   C20   A    
C8    Cl2   S    
C21   H10   S    
C23   H16   S    
C25   C26   S    
C26   H22   S    
C2    C3    A    
C25   H19   S    
C28   H27   S    
C7    C8    D    
Cu1   O3    S    
Cu1   Cu2   S    
Cu1   O5    S    
Cu2   O2    S    
C21   H11   S    
C22   C23   S    
C13   H3    S    
C28   H26   S    
Cu1   O7    S    
C4    O9    S    
C16   H5    S    
C29   H30   S    
C5    C6    A    
Cu2   O6    S    
C11   H1    S    
C21   C22   S    
C11   N1    D    
O11   C27   S    
C24   H18   S    
C26   H21   S    
Cu1   N1    S    
C22   H13   S    
C15   O7    A    
C6    C15   S    
C27   C28   S    
C12   O3    A    
O9    C21   S    
C9    H9    S    
C2    C20   A    
C3    C4    A    
Cu2   O8    S    
C11   C13   S    
C28   C29   S    
C18   H6    S    
C15   O8    A    
C29   H29   S    
C23   H14   S    
C5    H8    S    
C24   C25   S    
C12   O4    A    
C7    C9    S    
Cu2   N2    S    
C22   H12   S    
C18   C19   A    
C8    C14   S    
C3    C12   S    
C27   H24   S    
C1    O2    A    
C14   O6    A    
O10   C24   S    
C4    C5    A    
C25   H20   S    
C17   O10   S    
Cu2   O4    S    
C10   Cl1   S    
C7    O11   S    
C1    C10   S    
C16   C17   A    
C29   H28   S    
C23   H15   S    
C19   H7    S    
