data_mof_unit_35957.cif
_audit_creation_date              2012-12-10T17:34:59-0500
_audit_creation_method            fapswitch 2.2
_symmetry_space_group_name_H-M    P1
_symmetry_Int_Tables_number       1
_space_group_crystal_system       triclinic
_cell_length_a                    12.440978
_cell_length_b                    13.252295
_cell_length_c                    13.841757
_cell_angle_alpha                 107.215671
_cell_angle_beta                  73.595143
_cell_angle_gamma                 116.973518
_cell_volume                      1913.07623538

loop_
_atom_site_label
_atom_site_type_symbol
_atom_type_description
_atom_site_fract_x
_atom_site_fract_y
_atom_site_fract_z
_atom_type_partial_charge
C1    C     C_R   0.144191 0.713581 0.509721 0.896485
C2    C     C_1   0.973561 0.506807 0.792330 -0.157964
C3    C     C_R   0.734203 0.963555 0.401459 -0.149090
C4    C     C_R   0.773598 0.163576 0.476599 -0.074255
C5    C     C_R   0.180081 0.914762 0.593364 -0.286434
C6    C     C_R   0.259030 0.023138 0.635560 -0.185295
C7    C     C_R   0.385382 0.056263 0.609893 0.491849
C8    C     C_R   0.435297 0.985869 0.527383 -0.099528
C9    C     C_R   0.353624 0.875135 0.483207 -0.068003
C10   C     C_R   0.563190 0.019077 0.489598 0.056631
C11   C     C_R   0.607869 0.935837 0.426080 0.082693
C12   C     C_R   0.983718 0.504354 0.686523 0.837244
C13   C     C_R   0.526705 0.829907 0.381041 -0.287641
C14   C     C_R   0.402349 0.804758 0.401665 0.613924
C15   C     C_R   0.647529 0.133948 0.506404 -0.178462
C16   C     C_R   0.816812 0.076622 0.430408 -0.183233
C17   C     C_R   0.226089 0.837154 0.523081 -0.071581
C18   C     C_R   0.650984 0.685292 0.659864 0.575712
C19   C     C_R   0.253379 0.353470 0.357827 0.688174
C20   C     C_R   0.359544 0.331436 0.320956 -0.394224
C21   C     C_R   0.457098 0.388438 0.373629 -0.130592
C22   C     C_R   0.453095 0.469008 0.465977 -0.024466
C23   C     C_R   0.856109 0.286244 0.487388 0.781177
C24   C     C_R   0.348025 0.496771 0.498076 0.031238
C25   C     C_R   0.552717 0.527756 0.523656 -0.251419
C26   C     C_R   0.550666 0.620655 0.607327 -0.243083
C27   C     C_R   0.448418 0.647365 0.638295 0.370006
C28   C     C_R   0.351036 0.588148 0.584983 0.489564
C29   C     C_R   0.655152 0.498659 0.503495 0.770851
C30   C     C_R   0.749326 0.654930 0.632839 -0.140607
C31   C     C_R   0.015961 0.495074 0.313410 0.842371
C32   C     C_1   0.025362 0.490831 0.207324 -0.123521
C33   C     C_2   0.037660 0.483677 0.012495 -0.178481
C34   C     C_2   0.959214 0.509739 0.986541 -0.166103
C35   C     C_1   0.966150 0.508395 0.881104 -0.004222
C36   C     C_1   0.031983 0.487232 0.118222 0.018870
Cu1   Cu    Cu3+1 0.899780 0.525060 0.522890 1.002579
Cu2   Cu    Cu3+1 0.100220 0.474940 0.477110 1.064381
H1    H     H_    0.890074 0.533000 0.044352 0.163624
H2    H     H_    0.826588 0.704059 0.672657 0.174221
H3    H     H_    0.536856 0.371271 0.335853 0.231483
H4    H     H_    0.370122 0.272685 0.249434 0.153824
H5    H     H_    0.107267 0.461032 0.954780 0.155631
H6    H     H_    0.913843 0.097003 0.410963 0.144469
H7    H     H_    0.560420 0.770041 0.323796 0.167492
H8    H     H_    0.768959 0.898867 0.356955 0.132601
H9    H     H_    0.615684 0.202251 0.536211 0.230562
H10   H     H_    0.082873 0.888246 0.622977 0.178680
H11   H     H_    0.221653 0.078801 0.695015 0.158217
N1    N     N_R   0.748810 0.563010 0.557590 -0.258281
N2    N     N_R   0.250540 0.437620 0.443020 -0.205675
O1    O     O_R   0.025040 0.682470 0.528790 -0.619476
O2    O     O_R   0.194310 0.640150 0.490130 -0.465083
O3    O     O_R   0.903380 0.524130 0.659910 -0.591333
O4    O     O_R   0.072660 0.481800 0.621240 -0.523257
O5    O     O_R   0.805690 0.359850 0.509870 -0.528736
O6    O     O_R   0.974960 0.317530 0.471210 -0.573310
O7    O     O_R   0.927340 0.518200 0.378760 -0.550316
O8    O     O_R   0.096620 0.475870 0.340090 -0.503792
F1    F     F_    0.331710 0.714695 0.337643 -0.673320
O9    O     O_3   0.446094 0.739759 0.717550 -0.521905
C37   C     C_3   0.377756 0.698149 0.808695 0.152639
H12   H     H_    0.418842 0.649580 0.829114 0.135937
H13   H     H_    0.280865 0.640671 0.800257 0.155431
C38   C     C_3   0.379300 0.801170 0.895859 -0.318636
H14   H     H_    0.475062 0.855994 0.908533 0.250740
H15   H     H_    0.344340 0.853576 0.873978 0.229385
C39   C     C_3   0.300197 0.762874 0.995586 -0.909850
H16   H     H_    0.202772 0.714722 0.986251 0.266910
H17   H     H_    0.308100 0.839958 0.057945 0.263062
H18   H     H_    0.330510 0.707193 0.017833 0.271385
F2    F     F_    0.655646 0.777982 0.736899 -0.647307
F3    F     F_    0.661428 0.403849 0.435018 -0.679476
O10   O     O_3   0.156515 0.303896 0.303816 -0.583435
C40   C     C_3   0.134130 0.189899 0.247948 0.004889
H19   H     H_    0.033531 0.140053 0.259651 0.169164
H20   H     H_    0.171509 0.143288 0.275388 0.123167
C41   C     C_3   0.177224 0.189467 0.132656 -0.341441
H21   H     H_    0.132135 0.231421 0.108398 0.234141
H22   H     H_    0.277685 0.239327 0.115566 0.213283
C42   C     C_3   0.144741 0.066460 0.070457 -0.914195
H23   H     H_    0.191545 0.023606 0.091149 0.256883
H24   H     H_    0.174407 0.068583 0.987325 0.256443
H25   H     H_    0.044181 0.015423 0.085104 0.261798
F4    F     F_    0.264987 0.630069 0.622536 -0.655006
O11   O     O_3   0.456294 0.157718 0.667907 -0.639660
C43   C     C_3   0.503132 0.133547 0.736560 0.050494
H26   H     H_    0.592307 0.206994 0.748653 0.176037
H27   H     H_    0.522642 0.054495 0.706075 0.159358
C44   C     C_3   0.416338 0.124213 0.840080 -0.362943
H28   H     H_    0.387611 0.197480 0.865534 0.234956
H29   H     H_    0.333419 0.042253 0.831357 0.209528
C45   C     C_3   0.478095 0.126180 0.921940 -0.900155
H30   H     H_    0.512869 0.057096 0.896322 0.264875
H31   H     H_    0.411344 0.112232 0.994442 0.259272
H32   H     H_    0.555841 0.211090 0.937247 0.260459

loop_
_geom_bond_atom_site_label_1
_geom_bond_atom_site_label_2
_ccdc_geom_bond_type
C2    C35   T    
C43   H26   S    
C45   H30   S    
C19   C20   A    
C18   C26   A    
C15   H9    S    
C9    C14   A    
C2    C12   S    
C42   H23   S    
C7    C8    A    
C26   C27   A    
Cu1   Cu2   S    
C32   C36   T    
C31   O7    A    
C4    C23   S    
C10   C15   A    
C5    C6    A    
C41   H22   S    
C7    O11   S    
C5    C17   A    
C33   C36   S    
C34   C35   S    
C31   O8    A    
C1    O2    A    
C37   H13   S    
C27   O9    S    
Cu1   O5    S    
Cu2   O4    S    
C8    C9    A    
C38   H15   S    
C22   C25   A    
C18   C30   A    
C16   H6    S    
Cu1   O7    S    
C24   N2    A    
C30   N1    A    
C45   H31   S    
C13   C14   A    
C25   C29   A    
C42   H24   S    
C29   N1    A    
C18   F2    S    
C5    H10   S    
O10   C40   S    
C34   H1    S    
C33   H5    S    
C23   O5    A    
Cu1   O1    S    
C41   H21   S    
C39   H16   S    
Cu2   N2    S    
C25   C26   A    
C4    C16   A    
C40   H19   S    
C37   H12   S    
Cu2   O6    S    
C44   H29   S    
C31   C32   S    
C38   C39   S    
C33   C34   D    
C30   H2    S    
C40   H20   S    
C21   H3    S    
Cu1   O3    S    
C9    C17   A    
C45   H32   S    
C43   H27   S    
C22   C24   A    
C28   F4    S    
C42   H25   S    
C44   C45   S    
C23   O6    A    
C37   C38   S    
O11   C43   S    
C1    O1    A    
C19   O10   S    
C24   C28   A    
C20   H4    S    
C6    C7    A    
C14   F1    S    
C3    H8    S    
C1    C17   S    
C4    C15   A    
C13   H7    S    
Cu1   N1    S    
C11   C13   A    
C41   C42   S    
C44   H28   S    
Cu2   O2    S    
C39   H18   S    
C6    H11   S    
O9    C37   S    
C40   C41   S    
C12   O4    A    
C3    C11   A    
C10   C11   A    
Cu2   O8    S    
C19   N2    A    
C29   F3    S    
C20   C21   A    
C8    C10   A    
C38   H14   S    
C43   C44   S    
C27   C28   A    
C39   H17   S    
C21   C22   A    
C12   O3    A    
C3    C16   A    
