data_mof_unit_52100.cif
_audit_creation_date              2013-03-05T15:46:22-0500
_audit_creation_method            fapswitch 2.2
_symmetry_space_group_name_H-M    P1
_symmetry_Int_Tables_number       1
_space_group_crystal_system       triclinic
_cell_length_a                    10.184034
_cell_length_b                    10.790095
_cell_length_c                    10.806081
_cell_angle_alpha                 91.069607
_cell_angle_beta                  95.133937
_cell_angle_gamma                 81.465332
_cell_volume                      1169.56656753

loop_
_atom_site_label
_atom_site_type_symbol
_atom_site_description
_atom_site_fract_x
_atom_site_fract_y
_atom_site_fract_z
_atom_type_partial_charge
O1    O     O_R   0.568950 0.489660 0.307530 -0.670198
O2    O     O_R   0.348880 0.522640 0.340350 -0.617697
C1    C     C_R   0.444092 0.507478 0.267141 1.052815
O3    O     O_R   0.610060 0.300270 0.483590 -0.641665
O4    O     O_R   0.389990 0.333260 0.516410 -0.577489
C2    C     C_R   0.497986 0.260430 0.493578 0.957587
Zn1   Zn    Zn3+2 0.646940 0.477980 0.478090 0.930668
Zn2   Zn    Zn3+2 0.353060 0.522020 0.521910 1.013116
O5    O     O_R   0.651120 0.477360 0.659650 -0.651009
O6    O     O_R   0.431050 0.510340 0.692470 -0.589034
O7    O     O_R   0.610010 0.666740 0.483590 -0.658169
O8    O     O_R   0.389940 0.699730 0.516410 -0.603164
C3    C     C_R   0.555563 0.486546 0.731798 0.988501
C4    C     C_R   0.498906 0.739690 0.493045 0.902517
C5    C     C_R   0.645238 0.104476 0.306437 0.003659
C6    C     C_R   0.753465 0.030192 0.258773 -0.190120
H1    H     H_    0.814621 0.069780 0.197327 0.145399
C7    C     C_R   0.762507 0.900992 0.264419 -0.159007
C8    C     C_R   0.661132 0.849385 0.314611 0.034665
C9    C     C_R   0.578239 0.922535 0.397010 0.088276
C10   C     C_R   0.573860 0.053450 0.395253 0.082593
C11   C     C_R   0.492003 0.128669 0.475925 -0.087662
C12   C     C_R   0.406809 0.076801 0.546939 -0.137066
H2    H     H_    0.344333 0.912125 0.607064 0.182980
C13   C     C_R   0.408035 0.949967 0.546806 -0.197593
C14   C     C_R   0.495234 0.872164 0.476406 -0.083018
H3    H     H_    0.616900 0.478319 0.102831 0.166890
C15   C     C_2   0.413031 0.498152 0.134232 -0.207244
C16   C     C_2   0.515383 0.473281 0.064219 -0.240715
H4    H     H_    0.671291 0.518750 0.903186 0.121667
C17   C     C_2   0.587060 0.475404 0.863411 -0.356902
C18   C     C_2   0.500366 0.437223 0.935348 0.007587
H5    H     H_    0.310335 0.500693 0.096253 0.117974
H6    H     H_    0.104383 0.460594 0.390750 0.174043
N1    N     N_2   0.157290 0.551390 0.551110 -0.192214
C19   C     C_2   0.070426 0.508144 0.473875 -0.019317
N2    N     N_2   0.842740 0.448550 0.448960 -0.210502
C20   C     C_2   0.925299 0.522598 0.496861 -0.014215
H7    H     H_    0.342514 0.134084 0.607097 0.214340
C21   C     C_2   0.873934 0.630908 0.573663 0.414913
H8    H     H_    0.804432 0.621685 0.641452 0.114181
O9    O     O_2   0.909951 0.732764 0.561830 -0.580437
C22   C     C_2   0.889303 0.337372 0.382857 0.530869
H9    H     H_    0.826547 0.306561 0.305980 0.012794
O10   O     O_2   0.994212 0.271432 0.416397 -0.581630
H10   H     H_    0.126649 0.589473 0.633649 0.190018
C23   C     C_2   0.582943 0.212352 0.230322 0.395139
H11   H     H_    0.643582 0.262198 0.177370 0.046017
O11   O     O_2   0.461726 0.238323 0.216821 -0.601274
H12   H     H_    0.831102 0.844353 0.207535 0.136015
C24   C     C_2   0.617195 0.743545 0.243733 0.417593
H13   H     H_    0.689698 0.666667 0.215216 0.047128
O12   O     O_2   0.499740 0.747738 0.207275 -0.594035
C25   C     C_2   0.398605 0.355691 0.891999 0.494065
H14   H     H_    0.315365 0.348687 0.946034 0.069323
O13   O     O_2   0.411040 0.289686 0.799568 -0.591959

loop_
_geom_bond_atom_site_label_1
_geom_bond_atom_site_label_2
_geom_bond_distance
_ccdc_geom_bond_type
N2    C22   1.426179 S    
O4    Zn2   2.016284 S    
Zn1   O7    2.016285 S    
C22   H9    1.080207 S    
O6    C3    1.290525 A    
H2    C13   1.084315 S    
N2    C20   1.311221 D    
H3    C16   1.088366 S    
Zn2   N1    2.023923 S    
C17   C18   1.340251 D    
C5    C23   1.468695 S    
Zn2   O8    2.010832 S    
C21   O9    1.221501 D    
O2    C1    1.295448 A    
Zn1   N2    2.024044 S    
C24   H13   1.085195 S    
C23   O11   1.220796 D    
O1    Zn1   1.939241 S    
C10   C11   1.420011 A    
C4    C14   1.438562 S    
C20   C21   1.479266 S    
C22   O10   1.222196 D    
C15   C16   1.334712 D    
O4    C2    1.293385 A    
C9    C14   1.424657 A    
O3    Zn1   2.010833 S    
C12   H7    1.083706 S    
C19   C20   1.505416 S    
C21   H8    1.078860 S    
O8    C4    1.295129 A    
C15   H5    1.085407 S    
C16   C18   1.439923 S    
H6    C19   1.084169 S    
C12   C13   1.366726 A    
H4    C17   1.088545 S    
O7    C4    1.289811 A    
C25   O13   1.220740 D    
O3    C2    1.291728 A    
C5    C6    1.395177 A    
C2    C11   1.440447 S    
C23   H11   1.082299 S    
C8    C24   1.465855 S    
C5    C10   1.419869 A    
C9    C10   1.407091 A    
C7    H12   1.084183 S    
C6    C7    1.385540 A    
C7    C8    1.397228 A    
C18   C25   1.495227 S    
Zn1   O5    1.958716 S    
O5    C3    1.291881 A    
C25   H14   1.083759 S    
C1    C15   1.447636 S    
C24   O12   1.219973 D    
C13   C14   1.395673 A    
C11   C12   1.390755 A    
N1    H10   1.029480 S    
C3    C17   1.432952 S    
Zn2   O6    1.939241 S    
O2    Zn2   1.958716 S    
C8    C9    1.427926 A    
C6    H1    1.083891 S    
O1    C1    1.294437 A    
N1    C19   1.293334 D    
