data_mof_unit_58317.cif
_audit_creation_date              2013-03-05T16:02:54-0500
_audit_creation_method            fapswitch 2.2
_symmetry_space_group_name_H-M    P1
_symmetry_Int_Tables_number       1
_space_group_crystal_system       triclinic
_cell_length_a                    8.281239
_cell_length_b                    14.370563
_cell_length_c                    17.319131
_cell_angle_alpha                 97.036889
_cell_angle_beta                  96.718368
_cell_angle_gamma                 91.883852
_cell_volume                      2029.17889581

loop_
_atom_site_label
_atom_site_type_symbol
_atom_site_description
_atom_site_fract_x
_atom_site_fract_y
_atom_site_fract_z
_atom_type_partial_charge
P1    P     P_3+3 0.017810 0.410420 0.324030 0.476508
O1    O     O_2   0.840370 0.437300 0.310630 -0.325116
O2    O     O_3   0.112450 0.444030 0.408320 -0.432337
O3    O     O_3   0.597270 0.610320 0.351390 -0.348691
O4    O     O_2   0.624423 0.501807 0.218960 -0.365218
O5    O     O_3   0.000119 0.287667 0.306771 -0.576744
O6    O     O_3   0.642559 0.682559 0.210609 -0.467873
H1    H     H_    0.525049 0.789502 0.270016 0.079351
C1    C     C_3   0.626845 0.834850 0.169978 -0.535066
H2    H     H_    0.742189 0.861111 0.205929 0.223623
H3    H     H_    0.654379 0.803835 0.111321 0.226510
P2    P     P_3+3 0.635890 0.718430 0.552520 0.468181
P3    P     P_3+3 0.045613 0.780900 0.386605 0.498909
O7    O     O_2   0.802370 0.730760 0.528330 -0.388591
O8    O     O_3   0.016680 0.660770 0.388810 -0.334916
O9    O     O_2   0.930042 0.830472 0.440273 -0.382530
O10   O     O_3   0.654120 0.762660 0.652525 -0.570927
O11   O     O_3   0.969041 0.805146 0.292999 -0.518663
C2    C     C_3   0.078451 0.779624 0.238192 0.445008
H4    H     H_    0.187367 0.744974 0.262893 -0.052108
C3    C     C_3   0.138735 0.868271 0.207697 -1.028006
H5    H     H_    0.035398 0.912138 0.191135 0.278772
H6    H     H_    0.225502 0.909506 0.253624 0.244609
C4    C     C_3   0.227876 0.763144 0.646880 0.235406
H7    H     H_    0.352376 0.745031 0.635731 0.135542
H8    H     H_    0.143692 0.749733 0.591320 0.096704
C5    C     C_3   0.224464 0.867048 0.681822 -0.579398
H9    H     H_    0.095450 0.883263 0.685649 0.142648
Ba1   Ba    Ba6+2 0.833220 0.541860 0.459910 1.573009
C6    C     C_3   0.994905 0.250068 0.377333 0.299836
H10   H     H_    0.881053 0.269677 0.400974 0.063758
H11   H     H_    0.099401 0.277099 0.421081 0.121881
C7    C     C_3   0.002043 0.142841 0.363003 -0.417860
H12   H     H_    0.026238 0.115036 0.420010 0.127762
C8    C     C_3   0.768775 0.718841 0.700323 0.371710
H13   H     H_    0.857115 0.679854 0.666936 0.059004
C9    C     C_3   0.676498 0.652611 0.743473 -0.855223
H14   H     H_    0.754236 0.631061 0.794188 0.219314
H15   H     H_    0.635017 0.589709 0.701812 0.273054
H16   H     H_    0.569828 0.686586 0.765991 0.284670
P4    P     P_3+3 0.171880 0.589650 0.675980 0.489662
O12   O     O_2   0.349330 0.562730 0.689420 -0.365064
O13   O     O_3   0.077250 0.556050 0.591680 -0.408631
O14   O     O_3   0.592420 0.389760 0.648620 -0.393690
O15   O     O_3   0.175457 0.710908 0.702829 -0.577130
P5    P     P_3+3 0.155816 0.216979 0.614194 0.448388
O16   O     O_3   0.628930 0.385070 0.464840 -0.399171
O17   O     O_3   0.173020 0.339310 0.611190 -0.369676
O18   O     O_2   0.283435 0.172077 0.564926 -0.388758
O19   O     O_3   0.226931 0.197761 0.709695 -0.490288
Ba2   Ba    Ba6+2 0.356600 0.458220 0.540090 1.558499
P6    P     P_3+3 0.545130 0.592684 0.249989 0.495211
C10   C     C_3   0.543185 0.760045 0.209266 0.310726
H17   H     H_    0.423652 0.739444 0.174130 0.023079
O20   O     O_3   0.560770 0.615000 0.535160 -0.376668
C11   C     C_3   0.459702 0.311362 0.306843 0.437912
H18   H     H_    0.337214 0.323952 0.324742 0.071451
H19   H     H_    0.539035 0.376254 0.323187 0.140656
C12   C     C_3   0.444117 0.288353 0.218119 -0.938747
H20   H     H_    0.360069 0.226089 0.198375 0.259586
H21   H     H_    0.395585 0.348700 0.190077 0.225252
H22   H     H_    0.565407 0.273699 0.199243 0.274275
P7    P     P_3+3 0.560153 0.266270 0.443073 0.419646
O21   O     O_2   0.387340 0.269270 0.471720 -0.376105
O22   O     O_3   0.526760 0.235559 0.341307 -0.572379
H23   H     H_    0.203064 0.849654 0.155677 0.251111
C13   C     C_3   0.106924 0.223555 0.758087 0.379081
H24   H     H_    0.057888 0.292784 0.747673 0.068044
H25   H     H_    0.006968 0.168354 0.748063 0.057202
C14   C     C_3   0.180900 0.231498 0.843331 -0.864720
H26   H     H_    0.280335 0.287034 0.855186 0.280576
H27   H     H_    0.086137 0.250215 0.882166 0.206423
H28   H     H_    0.230761 0.163548 0.856375 0.268929
P8    P     P_3+3 0.628614 0.396864 0.750400 0.460940
C15   C     C_3   0.637208 0.217975 0.719136 0.482798
H29   H     H_    0.762963 0.234059 0.706781 -0.041660
O23   O     O_2   0.498405 0.459003 0.784541 -0.373929
O24   O     O_3   0.589790 0.285365 0.777045 -0.503950
H30   H     H_    0.552464 0.215140 0.664157 0.156296
H31   H     H_    0.717636 0.121869 0.801392 0.253721
C16   C     C_3   0.631808 0.121737 0.747070 -0.872122
H32   H     H_    0.667381 0.068050 0.701180 0.226666
H33   H     H_    0.506807 0.103074 0.759155 0.283365
C17   C     C_2   0.243648 0.521842 0.276371 -0.344162
C18   C     C_3   0.320599 0.580654 0.223193 0.070221
C19   C     C_2   0.273826 0.548140 0.137053 -0.190894
C20   C     C_2   0.154225 0.481083 0.112009 0.131395
C21   C     C_2   0.076255 0.434940 0.172909 -0.279963
C22   C     C_1   0.121329 0.460844 0.249125 0.344975
C23   C     C_R   0.911130 0.444695 0.859767 -0.268798
C24   C     C_R   0.836376 0.446858 0.783406 0.227452
C25   C     C_R   0.075516 0.528620 0.749844 0.368212
C26   C     C_R   0.150009 0.528278 0.827394 -0.190342
C27   C     C_R   0.068998 0.486363 0.883445 0.112854
C28   C     C_2   0.083834 0.460642 0.027103 -0.169321
C29   C     C_2   0.150020 0.492727 0.966386 -0.118991
C30   C     C_R   0.918258 0.489426 0.729992 -0.505892
H34   H     H_    0.268995 0.528591 0.977377 0.130751
H35   H     H_    0.978528 0.381850 0.154218 0.147755
H36   H     H_    0.843441 0.412002 0.899600 0.144310
H37   H     H_    0.968719 0.420698 0.016137 0.130708
H38   H     H_    0.328290 0.587861 0.096814 0.122076
H39   H     H_    0.269223 0.562754 0.844600 0.157618
H40   H     H_    0.280991 0.538740 0.338821 0.148374
H41   H     H_    0.853310 0.499136 0.674464 0.164256
C31   C     C_R   0.713184 0.935229 0.534587 -0.096404
C32   C     C_R   0.516694 0.797607 0.493774 0.283418
C33   C     C_R   0.363177 0.763684 0.456717 -0.494909
C34   C     C_R   0.256516 0.823000 0.420848 0.235503
C35   C     C_R   0.306511 0.915337 0.416207 -0.320695
C36   C     C_R   0.461629 0.950882 0.450443 0.076052
C37   C     C_R   0.566780 0.893395 0.492396 -0.003399
H42   H     H_    0.322047 0.692238 0.460280 0.166153
C38   C     C_R   0.648681 0.087578 0.492993 -0.003016
C39   C     C_R   0.756818 0.030372 0.533514 0.065967
C40   C     C_R   0.687295 0.185019 0.498059 0.168306
C41   C     C_R   0.831926 0.222125 0.543232 -0.387237
C42   C     C_R   0.948316 0.164753 0.574940 0.152841
C43   C     C_R   0.908289 0.068932 0.572163 -0.303914
C44   C     C_R   0.503813 0.046216 0.450539 -0.141416
H43   H     H_    0.220691 0.960719 0.389689 0.149287
H44   H     H_    0.994931 0.024667 0.599587 0.156779
H45   H     H_    0.794040 0.895597 0.570026 0.167468
H46   H     H_    0.418891 0.088502 0.419965 0.163347
C45   C     C_2   0.320253 0.887509 0.762502 1.224120
O25   O     O_2   0.458072 0.860193 0.774030 -0.574439
O26   O     O_R   0.256174 0.940362 0.824078 -0.785085
H47   H     H_    0.145754 0.965005 0.807792 0.292426
C46   C     C_1   0.286488 0.932198 0.633060 0.057202
N1    N     N_1   0.334823 0.987129 0.597121 -0.029161
C47   C     C_1   0.847264 0.099706 0.322499 0.212783
N2    N     N_1   0.725071 0.065550 0.290806 -0.060375
C48   C     C_1   0.133208 0.115730 0.315909 0.193952
N3    N     N_1   0.236277 0.094846 0.278472 -0.078616
C49   C     C_2   0.860729 0.792671 0.760314 1.004409
O27   O     O_2   0.833942 0.875780 0.759277 -0.624699
O28   O     O_R   0.974441 0.765392 0.818537 -0.799549
H48   H     H_    0.023530 0.820291 0.857436 0.351117
C50   C     C_1   0.525441 0.915244 0.160104 0.132514
N4    N     N_1   0.447002 0.979302 0.151923 -0.043433
C51   C     C_2   0.990852 0.710811 0.172807 1.007764
O29   O     O_2   0.968065 0.729704 0.105473 -0.651370
O30   O     O_R   0.934697 0.624213 0.190125 -0.737946
H49   H     H_    0.873109 0.584705 0.142594 0.340357
C52   C     C_1   0.865793 0.320528 0.553862 0.203343
N5    N     N_1   0.894476 0.400073 0.561123 0.014651

loop_
_geom_bond_atom_site_label_1
_geom_bond_atom_site_label_2
_geom_bond_distance
_ccdc_geom_bond_type
P8    C24   1.841497 S    
C20   C21   1.507203 S    
P7    O22   1.750708 S    
C26   C27   1.422787 A    
P2    Ba1   3.401491 S    
C5    C45   1.514211 S    
P4    O12   1.530584 D    
C28   C29   1.362287 D    
C4    C5    1.543354 S    
C26   H39   1.082469 S    
C38   C39   1.418788 A    
C49   O27   1.223807 D    
C31   C37   1.415076 A    
C10   H17   1.110620 S    
C11   H18   1.108893 S    
P5    O18   1.543469 D    
P3    O11   1.750458 S    
O3    P6    1.743886 S    
O1    Ba1   2.834677 S    
C4    O15   1.395025 S    
P6    C18   1.860088 S    
C2    C3    1.528306 S    
C4    H8    1.112577 S    
O6    P6    1.749384 S    
O11   C2    1.412160 S    
C9    H16   1.110461 S    
C51   O30   1.393177 S    
C35   H43   1.081122 S    
O16   P7    1.763315 S    
C6    H10   1.102507 S    
C3    H23   1.108918 S    
C11   O22   1.404575 S    
C33   C34   1.394122 A    
P5    C42   1.869509 S    
C41   C52   1.417853 S    
P1    O1    1.530284 D    
C32   C37   1.428379 A    
O2    Ba1   2.917402 S    
C35   C36   1.402516 A    
P3    C34   1.835325 S    
C42   C43   1.399417 A    
O17   Ba2   2.744146 S    
C8    H13   1.109040 S    
P8    O23   1.546887 D    
C29   H34   1.082261 S    
C31   H45   1.078879 S    
C28   H37   1.081343 S    
C32   C33   1.399095 A    
O4    P6    1.546772 D    
O8    Ba1   2.743563 S    
C14   H26   1.110962 S    
C1    H2    1.105466 S    
O3    Ba1   2.835210 S    
C6    C7    1.534676 S    
O12   Ba2   2.835256 S    
C30   H41   1.072576 S    
C7    C47   1.466314 S    
C12   H20   1.109230 S    
C2    C51   1.507570 S    
C3    H5    1.110998 S    
Ba1   O13   2.848415 S    
P4    O13   1.585422 S    
C23   H36   1.078623 S    
C16   H33   1.110633 S    
C25   C30   1.389599 A    
C23   C27   1.413789 A    
P5    O17   1.766666 S    
C12   H21   1.109017 S    
C13   H24   1.113799 S    
C21   H35   1.086012 S    
C4    H7    1.104507 S    
C8    C49   1.508878 S    
O2    Ba2   2.849025 S    
C19   C20   1.353528 D    
C15   C16   1.521058 S    
O16   Ba2   2.897842 S    
Ba1   O20   2.898633 S    
C18   C19   1.508682 S    
C16   H32   1.110476 S    
P1    O5    1.751046 S    
C20   C28   1.506911 S    
C36   C44   1.402416 A    
P1    O2    1.585334 S    
C33   H42   1.082323 S    
P2    O10   1.757668 S    
C27   C29   1.503411 S    
C15   H29   1.110036 S    
C9    H14   1.108733 S    
C14   H28   1.110761 S    
P1    Ba1   3.374178 S    
C7    H12   1.109159 S    
C17   C18   1.503748 S    
O14   P8    1.742925 S    
C1    H3    1.110231 S    
P7    C40   1.870155 S    
O14   Ba2   2.834647 S    
O5    C6    1.399964 S    
Ba1   O16   2.788626 S    
C39   C43   1.412624 A    
P3    O8    1.740747 S    
C45   O25   1.221430 D    
C5    C46   1.455053 S    
C1    C10   1.529410 S    
C17   C22   1.321198 D    
O6    C10   1.407049 S    
O7    Ba1   2.857754 S    
O26   H47   1.013181 S    
C19   H38   1.081196 S    
C52   N5    1.148420 T    
C46   N1    1.152689 T    
O19   C13   1.403736 S    
C43   H44   1.081361 S    
C49   O28   1.398638 S    
C12   H22   1.110854 S    
P1    C22   1.841921 S    
C36   C37   1.419508 A    
C8    C9    1.519322 S    
Ba2   O21   2.857983 S    
P2    O7    1.498297 D    
H31   C16   1.110548 S    
H1    C10   1.113896 S    
P2    C32   1.851116 S    
C38   C40   1.415854 A    
C50   N4    1.157223 T    
O28   H48   1.012993 S    
P5    O19   1.747429 S    
C41   C42   1.396303 A    
C11   C12   1.521021 S    
C31   C39   1.405570 A    
C13   C14   1.520006 S    
C2    H4    1.111727 S    
C3    H6    1.105858 S    
O30   H49   1.014068 S    
C24   C30   1.395680 A    
C9    H15   1.103391 S    
C51   O29   1.224215 D    
C6    H11   1.107329 S    
C1    C50   1.465524 S    
O13   Ba2   2.918242 S    
C23   C24   1.397501 A    
C48   N3    1.156566 T    
C17   H40   1.084828 S    
C25   C26   1.411545 A    
C11   H19   1.110352 S    
C40   C41   1.402679 A    
Ba2   O20   2.787932 S    
C47   N2    1.156522 T    
C15   O24   1.406093 S    
P2    O20   1.572440 S    
Ba1   Ba2   4.509031 S    
P7    O21   1.568766 D    
C7    C48   1.467697 S    
P4    C25   1.873570 S    
C21   C22   1.332469 D    
P8    O24   1.750917 S    
P3    O9    1.542122 D    
C5    H9    1.108735 S    
C45   O26   1.398649 S    
P4    O15   1.745979 S    
C14   H27   1.110677 S    
O10   C8    1.402307 S    
C13   H25   1.110889 S    
C34   C35   1.391558 A    
C15   H30   1.110440 S    
P4    Ba2   3.374822 S    
C38   C44   1.404569 A    
C44   H46   1.078909 S    
