data_mof_unit_29517.cif
_audit_creation_date              2012-12-11T14:29:35-0500
_audit_creation_method            fapswitch 2.2
_symmetry_space_group_name_H-M    P1
_symmetry_Int_Tables_number       1
_space_group_crystal_system       triclinic
_cell_length_a                    6.938166
_cell_length_b                    14.724398
_cell_length_c                    16.311687
_cell_angle_alpha                 90.510455
_cell_angle_beta                  90.306629
_cell_angle_gamma                 90.159454
_cell_volume                      1666.31045216

loop_
_atom_site_label
_atom_site_type_symbol
_atom_type_description
_atom_site_fract_x
_atom_site_fract_y
_atom_site_fract_z
_atom_type_partial_charge
O1    O     O_R   0.494400 0.416610 0.413880 -0.532983
O2    O     O_R   0.823920 0.406790 0.585520 -0.498735
O3    O     O_R   0.994250 0.583390 0.586120 -0.535324
C1    C     C_R   0.655707 0.386347 0.614458 0.785577
O4    O     O_R   0.824110 0.405730 0.414490 -0.556466
O5    O     O_R   0.994440 0.582310 0.413870 -0.555242
C2    C     C_R   0.653877 0.381890 0.388222 0.748559
O6    O     O_R   0.494210 0.417690 0.586130 -0.531618
O7    O     O_3   0.660810 0.557940 0.500000 -0.389532
V1    V     V_3+5 0.935650 0.489250 0.500000 1.507200
O8    O     O_R   0.324160 0.593210 0.414480 -0.552218
C3    C     C_R   0.156076 0.612472 0.384678 0.638137
O9    O     O_R   0.323970 0.594270 0.585510 -0.537594
C4    C     C_R   0.155712 0.616064 0.613829 0.817815
V2    V     V_3+5 0.435660 0.510750 0.500000 1.472754
O10   O     O_3   0.160630 0.442060 0.500000 -0.348355
C5    C     C_R   0.177054 0.556420 0.784957 0.304371
C6    C     C_R   0.189409 0.528170 0.866350 -0.325525
C7    C     C_R   0.179919 0.589927 0.930949 0.354749
C8    C     C_R   0.156277 0.682649 0.915138 0.150673
C9    C     C_R   0.143327 0.715875 0.832758 -0.063782
C10   C     C_R   0.155655 0.650999 0.766533 -0.009310
C11   C     C_R   0.116380 0.810870 0.814998 -0.121535
C12   C     C_R   0.101528 0.840229 0.731482 0.009010
C13   C     C_R   0.125465 0.775370 0.666870 -0.018621
C14   C     C_R   0.147331 0.681736 0.683856 -0.123729
C15   C     C_R   0.063161 0.932802 0.709255 0.118331
C16   C     C_R   0.065950 0.959610 0.626574 0.214352
C17   C     C_R   0.099439 0.895819 0.564620 0.172658
C18   C     C_R   0.126045 0.805102 0.584596 -0.246520
H1    H     H_    0.206478 0.456670 0.879677 0.112757
H2    H     H_    0.148165 0.758337 0.533978 0.106512
C19   C     C_2   0.995561 0.715655 0.287001 -0.169870
C20   C     C_2   0.154068 0.669075 0.309869 0.080728
H3    H     H_    0.865000 0.709915 0.323094 0.084418
C21   C     C_2   0.982925 0.769584 0.209615 0.351761
C22   C     C_2   0.119277 0.832351 0.190624 0.204442
C23   C     C_2   0.771600 0.216700 0.788667 -0.232904
C24   C     C_2   0.611709 0.169446 0.808852 0.022128
H4    H     H_    0.899693 0.210063 0.826747 0.102738
C25   C     C_2   0.791526 0.273425 0.713270 0.405603
C26   C     C_2   0.644484 0.325608 0.686080 -0.264968
H5    H     H_    0.509696 0.327172 0.719401 0.127276
C27   C     C_2   0.775785 0.206696 0.218146 0.388355
C28   C     C_2   0.619697 0.188417 0.170765 -0.328060
H6    H     H_    0.494362 0.231861 0.174245 0.093067
C29   C     C_2   0.776816 0.285661 0.276281 -0.290713
C30   C     C_2   0.634715 0.305069 0.330168 0.046837
H7    H     H_    0.907408 0.326590 0.277832 0.120761
O11   O     O_R   0.770210 0.079270 0.910680 -0.544348
O12   O     O_R   0.440150 0.091160 0.082270 -0.552655
O13   O     O_R   0.269970 0.914530 0.082860 -0.545334
C31   C     C_R   0.609877 0.114077 0.109551 0.771352
O14   O     O_R   0.440480 0.090100 0.911240 -0.550689
O15   O     O_R   0.270310 0.913460 0.910610 -0.538543
C32   C     C_R   0.608508 0.110307 0.882083 0.683434
O16   O     O_R   0.769870 0.080340 0.082930 -0.507857
O17   O     O_3   0.603660 0.938980 0.996790 -0.365162
V3    V     V_3+5 0.328750 0.007610 0.996740 1.455745
O18   O     O_R   0.940600 0.902510 0.911180 -0.526927
C33   C     C_R   0.108916 0.879928 0.882975 0.863172
O19   O     O_R   0.940270 0.903570 0.082200 -0.511910
C34   C     C_R   0.108391 0.887174 0.114073 0.700273
V4    V     V_3+5 0.828770 0.986010 0.996670 1.526724
O20   O     O_3   0.103730 0.054750 0.996710 -0.372758
N1    N     N_3   0.102413 0.923265 0.480574 -0.663297
H8    H     H_    0.235984 0.905239 0.455991 0.247732
H9    H     H_    0.996147 0.886498 0.448812 0.237827
N2    N     N_3   0.320822 0.667838 0.257919 -0.608219
H10   H     H_    0.439152 0.691249 0.292070 0.246483
H11   H     H_    0.347743 0.600435 0.240960 0.215427
O21   O     O_3   0.825164 0.757552 0.158470 -0.655139
H12   H     H_    0.742439 0.709196 0.181601 0.293382
O22   O     O_3   0.265503 0.849815 0.246815 -0.646598
H13   H     H_    0.343908 0.901733 0.227680 0.290550
N3    N     N_3   0.446502 0.169243 0.755557 -0.673352
H14   H     H_    0.423050 0.102507 0.735469 0.232601
H15   H     H_    0.327100 0.190049 0.789632 0.217736
O23   O     O_3   0.966240 0.275745 0.672982 -0.625929
H16   H     H_    0.054661 0.232227 0.699743 0.294674
O24   O     O_3   0.940262 0.154715 0.209647 -0.633114
H17   H     H_    0.038362 0.177520 0.249252 0.284832
O25   O     O_3   0.185676 0.491383 0.723317 -0.638279
H18   H     H_    0.198866 0.429867 0.746955 0.294533
N4    N     N_3   0.465692 0.248988 0.338104 -0.660700
H19   H     H_    0.503038 0.180275 0.335620 0.247959
H20   H     H_    0.367137 0.264419 0.291786 0.222903
O26   O     O_3   0.192053 0.561556 0.011429 -0.642172
H21   H     H_    0.208370 0.494683 0.012618 0.287038
N5    N     N_3   0.143854 0.741966 0.984734 -0.662728
H22   H     H_    0.269797 0.735306 0.019683 0.257182
H23   H     H_    0.026653 0.721528 0.020170 0.270336
N6    N     N_3   0.010113 0.999781 0.769204 -0.662499
H24   H     H_    0.872488 0.023468 0.754453 0.248592
H25   H     H_    0.106553 0.054182 0.766515 0.230004
N7    N     N_3   0.031505 0.052837 0.606385 -0.661706
H26   H     H_    0.151130 0.077404 0.574689 0.261686
H27   H     H_    0.911563 0.055702 0.567420 0.259775

loop_
_geom_bond_atom_site_label_1
_geom_bond_atom_site_label_2
_ccdc_geom_bond_type
N1    H9    S    
C22   O22   S    
N6    H24   S    
O15   V3    S    
O11   V4    S    
C25   C26   D    
C7    C8    A    
C12   C15   A    
C1    O6    A    
O24   H17   S    
C29   H7    S    
C28   H6    S    
O19   C34   A    
C21   C22   D    
N3    H15   S    
O5    C3    A    
C23   C24   D    
V2    O10   S    
C19   C21   S    
C6    C7    A    
N2    H11   S    
O19   V4    S    
O8    V2    S    
C29   C30   D    
N7    H27   S    
C11   C12   A    
C12   C13   A    
O1    V2    S    
C18   H2    S    
O7    V1    S    
C27   C29   S    
O26   H21   S    
N1    H8    S    
C28   C31   S    
N6    H25   S    
O9    C4    A    
C22   C34   S    
C19   C20   D    
O14   V3    S    
N4    H20   S    
O17   V4    S    
O14   C32   A    
O22   H13   S    
N3    H14   S    
C23   C25   S    
C27   O24   S    
O4    C2    A    
C31   O16   A    
C13   C14   A    
N4    H19   S    
C8    N5    S    
O11   C32   A    
C17   N1    S    
O18   C33   A    
O12   C31   A    
O2    C1    A    
C25   O23   S    
C17   C18   A    
O13   V3    S    
N5    H23   S    
O25   H18   S    
N7    H26   S    
C5    C6    A    
C24   C32   S    
C24   N3    S    
C4    C14   S    
C20   N2    S    
O3    C4    A    
C7    O26   S    
O6    V2    S    
C9    C11   A    
C15   N6    S    
O12   V3    S    
C26   H5    S    
C3    C20   S    
O2    V1    S    
C27   C28   D    
O16   V4    S    
C13   C18   A    
C16   C17   A    
O1    C2    A    
O21   H12   S    
O13   C34   A    
O5    V1    S    
O8    C3    A    
C5    C10   A    
O18   V4    S    
C16   N7    S    
C2    C30   S    
O9    V2    S    
O17   V3    S    
O4    V1    S    
O3    V1    S    
V1    O10   S    
V4    O20   S    
C23   H4    S    
N5    H22   S    
C1    C26   S    
O15   C33   A    
C19   H3    S    
O7    V2    S    
N2    H10   S    
O23   H16   S    
C11   C33   S    
C8    C9    A    
C10   C14   A    
C15   C16   A    
C30   N4    S    
C6    H1    S    
C5    O25   S    
C9    C10   A    
V3    O20   S    
C21   O21   S    
