data_mof_unit_28700.cif
_audit_creation_date              2012-10-26T18:47:36-0400
_audit_creation_method            fapswitch 2.2
_symmetry_space_group_name_H-M    P1
_symmetry_Int_Tables_number       1
_space_group_crystal_system       triclinic
_cell_length_a                    10.847443
_cell_length_b                    12.99533
_cell_length_c                    11.64934
_cell_angle_alpha                 99.844513
_cell_angle_beta                  93.853182
_cell_angle_gamma                 90.45001
_cell_volume                      1614.0118417

loop_
_atom_site_label
_atom_site_type_symbol
_atom_type_description
_atom_site_fract_x
_atom_site_fract_y
_atom_site_fract_z
_atom_type_partial_charge
C1    C     C_R   0.498361 0.299017 0.478613 0.545047
C2    C     C_R   0.490454 0.984607 0.654839 -0.138712
C3    C     C_R   0.506694 0.123478 0.355960 -0.136025
C4    C     C_R   0.493306 0.876522 0.644040 -0.136025
C5    C     C_R   0.492231 0.139123 0.565492 -0.130862
C6    C     C_R   0.507769 0.860877 0.434508 -0.130862
C7    C     C_R   0.495582 0.031169 0.555514 0.047103
C8    C     C_R   0.504418 0.968831 0.444486 0.047103
C9    C     C_R   0.385248 0.400279 0.021240 -0.179103
C10   C     C_R   0.614752 0.599721 0.978760 -0.179103
C11   C     C_R   0.395961 0.410023 0.143646 0.043839
C12   C     C_R   0.501639 0.700983 0.521387 0.545047
C13   C     C_R   0.604039 0.589977 0.856354 0.043839
C14   C     C_R   0.548990 0.543491 0.157423 0.061454
C15   C     C_R   0.451010 0.456509 0.842576 0.061455
C16   C     C_R   0.262204 0.501900 0.500289 0.582244
C17   C     C_R   0.737796 0.498100 0.499711 0.582244
C18   C     C_R   0.541518 0.536336 0.034447 0.000274
C19   C     C_R   0.458482 0.463664 0.965553 0.000274
C20   C     C_R   0.233405 0.723467 0.256841 -0.097048
C21   C     C_R   0.766594 0.276533 0.743159 -0.097048
C22   C     C_R   0.180343 0.681515 0.345271 -0.048088
C23   C     C_R   0.871638 0.496351 0.499716 -0.054098
C24   C     C_R   0.819657 0.318485 0.654729 -0.048088
C25   C     C_R   0.110693 0.587855 0.317938 0.110441
C26   C     C_R   0.889307 0.412145 0.682061 0.110441
C27   C     C_R   0.093754 0.537611 0.201023 -0.043901
C28   C     C_R   0.906246 0.462389 0.798977 -0.043900
C29   C     C_R   0.147182 0.579772 0.112983 -0.117566
C30   C     C_R   0.852818 0.420228 0.887017 -0.117566
C31   C     C_R   0.217396 0.672384 0.140936 -0.100168
C32   C     C_R   0.782604 0.327616 0.859064 -0.100168
C33   C     C_R   0.928072 0.537288 0.411949 0.325295
C34   C     C_R   0.128362 0.503649 0.500284 -0.054098
C35   C     C_R   0.071928 0.462712 0.588051 0.325295
C36   C     C_R   0.943994 0.458425 0.588603 -0.074659
C37   C     C_R   0.056005 0.541575 0.411397 -0.074659
C38   C     C_R   0.501330 0.814352 0.533808 0.002816
C39   C     C_R   0.498670 0.185648 0.466192 0.002815
C40   C     C_R   0.509546 0.015393 0.345161 -0.138712
Cu1   Cu    Cu3+1 0.509250 0.507730 0.615930 0.969835
Cu2   Cu    Cu3+1 0.490750 0.492270 0.384070 0.969835
F1    F     F_    0.858815 0.577956 0.329319 -0.641610
F2    F     F_    0.141185 0.422044 0.670681 -0.641610
H1    H     H_    0.259177 0.704663 0.072759 0.113201
H2    H     H_    0.713160 0.204360 0.721918 0.104275
H3    H     H_    0.194001 0.721456 0.434857 0.093728
H4    H     H_    0.805999 0.278544 0.565143 0.093728
H5    H     H_    0.040406 0.465317 0.178411 0.116149
H6    H     H_    0.959593 0.534683 0.821588 0.116149
H7    H     H_    0.134694 0.540345 0.023177 0.120165
H8    H     H_    0.865306 0.459655 0.976823 0.120165
H9    H     H_    0.515219 0.813256 0.349293 0.118594
H10   H     H_    0.484781 0.186744 0.650706 0.118594
H11   H     H_    0.488331 0.841690 0.721729 0.129851
H12   H     H_    0.740822 0.295337 0.927241 0.113201
H13   H     H_    0.511669 0.158310 0.278271 0.129851
H14   H     H_    0.516076 0.968381 0.259546 0.101855
H15   H     H_    0.483924 0.031619 0.740454 0.101855
H16   H     H_    0.387407 0.400874 0.788675 0.164399
H17   H     H_    0.612593 0.599126 0.211324 0.164399
H18   H     H_    0.660933 0.639031 0.814206 0.125715
H19   H     H_    0.339067 0.360969 0.185794 0.125715
H20   H     H_    0.320123 0.343753 0.970718 0.103455
H21   H     H_    0.679877 0.656247 0.029282 0.103455
H22   H     H_    0.286840 0.795640 0.278082 0.104275
N1    N     N_R   0.523180 0.519350 0.790130 -0.231812
N2    N     N_R   0.476820 0.480650 0.209870 -0.231811
O1    O     O_R   0.506570 0.354460 0.582000 -0.510555
O2    O     O_R   0.493430 0.645540 0.418000 -0.510556
O3    O     O_R   0.490940 0.341410 0.386200 -0.518640
O4    O     O_R   0.509060 0.658590 0.613800 -0.518640
O5    O     O_R   0.327460 0.506540 0.597900 -0.436748
O6    O     O_R   0.672540 0.493460 0.402100 -0.436748
O7    O     O_R   0.311830 0.493480 0.402100 -0.520143
O8    O     O_R   0.688170 0.506520 0.597900 -0.520143

loop_
_geom_bond_atom_site_label_1
_geom_bond_atom_site_label_2
_ccdc_geom_bond_type
C27   C29   A    
C34   C37   A    
Cu1   Cu2   S    
C14   C18   A    
C35   C36   A    
C7    C8    A    
Cu1   N1    S    
C15   C19   A    
Cu2   O7    S    
C1    O3    A    
C20   H22   S    
C24   C26   A    
C18   C19   A    
C11   H19   S    
C29   H7    S    
C16   O7    A    
Cu2   O2    S    
C34   C35   A    
C15   H16   S    
C30   H8    S    
C16   C34   S    
C28   H6    S    
C9    C19   A    
C13   H18   S    
C2    C7    A    
C23   C33   A    
C22   C25   A    
C17   O8    A    
C6    C38   A    
C25   C37   S    
C22   H3    S    
C12   O4    A    
C3    C39   A    
C9    H20   S    
Cu2   N2    S    
C21   C32   A    
Cu2   O6    S    
C40   H14   S    
C16   O5    A    
C24   H4    S    
C5    H10   S    
C5    C7    A    
C2    H15   S    
C6    C8    A    
C14   H17   S    
C33   C37   A    
C33   F1    S    
C2    C4    A    
C15   N1    A    
C17   C23   S    
C35   F2    S    
C9    C11   A    
Cu1   O4    S    
C3    H13   S    
C26   C36   S    
C20   C22   A    
C3    C40   A    
C5    C39   A    
C4    H11   S    
C17   O6    A    
C6    H9    S    
C11   N2    A    
Cu1   O1    S    
C21   H2    S    
C13   N1    A    
C10   H21   S    
C12   O2    A    
C4    C38   A    
C10   C13   A    
C25   C27   A    
C26   C28   A    
C28   C30   A    
C29   C31   A    
Cu1   O8    S    
C30   C32   A    
C10   C18   A    
Cu2   O3    S    
C12   C38   S    
C1    O1    A    
C1    C39   S    
Cu1   O5    S    
C23   C36   A    
C31   H1    S    
C21   C24   A    
C14   N2    A    
C8    C40   A    
C32   H12   S    
C27   H5    S    
C20   C31   A    
