data_mof_unit_43429.cif
_audit_creation_date              2012-10-26T21:11:03-0400
_audit_creation_method            fapswitch 2.2
_symmetry_space_group_name_H-M    P1
_symmetry_Int_Tables_number       1
_space_group_crystal_system       triclinic
_cell_length_a                    10.9658
_cell_length_b                    10.963805
_cell_length_c                    13.075086
_cell_angle_alpha                 90.919986
_cell_angle_beta                  90.726101
_cell_angle_gamma                 89.474334
_cell_volume                      1571.58484159

loop_
_atom_site_label
_atom_site_type_symbol
_atom_type_description
_atom_site_fract_x
_atom_site_fract_y
_atom_site_fract_z
_atom_type_partial_charge
C1    C     C_R   0.492410 0.259682 0.498826 0.569948
C2    C     C_R   0.617336 0.867133 0.738603 -0.084453
C3    C     C_R   0.513958 0.118797 0.303086 0.042341
C4    C     C_R   0.500673 0.884962 0.695716 0.070237
C5    C     C_R   0.624489 0.115809 0.249933 -0.013156
C6    C     C_R   0.397415 0.858464 0.753324 -0.040034
C7    C     C_R   0.628707 0.153295 0.148102 0.292077
C8    C     C_R   0.410552 0.819818 0.854807 0.287264
C9    C     C_R   0.522294 0.198765 0.100641 -0.100936
C10   C     C_R   0.527496 0.802086 0.896668 -0.088706
C11   C     C_R   0.513537 0.933468 0.407137 0.220307
C12   C     C_R   0.507008 0.740551 0.500850 0.561916
C13   C     C_R   0.469958 0.066116 0.589570 0.225526
C14   C     C_R   0.504974 0.873356 0.501371 -0.054465
C15   C     C_R   0.486509 0.127135 0.496588 -0.057273
C16   C     C_R   0.259360 0.505630 0.499580 0.558711
C17   C     C_R   0.740583 0.501972 0.500917 0.569804
C18   C     C_R   0.488174 0.940434 0.593339 -0.066725
C19   C     C_R   0.505196 0.060440 0.404421 -0.068594
C20   C     C_1   0.499925 0.500359 0.173474 0.140410
C21   C     C_1   0.499182 0.499910 0.826513 0.144844
C22   C     C_1   0.499470 0.500474 0.050691 -0.069148
C23   C     C_R   0.872611 0.511989 0.503056 -0.060387
C24   C     C_1   0.498967 0.500093 0.949306 -0.068359
C25   C     C_R   0.198915 0.669025 0.173531 -0.120656
C26   C     C_R   0.827115 0.297191 0.808104 -0.100373
C27   C     C_R   0.158826 0.656496 0.273912 -0.077969
C28   C     C_R   0.874593 0.332906 0.714580 -0.054583
C29   C     C_R   0.116701 0.543508 0.306938 0.107847
C30   C     C_R   0.882230 0.457144 0.691397 0.106055
C31   C     C_R   0.117050 0.442907 0.239079 -0.040484
C32   C     C_R   0.841020 0.545178 0.762416 -0.060099
C33   C     C_R   0.158111 0.455694 0.139040 -0.113981
C34   C     C_R   0.126788 0.514653 0.499987 -0.062666
C35   C     C_R   0.795595 0.509143 0.856578 -0.110436
C36   C     C_R   0.198449 0.568845 0.106131 -0.095619
C37   C     C_R   0.788429 0.385239 0.879359 -0.093844
C38   C     C_R   0.932777 0.540250 0.411922 0.224007
C39   C     C_R   0.066002 0.504343 0.594189 0.216953
C40   C     C_3   0.733431 0.059614 0.019542 -0.142857
C41   C     C_3   0.261849 0.905471 0.951159 -0.153601
C42   C     C_3   0.438528 0.849033 0.257531 -0.092459
C43   C     C_3   0.321271 0.156164 0.685240 -0.090574
C44   C     C_3   0.839690 0.691064 0.321773 -0.072693
C45   C     C_R   0.939589 0.494329 0.594744 -0.072067
C46   C     C_3   0.151743 0.605314 0.730048 -0.072538
C47   C     C_R   0.059521 0.533114 0.408462 -0.072178
C48   C     C_R   0.412672 0.203885 0.153869 -0.174396
C49   C     C_R   0.630514 0.825016 0.838466 -0.183438
C50   C     C_R   0.408156 0.163878 0.254616 -0.103052
Cu1   Cu    Cu3+1 0.499990 0.499990 0.592680 1.011384
Cu2   Cu    Cu3+1 0.500010 0.500010 0.407320 1.014497
H1    H     H_    0.228821 0.579029 0.028312 0.151480
H2    H     H_    0.845255 0.641328 0.745209 0.080903
H3    H     H_    0.156734 0.378456 0.086496 0.103025
H4    H     H_    0.765221 0.577206 0.911686 0.108138
H5    H     H_    0.524589 0.230397 0.022713 0.122080
H6    H     H_    0.538354 0.771108 0.974487 0.118915
H7    H     H_    0.330893 0.237755 0.116559 0.109198
H8    H     H_    0.720678 0.811812 0.871286 0.093393
H9    H     H_    0.321878 0.165050 0.294072 0.101656
H10   H     H_    0.697866 0.887508 0.695123 0.097209
H11   H     H_    0.670886 0.087487 0.956349 0.126158
H12   H     H_    0.752459 0.357493 0.952021 0.154458
H13   H     H_    0.706105 0.969525 0.049730 0.118738
H14   H     H_    0.825730 0.048147 0.986801 0.130838
H15   H     H_    0.232760 0.967577 0.888692 0.112428
H16   H     H_    0.328969 0.951596 0.003042 0.116878
H17   H     H_    0.179788 0.885712 0.996524 0.131134
H18   H     H_    0.430627 0.919752 0.198146 0.113484
H19   H     H_    0.352539 0.845612 0.301936 0.096663
H20   H     H_    0.449024 0.760261 0.216733 0.151678
H21   H     H_    0.265509 0.072165 0.679382 0.073375
H22   H     H_    0.291558 0.220741 0.624948 0.141097
H23   H     H_    0.706292 0.080080 0.286369 0.126173
H24   H     H_    0.302465 0.200227 0.760434 0.147168
H25   H     H_    0.923631 0.747067 0.320870 0.088713
H26   H     H_    0.782375 0.719201 0.387867 0.131862
H27   H     H_    0.786683 0.710697 0.251009 0.161118
H28   H     H_    0.065647 0.649783 0.755001 0.098393
H29   H     H_    0.200270 0.666631 0.677462 0.115364
H30   H     H_    0.210471 0.593464 0.798931 0.174203
H31   H     H_    0.307079 0.869514 0.720335 0.076430
H32   H     H_    0.228865 0.756763 0.147519 0.099988
H33   H     H_    0.821325 0.201315 0.825638 0.102485
H34   H     H_    0.157228 0.735211 0.324981 0.070739
H35   H     H_    0.906279 0.264067 0.660576 0.091041
H36   H     H_    0.083228 0.355525 0.263107 0.105680
N1    N     N_1   0.500030 0.500030 0.268070 -0.164166
N2    N     N_1   0.499970 0.499970 0.731930 -0.163088
O1    O     O_R   0.499980 0.319630 0.578260 -0.445564
O2    O     O_3   0.309390 0.794468 0.912184 -0.606959
O3    O     O_3   0.543842 0.868332 0.318895 -0.568053
O4    O     O_3   0.447443 0.129911 0.679954 -0.544080
O5    O     O_3   0.867833 0.565137 0.322848 -0.535187
O6    O     O_3   0.130320 0.489248 0.685209 -0.554618
O7    O     O_R   0.500020 0.680370 0.421740 -0.462070
O8    O     O_R   0.500000 0.319650 0.421740 -0.505202
O9    O     O_R   0.500000 0.680350 0.578260 -0.519058
O10   O     O_R   0.319630 0.500000 0.578260 -0.461204
O11   O     O_R   0.680370 0.500000 0.421740 -0.442397
O12   O     O_R   0.319650 0.500020 0.421740 -0.514460
O13   O     O_R   0.680350 0.499980 0.578260 -0.510554
O14   O     O_3   0.738754 0.149717 0.097697 -0.576951

loop_
_geom_bond_atom_site_label_1
_geom_bond_atom_site_label_2
_ccdc_geom_bond_type
C43   H21   S    
C46   H28   S    
C33   H3    S    
C23   C45   A    
C27   C29   A    
C42   O3    S    
C14   C18   A    
C30   C45   S    
C43   O4    S    
C41   H15   S    
C15   C19   A    
Cu2   O12   S    
C17   C23   S    
C40   H11   S    
C13   C18   A    
C29   C47   S    
C44   H25   S    
C10   H6    S    
Cu1   N2    S    
C11   C14   A    
Cu1   O13   S    
Cu2   O7    S    
C42   H18   S    
C33   C36   A    
Cu2   O8    S    
C17   O11   A    
C12   O9    A    
C36   H1    S    
C16   C34   S    
C46   H30   S    
C38   O5    S    
C25   H32   S    
C31   C33   A    
C3    C19   S    
C8    O2    S    
C39   C45   A    
C4    C18   S    
C11   O3    S    
C43   H22   S    
C48   C50   A    
C1    O1    A    
C40   H14   S    
Cu1   O1    S    
Cu2   N1    S    
C32   H2    S    
C3    C50   A    
C41   H16   S    
C21   N2    T    
Cu1   O9    S    
Cu2   O11   S    
Cu1   Cu2   S    
C32   C35   A    
C4    C6    A    
C5    C7    A    
C16   O10   A    
C6    C8    A    
C34   C39   A    
C5    H23   S    
C27   H34   S    
C2    C4    A    
C2    C49   A    
C40   O14   S    
C46   H29   S    
C11   C19   A    
C28   H35   S    
C42   H20   S    
C38   C47   A    
C49   H8    S    
C12   O7    A    
C1    C15   S    
C16   O12   A    
C12   C14   S    
C40   H13   S    
C13   C15   A    
C22   C24   T    
C37   H12   S    
C48   H7    S    
C41   H17   S    
Cu1   O10   S    
C7    C9    A    
C31   H36   S    
C35   C37   A    
C35   H4    S    
C44   H27   S    
C20   C22   S    
C3    C5    A    
C1    O8    A    
C26   C37   A    
C25   C27   A    
C23   C38   A    
C20   N1    T    
C26   C28   A    
C13   O4    S    
C7    O14   S    
C44   H26   S    
C17   O13   A    
C29   C31   A    
C44   O5    S    
C30   C32   A    
C26   H33   S    
C28   C30   A    
C42   H19   S    
C9    H5    S    
C39   O6    S    
C25   C36   A    
C41   O2    S    
C46   O6    S    
C9    C48   A    
C8    C10   A    
C6    H31   S    
C21   C24   S    
C50   H9    S    
C43   H24   S    
C34   C47   A    
C10   C49   A    
C2    H10   S    
