data_mof_unit_50454.cif
_audit_creation_date              2012-12-11T20:41:05-0500
_audit_creation_method            fapswitch 2.2
_symmetry_space_group_name_H-M    P1
_symmetry_Int_Tables_number       1
_space_group_crystal_system       triclinic
_cell_length_a                    8.302545
_cell_length_b                    18.878185
_cell_length_c                    27.0371
_cell_angle_alpha                 97.20707
_cell_angle_beta                  92.483707
_cell_angle_gamma                 86.588807
_cell_volume                      4194.02943628

loop_
_atom_site_label
_atom_site_type_symbol
_atom_type_description
_atom_site_fract_x
_atom_site_fract_y
_atom_site_fract_z
_atom_type_partial_charge
Ba1   Ba    Ba6+2 0.852670 0.466460 0.522850 1.666072
Ba2   Ba    Ba6+2 0.337150 0.533490 0.477140 1.652611
C1    C     C_3   0.691575 0.204360 0.651385 -0.093100
C2    C     C_R   0.869248 0.558081 0.176797 0.578540
C3    C     C_2   0.739640 0.517618 0.271380 -0.086513
C4    C     C_3   0.131965 0.298881 0.654504 0.340406
C5    C     C_3   0.696938 0.514425 0.325148 -0.059646
C6    C     C_1   0.982015 0.489868 0.343867 0.039427
C7    C     C_2   0.022682 0.493389 0.297218 -0.105018
C8    C     C_2   0.895821 0.506993 0.257384 0.183058
C9    C     C_R   0.021914 0.505430 0.104370 -0.116524
C10   C     C_R   0.103376 0.457229 0.134413 -0.093972
C11   C     C_R   0.232282 0.411369 0.113949 0.119346
C12   C     C_3   0.670232 0.277403 0.632131 0.352829
C13   C     C_R   0.904801 0.556227 0.125896 -0.001401
C14   C     C_2   0.843991 0.519909 0.359926 -0.302995
C15   C     C_2   0.336822 0.471112 0.639507 -0.093674
C16   C     C_3   0.113130 0.269567 0.703707 -0.377861
C17   C     C_R   0.193698 0.443801 0.978396 0.044479
C18   C     C_R   0.024406 0.554975 0.972947 0.024145
C19   C     C_R   0.126723 0.498115 0.950125 0.044306
C20   C     C_R   0.274314 0.382988 0.952398 -0.040405
C21   C     C_R   0.301764 0.379049 0.901616 -0.079830
C22   C     C_R   0.249403 0.435475 0.874274 -0.024655
C23   C     C_3   0.536359 0.643100 0.631604 0.316148
C24   C     C_R   0.161402 0.495075 0.898388 -0.082966
C25   C     C_R   0.106663 0.551155 0.870713 -0.032306
C26   C     C_R   0.149645 0.548928 0.820171 0.596363
C27   C     C_R   0.280239 0.432311 0.822977 0.585597
C28   C     C_3   0.181270 0.315755 0.412663 0.315604
C29   C     C_2   0.427348 0.458598 0.728951 -0.074558
C30   C     C_3   0.448373 0.433492 0.674454 -0.046809
C31   C     C_1   0.206498 0.508807 0.656795 0.059007
C32   C     C_2   0.163345 0.511439 0.704178 -0.148341
C33   C     C_2   0.280695 0.487013 0.743990 0.192159
C34   C     C_3   0.579334 0.662599 0.686883 -0.139902
C35   C     C_R   0.172438 0.450531 0.031069 -0.069499
C36   C     C_R   0.058350 0.503418 0.052854 -0.009917
C37   C     C_R   0.980979 0.554665 0.023629 0.052922
C38   C     C_R   0.265860 0.408339 0.063231 0.530246
C39   C     C_R   0.825440 0.604619 0.096151 -0.046015
C40   C     C_3   0.176045 0.235078 0.400050 -0.293992
C41   C     C_R   0.969093 0.610120 0.944014 -0.100268
C42   C     C_R   0.011170 0.608611 0.894356 -0.056234
C43   C     C_R   0.862252 0.603902 0.046270 -0.089223
C44   C     C_2   0.394945 0.295619 0.511285 -0.251393
C45   C     C_3   0.070185 0.687684 0.340640 0.419777
C46   C     C_3   0.327518 0.254345 0.548809 -0.031699
C47   C     C_2   0.368254 0.175008 0.537842 -0.125506
C48   C     C_2   0.499752 0.151547 0.510927 -0.076911
C49   C     C_2   0.589431 0.205470 0.488075 -0.129122
C50   C     C_1   0.530400 0.272664 0.489697 0.059022
C51   C     C_R   0.657271 0.933298 0.494774 0.462720
C52   C     C_3   0.011072 0.683423 0.585499 0.297752
C53   C     C_R   0.555162 0.074362 0.504758 0.463896
C54   C     C_R   0.618807 0.807487 0.510707 -0.123953
C55   C     C_R   0.667417 0.734956 0.507112 0.046247
C56   C     C_3   0.133469 0.700113 0.290255 -0.300310
C57   C     C_R   0.903537 0.756842 0.463329 0.039452
C58   C     C_R   0.855187 0.829947 0.466179 -0.126576
C59   C     C_R   0.710767 0.856008 0.489792 -0.072582
C60   C     C_R   0.806480 0.709779 0.482322 -0.281873
C61   C     C_3   0.995610 0.763813 0.600312 -0.371202
C62   C     C_3   0.685381 0.367657 0.370546 0.352932
C63   C     C_3   0.718265 0.336394 0.316907 0.536140
C64   C     C_3   0.525261 0.717738 0.370009 0.326989
C65   C     C_3   0.525973 0.791615 0.353195 -0.338571
C66   C     C_R   0.054133 0.456653 0.184171 0.640651
F1    F     F_    0.817048 0.274704 0.316469 -0.657365
F2    F     F_    0.402427 0.369689 0.047712 -0.726136
H1    H     H_    0.734753 0.274496 0.596706 0.074753
H2    H     H_    0.800300 0.384771 0.389209 -0.007877
H3    H     H_    0.596252 0.413776 0.370776 -0.082778
H4    H     H_    0.682225 0.161645 0.619182 0.075092
H5    H     H_    0.779222 0.374891 0.297422 -0.060777
H6    H     H_    0.602703 0.323491 0.296410 0.020116
H7    H     H_    0.539487 0.288438 0.624079 -0.091443
H8    H     H_    0.404137 0.637203 0.626309 0.009266
H9    H     H_    0.602392 0.591569 0.618613 0.056643
H10   H     H_    0.526381 0.717001 0.699980 0.113558
H11   H     H_    0.713127 0.663326 0.691994 0.131236
H12   H     H_    0.244770 0.216849 0.365989 0.139087
H13   H     H_    0.813378 0.197426 0.669389 0.144092
H14   H     H_    0.191694 0.297860 0.732977 0.139667
H15   H     H_    0.118851 0.634048 0.348494 0.069077
H16   H     H_    0.266882 0.698894 0.291975 0.137746
H17   H     H_    0.095815 0.657450 0.260645 0.084754
H18   H     H_    0.086139 0.752760 0.280025 0.135844
H19   H     H_    0.623387 0.713230 0.398523 -0.000545
H20   H     H_    0.409456 0.712581 0.387384 0.105580
H21   H     H_    0.640131 0.797640 0.334817 0.150824
H22   H     H_    0.515218 0.833003 0.385944 0.087269
H23   H     H_    0.230421 0.208015 0.431448 0.051345
H24   H     H_    0.082155 0.355219 0.657962 0.069244
H25   H     H_    0.423148 0.799874 0.326728 0.129001
H26   H     H_    0.148097 0.487968 0.287635 0.147737
H27   H     H_    0.520560 0.443357 0.755649 0.119809
H28   H     H_    0.365148 0.331183 0.883803 0.130857
H29   H     H_    0.310823 0.335798 0.969929 0.163463
H30   H     H_    0.642267 0.523332 0.243840 0.122168
H31   H     H_    0.732732 0.643444 0.111361 0.121873
H32   H     H_    0.896364 0.656550 0.959169 0.072482
H33   H     H_    0.263498 0.297652 0.648108 -0.068545
H34   H     H_    0.048953 0.219974 0.393439 0.172721
H35   H     H_    0.966559 0.652681 0.874261 0.121641
H36   H     H_    0.041041 0.529376 0.714009 0.150615
H37   H     H_    0.792291 0.641779 0.025978 0.067868
H38   H     H_    0.833896 0.544292 0.398369 0.079921
H39   H     H_    0.300711 0.138460 0.555790 0.104957
H40   H     H_    0.698451 0.188640 0.468023 0.123384
H41   H     H_    0.511089 0.825897 0.530751 0.109478
H42   H     H_    0.931093 0.866061 0.451080 0.109209
H43   H     H_    0.336401 0.346697 0.504929 0.051915
H44   H     H_    0.986652 0.277914 0.715501 0.148929
H45   H     H_    0.890696 0.663851 0.574369 0.007384
H46   H     H_    0.844121 0.653664 0.480361 0.058479
H47   H     H_    0.149021 0.211583 0.699986 0.122818
H48   H     H_    0.308587 0.329737 0.418215 -0.006182
H49   H     H_    0.113337 0.331951 0.447137 0.056824
H50   H     H_    0.563742 0.239949 0.714342 0.217067
H51   H     H_    0.455979 0.193540 0.667867 0.176183
H52   H     H_    0.394873 0.620951 0.719025 0.186573
H53   H     H_    0.569501 0.620609 0.752424 0.201066
H54   H     H_    0.856914 0.666196 0.367659 0.112755
H55   H     H_    0.856541 0.656784 0.305808 0.195663
H56   H     H_    0.092110 0.672007 0.553617 0.068208
H57   H     H_    0.317504 0.316003 0.134889 0.223806
H58   H     H_    0.455811 0.379975 0.139056 0.221680
H59   H     H_    0.381400 0.391604 0.584701 0.132430
H60   H     H_    0.423809 0.474778 0.571600 0.209476
H61   H     H_    0.909763 0.776703 0.630933 0.134848
H62   H     H_    0.950805 0.791264 0.568092 0.064473
H63   H     H_    0.115133 0.783890 0.613076 0.130026
N1    N     N_R   0.939630 0.507218 0.205291 -0.430227
N2    N     N_3   0.336032 0.370452 0.145235 -0.423022
N3    N     N_3   0.342622 0.445162 0.587782 -0.437572
N4    N     N_R   0.236593 0.489844 0.796460 -0.419546
N5    N     N_R   0.532196 0.958047 0.524152 -0.241380
N6    N     N_R   0.482423 0.026864 0.529056 -0.241617
N7    N     N_R   0.680497 0.049804 0.475318 -0.232365
N8    N     N_R   0.730497 0.980758 0.470420 -0.235131
N9    N     N_3   0.568526 0.195445 0.686984 -0.483745
N10   N     N_3   0.519607 0.610632 0.716212 -0.526698
N11   N     N_3   0.894081 0.689925 0.337598 -0.474990
O1    O     O_2   0.914730 0.537460 0.618690 -0.458076
O2    O     O_2   0.238372 0.753059 0.469468 -0.490347
O3    O     O_3   0.123560 0.741962 0.377279 -0.599479
O4    O     O_3   0.146720 0.537410 0.558510 -0.470249
O5    O     O_3   0.553920 0.415280 0.473710 -0.490148
O6    O     O_2   0.383540 0.672140 0.526840 -0.458624
O7    O     O_3   0.581788 0.698936 0.606397 -0.658751
O8    O     O_2   0.366788 0.557126 0.327418 -0.509976
O9    O     O_3   0.547776 0.664985 0.328952 -0.598352
O10   O     O_2   0.109999 0.409731 0.208186 -0.556753
O11   O     O_2   0.344654 0.377524 0.801843 -0.619864
O12   O     O_3   0.620330 0.315097 0.394155 -0.618500
O13   O     O_2   0.776826 0.605738 0.195831 -0.594596
O14   O     O_2   0.111154 0.600136 0.797692 -0.602140
O15   O     O_3   0.666360 0.409390 0.586570 -0.498059
O16   O     O_2   0.778587 0.468146 0.676720 -0.474669
O17   O     O_3   0.073814 0.651377 0.626609 -0.633626
O18   O     O_3   0.734912 0.330729 0.667393 -0.601116
O19   O     O_2   0.806150 0.327840 0.473120 -0.460826
O20   O     O_3   0.073640 0.373350 0.561550 -0.460970
O21   O     O_2   0.995561 0.243699 0.518473 -0.484268
O22   O     O_3   0.048635 0.257205 0.615816 -0.597440
O23   O     O_2   0.274960 0.462520 0.381280 -0.467868
O24   O     O_3   0.042980 0.462530 0.441480 -0.495737
O25   O     O_3   0.523340 0.590550 0.413420 -0.482222
O26   O     O_3   0.112361 0.348579 0.372769 -0.587009
O27   O     O_3   0.635780 0.584660 0.526290 -0.485785
O28   O     O_3   0.116060 0.626590 0.438450 -0.497899
P1    P     P_3+3 0.084800 0.558370 0.611580 1.010458
P2    P     P_3+3 0.628800 0.338360 0.458800 1.004610
P3    P     P_3+3 0.109735 0.280695 0.559254 0.955430
P4    P     P_3+3 0.104900 0.441570 0.388420 1.016961
P5    P     P_3+3 0.096386 0.719758 0.437533 0.941428
P6    P     P_3+3 0.658648 0.413772 0.651849 0.965082
P7    P     P_3+3 0.568019 0.673956 0.541923 0.944648
P8    P     P_3+3 0.533673 0.580449 0.348461 0.956178

loop_
_geom_bond_atom_site_label_1
_geom_bond_atom_site_label_2
_ccdc_geom_bond_type
O28   P5    S    
Ba2   O6    S    
C19   C24   A    
C4    O22   S    
C12   O18   S    
Ba2   O24   S    
Ba2   O25   S    
C40   H23   S    
C12   H1    S    
Ba1   O1    S    
C40   H12   S    
C30   P6    S    
C56   H17   S    
C16   H44   S    
C55   C60   A    
C64   H20   S    
O26   P4    S    
C42   H35   S    
C10   C11   A    
C10   C66   A    
Ba1   P1    S    
O22   P3    S    
C63   H6    S    
C38   F2    S    
C45   H15   S    
C47   H39   S    
C17   C19   A    
C34   N10   S    
C22   C24   A    
C32   C33   S    
C35   C38   A    
C66   O10   D    
C36   C37   A    
O23   P4    D    
C52   C61   S    
H55   N11   S    
Ba2   O4    S    
C44   C50   D    
C53   N6    A    
C54   C55   A    
O20   P3    S    
Ba1   Ba2   S    
C12   H7    S    
C1    H4    S    
C22   C27   A    
C28   O26   S    
C11   C38   A    
C17   C35   A    
Ba2   P4    S    
C9    C13   A    
C25   C42   A    
C61   H63   S    
C29   C30   S    
Ba1   O20   S    
C6    C7    D    
C4    H24   S    
C16   H14   S    
C21   C22   A    
Ba1   O5    S    
C61   H61   S    
C31   P1    S    
C7    C8    S    
C54   H41   S    
Ba2   O27   S    
C37   C43   A    
C46   P3    S    
Ba2   O5    S    
C29   H27   S    
C64   C65   S    
O9    P8    S    
C57   C58   A    
C6    C14   D    
C65   H25   S    
C11   N2    S    
O27   P7    S    
C1    N9    S    
C15   C31   D    
H52   N10   S    
C56   H16   S    
C26   O14   D    
C31   C32   D    
C64   H19   S    
C44   C46   S    
C4    C16   S    
O4    P1    S    
C45   O3    S    
Ba1   P2    S    
C23   H8    S    
C32   H36   S    
C57   P5    S    
C17   C20   A    
H50   N9    S    
N7    N8    A    
C13   C39   A    
C34   H10   S    
H58   N2    S    
C3    C5    S    
C18   C37   A    
C28   H48   S    
Ba1   O24   S    
C61   H62   S    
C45   N11   S    
Ba1   O27   S    
C53   N7    A    
C49   C50   D    
O2    P5    D    
C56   H18   S    
C58   C59   A    
O8    P8    D    
C9    C36   A    
C41   C42   A    
C60   H46   S    
C35   C36   A    
C58   H42   S    
H59   N3    S    
O17   P1    S    
O3    P5    S    
O7    P7    S    
C2    O13   D    
C7    H26   S    
C3    H30   S    
Ba1   O15   S    
C34   H11   S    
C62   H3    S    
O12   P2    S    
C52   H45   S    
C15   N3    S    
C65   H21   S    
C48   C49   S    
C24   C25   A    
C54   C59   A    
C4    H33   S    
O5    P2    S    
C16   H47   S    
O16   P6    D    
C1    C12   S    
H60   N3    S    
C46   C47   S    
O1    P1    D    
C49   H40   S    
C51   N5    A    
C1    H13   S    
C29   C33   D    
O15   P6    S    
C51   C59   S    
C50   P2    S    
C18   C41   A    
C2    N1    Am   
O24   P4    S    
C5    C14   S    
C57   C60   A    
C20   H29   S    
O25   P8    S    
C44   H43   S    
C23   H9    S    
H51   N9    S    
C28   C40   S    
C26   N4    Am   
C8    N1    S    
H57   N2    S    
C40   H34   S    
C64   O9    S    
C55   P7    S    
C9    C10   A    
C6    P4    S    
O21   P3    D    
C27   N4    Am   
C62   O12   S    
C48   C53   S    
C63   H5    S    
C27   O11   D    
C23   O7    S    
C62   C63   S    
C2    C13   A    
C66   N1    Am   
C41   H32   S    
C3    C8    D    
C33   N4    S    
C45   C56   S    
C52   H56   S    
C63   F1    S    
C65   H22   S    
C39   H31   S    
C5    P8    S    
C51   N8    A    
C62   H2    S    
C52   O17   S    
O18   P6    S    
N5    N6    A    
C14   H38   S    
C23   C34   S    
C21   H28   S    
C18   C19   A    
Ba1   O19   S    
C47   C48   D    
C28   H49   S    
H53   N10   S    
C25   C26   A    
C15   C30   S    
C39   C43   A    
C20   C21   A    
H54   N11   S    
Ba1   O4    S    
O19   P2    D    
Ba2   O23   S    
C43   H37   S    
Ba2   O28   S    
O6    P7    D    
