data_mof_unit_65693.cif
_audit_creation_date              2012-12-11T15:00:40-0500
_audit_creation_method            fapswitch 2.2
_symmetry_space_group_name_H-M    P1
_symmetry_Int_Tables_number       1
_space_group_crystal_system       triclinic
_cell_length_a                    13.25659
_cell_length_b                    13.317986
_cell_length_c                    26.84142
_cell_angle_alpha                 96.977444
_cell_angle_beta                  97.197843
_cell_angle_gamma                 61.186405
_cell_volume                      4109.26510202

loop_
_atom_site_label
_atom_site_type_symbol
_atom_type_description
_atom_site_fract_x
_atom_site_fract_y
_atom_site_fract_z
_atom_type_partial_charge
C1    C     C_R   0.397222 0.679507 0.427395 0.555858
C2    C     C_3   0.746330 0.287852 0.205340 -0.101390
C3    C     C_3   0.850774 0.306687 0.197993 0.032834
C4    C     C_R   0.394151 0.372782 0.417839 0.542996
C5    C     C_3   0.828902 0.426961 0.221979 -0.222178
C6    C     C_3   0.816871 0.435673 0.278956 -0.239429
C7    C     C_1   0.869299 0.298777 0.144554 -0.048819
C8    C     C_1   0.803909 0.341081 0.348414 -0.053112
C9    C     C_1   0.775581 0.363406 0.390704 0.001900
C10   C     C_3   0.444972 0.675851 0.255801 -0.093597
C11   C     C_3   0.396660 0.880765 0.283922 -0.097500
C12   C     C_1   0.326373 0.329970 0.269124 0.055354
C13   C     C_3   0.386271 0.905475 0.227732 -0.215218
C14   C     C_1   0.308335 0.885507 0.099302 -0.000678
C15   C     C_3   0.361914 0.785395 0.287612 0.042749
C16   C     C_R   0.724615 0.399138 0.437500 0.540541
C17   C     C_3   0.431261 0.701664 0.199781 -0.206244
C18   C     C_3   0.343670 0.828955 0.193285 0.028097
C19   C     C_3   0.225207 0.853407 0.209423 -0.222681
C20   C     C_3   0.235853 0.826523 0.264721 -0.215643
C21   C     C_1   0.329675 0.854905 0.141063 -0.061208
C22   C     C_1   0.371905 0.757588 0.339638 -0.054258
C23   C     C_1   0.340268 0.340454 0.321979 -0.003409
C24   C     C_1   0.381776 0.725885 0.380595 0.006988
C25   C     C_3   0.453006 0.289067 0.726284 -0.212396
C26   C     C_3   0.270720 0.274038 0.702546 -0.214961
C27   C     C_3   0.260553 0.267442 0.758801 -0.212229
C28   C     C_R   0.381544 0.724538 0.575530 0.554462
C29   C     C_1   0.296045 0.307749 0.887407 -0.010817
C30   C     C_3   0.331641 0.345986 0.697717 0.060813
C31   C     C_3   0.442849 0.282590 0.782476 -0.214253
C32   C     C_3   0.314441 0.334836 0.793094 0.061383
C33   C     C_3   0.250330 0.461551 0.779342 -0.214595
C34   C     C_1   0.359727 0.353005 0.366596 0.014248
C35   C     C_3   0.260463 0.468154 0.722986 -0.212727
C36   C     C_1   0.305075 0.325398 0.845850 -0.069782
C37   C     C_1   0.344041 0.352365 0.644984 -0.069307
C38   C     C_1   0.362653 0.360479 0.603469 -0.009792
C39   C     C_1   0.889186 0.293822 0.864359 -0.008614
C40   C     C_R   0.395666 0.376260 0.557806 0.548072
C41   C     C_1   0.861596 0.305664 0.820067 -0.046485
C42   C     C_1   0.838630 0.319914 0.767867 -0.010198
C43   C     C_1   0.821489 0.333687 0.723424 -0.010106
C44   C     C_1   0.798724 0.353031 0.671670 -0.046366
C45   C     C_3   0.725528 0.305643 0.262607 -0.093147
C46   C     C_1   0.771433 0.373580 0.628044 -0.008613
C47   C     C_1   0.293216 0.893894 0.862785 -0.009241
C48   C     C_1   0.312895 0.866379 0.819184 -0.046933
C49   C     C_1   0.330565 0.842914 0.767375 -0.009960
C50   C     C_1   0.342769 0.824978 0.722867 -0.009519
C51   C     C_1   0.355407 0.801039 0.670667 -0.046330
C52   C     C_R   0.723919 0.404038 0.577762 0.543167
C53   C     C_1   0.366456 0.772779 0.626477 -0.009600
C54   C     C_R   0.942384 0.277696 0.056015 0.549636
C55   C     C_R   0.287906 0.270697 0.073460 0.549126
C56   C     C_3   0.942603 0.223147 0.283541 -0.213330
C57   C     C_R   0.271160 0.936958 0.052877 0.549360
C58   C     C_R   0.937063 0.278904 0.915541 0.542135
C59   C     C_R   0.281561 0.273684 0.933079 0.547188
C60   C     C_R   0.262674 0.941005 0.912912 0.542732
C61   C     C_1   0.303786 0.299258 0.125839 0.014118
C62   C     C_1   0.312208 0.313612 0.170932 -0.005076
C63   C     C_1   0.319232 0.323214 0.223868 0.056359
C64   C     C_1   0.640189 0.363177 0.175384 0.182371
C65   C     C_1   0.326824 0.987607 0.314348 0.197065
C66   C     C_1   0.716067 0.208220 0.278514 0.183083
C67   C     C_3   0.959799 0.211672 0.226359 -0.096725
C68   C     C_1   0.426104 0.576924 0.259874 0.173759
C69   C     C_1   0.067060 0.214084 0.218953 0.180370
C70   C     C_1   0.895098 0.291664 0.102577 0.003646
C71   C     C_3   0.822656 0.324782 0.294751 0.021383
Cr1   Cr    Cr6+3 0.585490 0.589720 0.509170 1.037174
Cr2   Cr    Cr6+3 0.329280 0.580760 0.494920 1.036643
Cr3   Cr    Cr6+3 0.585250 0.329540 0.495950 1.045020
Cr4   Cr    Cr6+3 0.077160 0.074530 0.981700 1.036005
Cr5   Cr    Cr6+3 0.079310 0.333830 0.996170 1.038834
Cr6   Cr    Cr6+3 0.334250 0.081620 0.994710 1.039283
H1    H     H_    0.767981 0.198282 0.190817 0.112132
H2    H     H_    0.401246 0.646820 0.174592 0.162257
H3    H     H_    0.161018 0.945127 0.205008 0.125290
H4    H     H_    0.490865 0.191349 0.792184 0.124199
H5    H     H_    0.506008 0.200936 0.709071 0.124359
H6    H     H_    0.183115 0.313506 0.682476 0.123366
H7    H     H_    0.320392 0.185765 0.684795 0.123776
H8    H     H_    0.305059 0.175819 0.767946 0.124869
H9    H     H_    0.167936 0.303409 0.765694 0.124744
H10   H     H_    0.302551 0.521800 0.719847 0.125017
H11   H     H_    0.498842 0.339254 0.723226 0.124645
H12   H     H_    0.642084 0.383465 0.269643 0.138826
H13   H     H_    0.483469 0.329840 0.806365 0.122341
H14   H     H_    0.157633 0.500957 0.786719 0.123754
H15   H     H_    0.733634 0.511601 0.288427 0.111020
H16   H     H_    0.887053 0.450151 0.300152 0.136740
H17   H     H_    0.749057 0.495354 0.203745 0.124622
H18   H     H_    0.901125 0.443209 0.215827 0.141347
H19   H     H_    0.472164 0.887599 0.217045 0.114595
H20   H     H_    0.010946 0.236805 0.307144 0.151803
H21   H     H_    0.172605 0.510943 0.703334 0.123650
H22   H     H_    0.287691 0.511768 0.803212 0.122819
H23   H     H_    0.516570 0.682248 0.187726 0.113161
H24   H     H_    0.949915 0.141862 0.294546 0.124512
H25   H     H_    0.971301 0.125890 0.210586 0.091356
H26   H     H_    0.535533 0.650639 0.270615 0.085820
H27   H     H_    0.488159 0.849376 0.298996 0.105847
H28   H     H_    0.326275 0.997472 0.221510 0.162832
H29   H     H_    0.209524 0.759450 0.266601 0.138278
H30   H     H_    0.174905 0.904471 0.286623 0.131588
H31   H     H_    0.192176 0.800349 0.184812 0.128745
N1    N     N_1   0.557262 0.421482 0.151674 -0.314913
N2    N     N_1   0.272091 0.071319 0.338101 -0.301376
N3    N     N_1   0.708512 0.132079 0.290984 -0.288963
N4    N     N_1   0.411073 0.499598 0.263218 -0.321558
N5    N     N_1   0.150997 0.215908 0.212973 -0.324937
O1    O     O_R   0.700490 0.499650 0.456540 -0.514263
O2    O     O_R   0.362200 0.173970 0.055450 -0.503018
O3    O     O_R   0.326660 0.983110 0.039170 -0.494573
O4    O     O_R   0.479270 0.682700 0.457880 -0.490676
O5    O     O_R   0.165170 0.960730 0.925500 -0.505513
O6    O     O_R   0.978790 0.179600 0.932440 -0.494274
O7    O     O_R   0.960680 0.356080 0.937360 -0.504797
O8    O     O_R   0.182750 0.328100 0.950670 -0.494781
O9    O     O_R   0.356720 0.175530 0.946790 -0.505972
O10   O     O_R   0.321590 0.984560 0.938450 -0.494897
O11   O     O_3   0.163570 0.163330 0.990860 -0.255639
O12   O     O_R   0.339040 0.474950 0.540330 -0.495366
O13   O     O_R   0.304400 0.696100 0.445190 -0.499183
O14   O     O_R   0.337880 0.472540 0.439600 -0.509403
O15   O     O_R   0.493250 0.300300 0.435260 -0.492805
O16   O     O_R   0.681040 0.341130 0.451400 -0.488867
O17   O     O_R   0.701750 0.502250 0.565200 -0.504339
O18   O     O_R   0.480430 0.685110 0.558610 -0.487854
O19   O     O_R   0.305650 0.698700 0.553850 -0.499695
O20   O     O_R   0.494500 0.302900 0.543920 -0.503309
O21   O     O_R   0.682200 0.343540 0.552130 -0.492501
O22   O     O_3   0.500010 0.500010 0.500010 -0.273625
O23   O     O_R   0.170650 0.959160 0.034150 -0.507069
O24   O     O_R   0.983870 0.178140 0.033160 -0.494879
O25   O     O_R   0.966160 0.354510 0.046020 -0.504106
O26   O     O_R   0.187830 0.326650 0.051390 -0.493443

loop_
_geom_bond_atom_site_label_1
_geom_bond_atom_site_label_2
_ccdc_geom_bond_type
C25   C31   S    
C59   O8    A    
C26   H6    S    
C46   C52   S    
C45   C71   S    
C18   C21   S    
C52   O21   A    
C41   C42   S    
C19   C20   S    
C7    C70   T    
C5    H17   S    
C39   C41   T    
C29   C36   T    
C69   N5    T    
C26   C27   S    
Cr5   O7    S    
C13   C18   S    
C2    H1    S    
Cr5   O8    S    
C32   C36   S    
C14   C21   T    
C10   H26   S    
C9    C16   S    
C56   H24   S    
C3    C7    S    
C10   C15   S    
C33   H14   S    
C5    C6    S    
Cr2   O12   S    
C54   O24   A    
C10   C17   S    
Cr2   O13   S    
Cr3   O20   S    
Cr1   O1    S    
C17   H2    S    
C55   O26   A    
C18   C19   S    
C68   N4    T    
C27   H8    S    
Cr6   O9    S    
C47   C60   S    
C35   H10   S    
C15   C22   S    
Cr3   O15   S    
C29   C59   S    
C44   C46   T    
C8    C9    T    
C8    C71   S    
Cr1   O4    S    
C57   O23   A    
C60   O5    A    
C11   H27   S    
C66   N3    T    
C35   H21   S    
C45   H12   S    
C61   C62   T    
C20   H30   S    
C19   H31   S    
C6    H16   S    
C59   O9    A    
Cr2   O19   S    
C6    C71   S    
Cr4   O5    S    
C11   C15   S    
C56   H20   S    
C5    H18   S    
C2    C64   S    
C50   C51   S    
C57   O3    A    
C20   H29   S    
C2    C45   S    
C15   C20   S    
C4    C34   S    
C4    O15   A    
C13   H19   S    
Cr4   O11   S    
Cr5   O11   S    
Cr2   O22   S    
Cr4   O6    S    
C1    O13   A    
C13   H28   S    
Cr4   O24   S    
C12   C63   T    
Cr4   O23   S    
Cr1   O22   S    
C12   C23   S    
Cr2   O14   S    
C39   C58   S    
C25   H11   S    
C30   C37   S    
C51   C53   T    
C27   H9    S    
C33   H22   S    
C43   C44   S    
C37   C38   T    
Cr6   O10   S    
C47   C48   T    
C54   C70   S    
C31   H13   S    
Cr3   O22   S    
C62   C63   S    
C58   O7    A    
C17   C18   S    
C1    O4    A    
C16   O16   A    
C30   C35   S    
C48   C49   S    
C26   C30   S    
Cr5   O25   S    
C25   H5    S    
C28   O19   A    
C22   C24   T    
C42   C43   T    
C55   C61   S    
Cr6   O3    S    
Cr1   O18   S    
Cr5   O26   S    
C25   C30   S    
C14   C57   S    
C23   C34   T    
C26   H7    S    
C4    O14   A    
C27   C32   S    
C31   C32   S    
C3    C67   S    
C3    C5    S    
C16   O1    A    
C28   C53   S    
Cr1   O17   S    
C10   C68   S    
C56   C67   S    
C40   O20   A    
C31   H4    S    
C28   O18   A    
C52   O17   A    
C32   C33   S    
C2    C3    S    
Cr6   O11   S    
C38   C40   S    
C11   C13   S    
C64   N1    T    
C54   O25   A    
C55   O2    A    
C6    H15   S    
C40   O12   A    
Cr3   O21   S    
C58   O6    A    
C33   C35   S    
C19   H3    S    
C17   H23   S    
C65   N2    T    
C56   C71   S    
C60   O10   A    
C1    C24   S    
C49   C50   T    
Cr3   O16   S    
C45   C66   S    
C67   C69   S    
Cr6   O2    S    
C11   C65   S    
C67   H25   S    
