data_mof_unit_28788.cif
_audit_creation_date              2012-12-10T17:02:58-0500
_audit_creation_method            fapswitch 2.2
_symmetry_space_group_name_H-M    P1
_symmetry_Int_Tables_number       1
_space_group_crystal_system       triclinic
_cell_length_a                    9.803743
_cell_length_b                    11.049739
_cell_length_c                    13.407096
_cell_angle_alpha                 94.283768
_cell_angle_beta                  81.848358
_cell_angle_gamma                 111.439523
_cell_volume                      1337.8047573

loop_
_atom_site_label
_atom_site_type_symbol
_atom_type_description
_atom_site_fract_x
_atom_site_fract_y
_atom_site_fract_z
_atom_type_partial_charge
C1    C     C_R   0.557069 0.745627 0.506811 0.876579
C2    C     C_R   0.418808 0.448363 0.971418 -0.033690
C3    C     C_R   0.454921 0.435205 0.865952 0.029155
C4    C     C_R   0.522565 0.449283 0.036090 0.080606
C5    C     C_R   0.643195 0.410633 0.997752 0.160080
C6    C     C_R   0.661450 0.374948 0.896269 -0.247030
C7    C     C_R   0.569778 0.388148 0.831005 -0.182648
C8    C     C_R   0.514748 0.494917 0.136363 -0.191719
C9    C     C_R   0.728275 0.446131 0.162767 -0.178399
C10   C     C_R   0.371910 0.465706 0.799298 -0.104913
C11   C     C_2   0.589442 0.884917 0.510688 -0.390766
C12   C     C_R   0.421188 0.481661 0.690350 0.794034
C13   C     C_2   0.486660 0.929966 0.492997 -0.116285
C14   C     C_2   0.408788 0.114203 0.488602 0.276423
C15   C     C_2   0.514288 0.068530 0.500639 -0.264494
C16   C     C_2   0.922359 0.490060 0.491273 -0.074345
C17   C     C_2   0.078339 0.511153 0.507965 -0.072284
C18   C     C_R   0.442799 0.254260 0.493081 0.743626
C19   C     C_R   0.576268 0.507463 0.309282 0.807835
C20   C     C_R   0.744244 0.408325 0.061474 -0.193446
C21   C     C_R   0.612569 0.488797 0.200693 -0.087530
C22   C     C_R   0.243514 0.489716 0.838358 -0.277257
C23   C     C_R   0.195047 0.480726 0.940753 -0.226852
C24   C     C_R   0.278090 0.455465 0.007416 0.432816
Cu1   Cu    Cu3+1 0.362000 0.479240 0.482530 0.951256
Cu2   Cu    Cu3+1 0.638000 0.520760 0.517470 0.926794
H1    H     H_    0.803477 0.438526 0.211790 0.156131
H2    H     H_    0.379968 0.863594 0.474202 0.219812
H3    H     H_    0.696719 0.950642 0.529036 0.154191
H4    H     H_    0.128836 0.581725 0.565171 0.154676
H5    H     H_    0.872581 0.420750 0.433136 0.158597
H6    H     H_    0.102865 0.380568 0.403722 0.198582
H7    H     H_    0.895348 0.617317 0.598374 0.190209
H8    H     H_    0.749778 0.340428 0.866504 0.139428
H9    H     H_    0.434228 0.538047 0.165781 0.206917
H10   H     H_    0.178263 0.512988 0.789250 0.171634
H11   H     H_    0.090609 0.490945 0.968625 0.155847
H12   H     H_    0.587826 0.356684 0.753722 0.170388
H13   H     H_    0.622309 0.134072 0.517941 0.151722
N1    N     N_2   0.845330 0.551960 0.543750 -0.289361
N2    N     N_2   0.154690 0.448120 0.456210 -0.278360
O1    O     O_R   0.426290 0.668220 0.490680 -0.577267
O2    O     O_R   0.659360 0.703290 0.520190 -0.569301
O3    O     O_R   0.326580 0.473880 0.629020 -0.583425
O4    O     O_R   0.559660 0.508940 0.658530 -0.575397
O5    O     O_R   0.340640 0.296710 0.479810 -0.551995
O6    O     O_R   0.573710 0.331780 0.509320 -0.610204
O7    O     O_R   0.440340 0.491060 0.341470 -0.561287
O8    O     O_R   0.673420 0.526120 0.370980 -0.573986
O9    O     O_3   0.272765 0.031632 0.462853 -0.564094
C25   C     C_3   0.170097 0.003837 0.550921 0.039545
H14   H     H_    0.157187 0.094061 0.586449 0.149525
H15   H     H_    0.204889 0.954268 0.606544 0.132824
C26   C     C_3   0.020574 0.913408 0.523240 -0.742105
H16   H     H_    0.029907 0.822518 0.487135 0.251786
H17   H     H_    0.939231 0.888560 0.592126 0.194279
H18   H     H_    0.980781 0.961623 0.469975 0.246811
H19   H     H_    0.834212 0.375413 0.033251 0.127885
O10   O     O_3   0.212782 0.423364 0.104884 -0.598230
C27   C     C_3   0.131841 0.288003 0.105992 0.068016
H20   H     H_    0.203183 0.231596 0.075439 0.147115
H21   H     H_    0.037282 0.262846 0.061218 0.137059
C28   C     C_3   0.070603 0.246857 0.213656 -0.780135
H22   H     H_    0.999211 0.301525 0.246894 0.228979
H23   H     H_    0.003735 0.141209 0.214726 0.204737
H24   H     H_    0.163121 0.265923 0.258944 0.260907

loop_
_geom_bond_atom_site_label_1
_geom_bond_atom_site_label_2
_ccdc_geom_bond_type
Cu1   O1    S    
C2    C4    A    
H6    N2    S    
C28   H23   S    
C13   H2    S    
C6    C7    A    
C12   O4    A    
C22   H10   S    
C14   C18   S    
C9    C20   A    
C1    C11   S    
C4    C8    A    
C23   C24   A    
C25   C26   S    
Cu2   N1    S    
C18   O6    A    
C14   C15   D    
O9    C25   S    
C28   H24   S    
O10   C27   S    
C12   O3    A    
C3    C10   A    
C10   C22   A    
C16   H5    S    
C17   H4    S    
C11   C13   D    
Cu1   O7    S    
C15   H13   S    
C14   O9    S    
C10   C12   S    
Cu2   O6    S    
C16   N1    D    
C24   O10   S    
C18   O5    A    
Cu1   O3    S    
C19   C21   S    
C7    H12   S    
Cu2   O2    S    
C2    C3    A    
C3    C7    A    
C13   C15   S    
C2    C24   A    
C5    C6    A    
C26   H17   S    
C19   O8    A    
C17   N2    D    
C27   C28   S    
C11   H3    S    
C28   H22   S    
C20   H19   S    
C25   H14   S    
C9    C21   A    
C1    O1    A    
C26   H18   S    
C9    H1    S    
C27   H21   S    
Cu2   O8    S    
Cu1   N2    S    
C26   H16   S    
C5    C20   A    
H7    N1    S    
C22   C23   A    
C16   C17   S    
C19   O7    A    
Cu2   O4    S    
Cu1   Cu2   S    
C23   H11   S    
Cu1   O5    S    
C1    O2    A    
C27   H20   S    
C6    H8    S    
C4    C5    A    
C25   H15   S    
C8    H9    S    
C8    C21   A    
