data_mof_unit_64666.cif
_audit_creation_date              2012-12-10T16:49:25-0500
_audit_creation_method            fapswitch 2.2
_symmetry_space_group_name_H-M    P1
_symmetry_Int_Tables_number       1
_space_group_crystal_system       triclinic
_cell_length_a                    18.625965
_cell_length_b                    18.984163
_cell_length_c                    19.012308
_cell_angle_alpha                 110.309801
_cell_angle_beta                  109.406437
_cell_angle_gamma                 109.371544
_cell_volume                      5131.31493415

loop_
_atom_site_label
_atom_site_type_symbol
_atom_type_description
_atom_site_fract_x
_atom_site_fract_y
_atom_site_fract_z
_atom_type_partial_charge
C1    C     C_R   0.379926 0.383472 0.501593 0.956675
C2    C     C_2   0.310597 0.324881 0.505120 -0.303851
C3    C     C_2   0.479821 0.166141 0.241532 -0.226523
C4    C     C_R   0.496969 0.616429 0.619341 0.852076
C5    C     C_2   0.511545 0.184430 0.192552 -0.392124
C6    C     C_2   0.490122 0.235600 0.316450 0.440902
C7    C     C_2   0.487477 0.304011 0.311638 -0.469325
C8    C     C_2   0.748207 0.739288 0.422674 -0.149572
C9    C     C_2   0.807077 0.817314 0.494511 -0.308374
C10   C     C_2   0.675901 0.677646 0.422572 -0.149177
C11   C     C_2   0.689440 0.675375 0.495150 -0.320605
C12   C     C_R   0.410841 0.670719 0.673157 0.102656
C13   C     C_R   0.379518 0.991499 0.873475 0.829651
C14   C     C_R   0.497581 0.877407 0.875037 0.856236
C15   C     C_R   0.620162 0.999688 0.117700 0.930729
C16   C     C_R   0.620084 0.616747 0.498616 0.927776
C17   C     C_R   0.502297 0.116953 0.118772 0.969100
C18   C     C_R   0.878913 0.998393 0.381289 0.916806
C19   C     C_R   0.121137 0.118851 0.501783 0.930180
C20   C     C_R   0.124571 0.005315 0.618403 0.991106
C21   C     C_R   0.878895 0.881155 0.498236 0.937170
C22   C     C_2   0.264093 0.003860 0.676580 0.467474
C23   C     C_R   0.492614 0.678371 0.684524 -0.098119
C24   C     C_2   0.201458 0.018794 0.686467 -0.366468
C25   C     C_2   0.331204 0.011919 0.750911 -0.394831
C26   C     C_2   0.309730 0.971169 0.792571 0.240010
C27   C     C_2   0.748972 0.011201 0.325353 -0.139107
C28   C     C_R   0.496321 0.376867 0.379953 0.991725
C29   C     C_2   0.807436 0.990548 0.313010 -0.336576
C30   C     C_2   0.676556 0.999207 0.252094 -0.132595
C31   C     C_2   0.689480 0.011180 0.191053 -0.335861
C32   C     C_R   0.328844 0.595586 0.604736 -0.169518
C33   C     C_R   0.249725 0.593005 0.592499 -0.146969
C34   C     C_R   0.572563 0.750026 0.756009 -0.195513
C35   C     C_R   0.250722 0.664615 0.647893 -0.075239
C36   C     C_R   0.330723 0.737741 0.717635 -0.129981
C37   C     C_R   0.411482 0.740321 0.732919 0.071884
C38   C     C_R   0.572907 0.815994 0.816641 -0.194576
C39   C     C_R   0.493359 0.811121 0.805778 -0.092759
C40   C     C_2   0.252059 0.260606 0.577498 -0.152097
C41   C     C_2   0.193050 0.182680 0.505574 -0.270489
C42   C     C_2   0.324309 0.322317 0.577586 -0.130293
H1    H     H_    0.634994 0.755545 0.764132 0.163549
H2    H     H_    0.324766 0.537927 0.560875 0.149479
H3    H     H_    0.208574 0.045106 0.750689 0.160215
H4    H     H_    0.399660 0.055935 0.774344 0.168183
H5    H     H_    0.751726 0.032677 0.387597 0.181028
H6    H     H_    0.798650 0.959751 0.248407 0.160543
H7    H     H_    0.613771 0.983142 0.249675 0.178842
H8    H     H_    0.754863 0.037356 0.198737 0.158251
H9    H     H_    0.187490 0.535504 0.539462 0.149040
H10   H     H_    0.189337 0.663249 0.637256 0.175799
H11   H     H_    0.328771 0.792378 0.758500 0.189915
H12   H     H_    0.244872 0.287249 0.448281 0.149757
H13   H     H_    0.635408 0.870548 0.872915 0.158865
H14   H     H_    0.249601 0.277552 0.637087 0.166703
H15   H     H_    0.201473 0.162150 0.449353 0.174230
H16   H     H_    0.387594 0.367107 0.637501 0.169273
H17   H     H_    0.410966 0.081812 0.341441 0.357715
H18   H     H_    0.415195 0.057999 0.642450 0.354020
H19   H     H_    0.140468 0.765473 0.747384 0.379010
H20   H     H_    0.448304 0.099836 0.227958 0.196645
H21   H     H_    0.550135 0.251247 0.209973 0.163589
H22   H     H_    0.470483 0.303422 0.250869 0.137310
H23   H     H_    0.750766 0.722233 0.363129 0.169597
H24   H     H_    0.798602 0.837919 0.550691 0.163123
H25   H     H_    0.612722 0.632664 0.362564 0.169561
H26   H     H_    0.755096 0.713169 0.552119 0.167120
O1    O     O_R   0.460610 0.409240 0.550770 -0.575829
O2    O     O_R   0.909530 0.949160 0.358700 -0.632603
O3    O     O_R   0.090460 0.141840 0.551380 -0.632320
O4    O     O_R   0.358470 0.409870 0.449260 -0.644951
O5    O     O_R   0.090460 0.039050 0.448590 -0.587452
O6    O     O_R   0.090470 0.050840 0.641300 -0.638730
O7    O     O_R   0.090460 0.948050 0.538510 -0.531669
O8    O     O_R   0.909540 0.960950 0.551410 -0.621032
O9    O     O_R   0.909540 0.858160 0.448620 -0.612773
O10   O     O_R   0.551070 0.590720 0.641790 -0.631376
O11   O     O_R   0.448930 0.591350 0.540280 -0.618977
O12   O     O_R   0.358520 0.946380 0.906940 -0.542249
O13   O     O_R   0.641530 0.590130 0.550740 -0.622472
O14   O     O_R   0.539390 0.590760 0.449230 -0.611696
O15   O     O_R   0.551070 0.408650 0.459720 -0.547632
O16   O     O_R   0.448930 0.409280 0.358210 -0.634936
O17   O     O_R   0.460650 0.048500 0.906910 -0.642828
O18   O     O_2   0.588273 0.284214 0.482398 -0.229532
O19   O     O_2   0.431672 0.236189 0.428306 -0.311586
O20   O     O_3   0.475828 0.119194 0.379770 -0.521544
O21   O     O_2   0.205020 0.888896 0.511895 -0.201543
O22   O     O_2   0.260255 0.041393 0.551818 -0.319365
O23   O     O_R   0.551120 0.956920 0.905770 -0.615560
O24   O     O_3   0.373987 0.994322 0.604926 -0.505870
O25   O     O_2   0.149619 0.921094 0.778007 -0.308791
O26   O     O_2   0.153153 0.837062 0.649117 -0.277063
O27   O     O_3   0.202942 0.811590 0.777650 -0.561570
O28   O     O_R   0.449000 0.854790 0.905800 -0.621468
O29   O     O_R   0.641600 0.047410 0.086710 -0.622862
O30   O     O_R   0.539480 0.945290 0.086740 -0.615265
O31   O     O_R   0.551130 0.138990 0.087850 -0.620449
O32   O     O_R   0.449000 0.036870 0.087880 -0.615173
O33   O     O_R   0.909540 0.051950 0.461490 -0.614767
S1    S     S_3+6 0.496874 0.220726 0.405076 0.061799
S2    S     S_3+6 0.273691 0.981423 0.582717 0.079559
S3    S     S_3+6 0.200297 0.884124 0.746783 0.016367
Zn1   Zn    Zn3+2 0.568200 0.499580 0.567780 1.051316
Zn2   Zn    Zn3+2 0.431800 0.500420 0.432220 0.980245
Zn3   Zn    Zn3+2 0.568250 0.065080 0.996810 0.979473
Zn4   Zn    Zn3+2 0.431870 0.928710 0.996840 1.027569
Zn5   Zn    Zn3+2 0.000000 0.068630 0.568630 0.984162
Zn6   Zn    Zn3+2 0.000000 0.931370 0.431370 1.068472

loop_
_geom_bond_atom_site_label_1
_geom_bond_atom_site_label_2
_ccdc_geom_bond_type
C18   O2    A    
C27   C29   D    
C19   O3    A    
C35   C36   A    
C14   O23   A    
C3    C6    S    
C42   H16   S    
O6    Zn5   S    
O5    Zn6   S    
C10   H25   S    
C11   H26   S    
C28   O16   A    
C21   O8    A    
O10   Zn1   S    
C24   H3    S    
C36   C37   A    
C38   C39   A    
C5    C17   S    
O33   Zn5   S    
O30   Zn4   S    
C5    H21   S    
C1    C2    S    
C12   C37   A    
H17   O20   S    
C36   H11   S    
O2    Zn6   S    
O24   S2    S    
C26   S3    S    
C14   C39   S    
C9    H24   S    
C38   H13   S    
C20   C24   S    
O8    Zn5   S    
C40   H14   S    
C22   C25   S    
O16   Zn2   S    
C40   C42   S    
O28   Zn4   S    
C13   O12   A    
O26   S3    D    
C8    H23   S    
O21   S2    D    
C27   C30   S    
C15   O29   A    
O25   S3    D    
C14   O28   A    
H18   O24   S    
C7    H22   S    
O13   Zn1   S    
O32   Zn4   S    
C1    O4    A    
C29   H6    S    
O23   Zn3   S    
C19   O5    A    
C4    O11   A    
C2    H12   S    
C4    C23   S    
O1    Zn1   S    
C8    C9    D    
C25   C26   D    
C1    O1    A    
C22   S2    S    
O15   Zn1   S    
C20   O7    A    
C18   O33   A    
C4    O10   A    
O19   S1    D    
C11   C16   S    
C12   C23   A    
C23   C34   A    
C16   O14   A    
C32   H2    S    
C20   O6    A    
C18   C29   S    
C17   O31   A    
C8    C10   S    
C40   C41   D    
C30   H7    S    
O4    Zn2   S    
C22   C24   D    
C13   C26   S    
C15   O30   A    
C21   O9    A    
O18   S1    D    
O27   S3    S    
C3    H20   S    
C27   H5    S    
O7    Zn6   S    
C34   C38   A    
C34   H1    S    
C3    C5    D    
O20   S1    S    
H19   O27   S    
C15   C31   S    
C6    C7    D    
C33   H9    S    
O31   Zn3   S    
O12   Zn4   S    
C32   C33   A    
C41   H15   S    
C37   C39   A    
C9    C21   S    
C30   C31   D    
C2    C42   D    
O3    Zn5   S    
C16   O13   A    
C33   C35   A    
O14   Zn2   S    
O9    Zn6   S    
C17   O32   A    
O22   S2    D    
C10   C11   D    
C7    C28   S    
O29   Zn3   S    
O11   Zn2   S    
C6    S1    S    
C13   O17   A    
C35   H10   S    
C31   H8    S    
O17   Zn3   S    
C25   H4    S    
C12   C32   A    
C19   C41   S    
C28   O15   A    
