data_mof_unit_66252.cif
_audit_creation_date              2013-03-05T15:43:13-0500
_audit_creation_method            fapswitch 2.2
_symmetry_space_group_name_H-M    P1
_symmetry_Int_Tables_number       1
_space_group_crystal_system       triclinic
_cell_length_a                    18.520055
_cell_length_b                    18.520255
_cell_length_c                    59.935032
_cell_angle_alpha                 89.999375
_cell_angle_beta                  90.000044
_cell_angle_gamma                 89.97912
_cell_volume                      20557.4833332

loop_
_atom_site_label
_atom_site_type_symbol
_atom_site_description
_atom_site_fract_x
_atom_site_fract_y
_atom_site_fract_z
_atom_type_partial_charge
Zn1   Zn    Zn3+2 0.585740 1.000000 0.981400 0.978180
Zn2   Zn    Zn3+2 0.000000 0.585740 0.981400 0.978044
Zn3   Zn    Zn3+2 0.414260 1.000000 0.981400 0.978033
Zn4   Zn    Zn3+2 0.000000 0.414260 0.981400 0.978184
Zn5   Zn    Zn3+2 0.085740 0.500000 0.481400 0.978081
Zn6   Zn    Zn3+2 0.500000 0.085740 0.481400 0.978060
Zn7   Zn    Zn3+2 0.914260 0.500000 0.481400 0.978187
Zn8   Zn    Zn3+2 0.500000 0.914260 0.481400 0.978159
Zn9   Zn    Zn3+2 0.500000 0.914160 0.018820 0.979805
Zn10  Zn    Zn3+2 0.085840 0.500000 0.018820 0.979744
Zn11  Zn    Zn3+2 0.500000 0.085840 0.018820 0.979911
Zn12  Zn    Zn3+2 0.914160 0.500000 0.018820 0.979853
Zn13  Zn    Zn3+2 0.000000 0.414160 0.518820 0.979793
Zn14  Zn    Zn3+2 0.585840 1.000000 0.518820 0.979829
Zn15  Zn    Zn3+2 1.000000 0.585840 0.518820 0.979893
Zn16  Zn    Zn3+2 0.414160 1.000000 0.518820 0.979726
O1    O     O_3   0.500000 1.000000 0.000110 -0.488444
O2    O     O_3   0.000000 0.500000 0.000110 -0.488446
O3    O     O_3   0.000000 0.500000 0.500110 -0.488442
O4    O     O_3   0.500000 1.000000 0.500110 -0.488453
O5    O     O_R   0.500000 0.060060 0.050050 -0.644558
O6    O     O_R   0.939940 0.500000 0.050050 -0.644802
O7    O     O_R   0.500000 0.939940 0.050050 -0.644267
O8    O     O_R   0.060060 0.500000 0.050050 -0.644508
O9    O     O_R   0.000000 0.560060 0.550050 -0.644545
O10   O     O_R   0.439940 0.000000 0.550050 -0.644515
O11   O     O_R   0.000000 0.439940 0.550050 -0.644265
O12   O     O_R   0.560060 0.000000 0.550050 -0.644798
O13   O     O_R   0.559990 1.000000 0.950170 -0.644165
O14   O     O_R   1.000000 0.559990 0.950170 -0.644664
O15   O     O_R   0.440010 1.000000 0.950170 -0.644468
O16   O     O_R   1.000000 0.440010 0.950170 -0.644360
O17   O     O_R   0.059990 0.500000 0.450170 -0.644440
O18   O     O_R   0.500000 0.059990 0.450170 -0.644633
O19   O     O_R   0.940010 0.500000 0.450170 -0.644163
O20   O     O_R   0.500000 0.940010 0.450170 -0.644354
O21   O     O_R   0.584430 0.855390 0.013200 -0.641898
O22   O     O_R   0.144610 0.584430 0.013200 -0.642246
O23   O     O_R   0.415570 0.144610 0.013200 -0.641818
O24   O     O_R   0.855390 0.415570 0.013200 -0.641914
O25   O     O_R   0.415570 0.855390 0.013200 -0.642307
O26   O     O_R   0.855390 0.584430 0.013200 -0.641595
O27   O     O_R   0.584430 0.144610 0.013200 -0.641978
O28   O     O_R   0.144610 0.415570 0.013200 -0.641676
O29   O     O_R   0.084430 0.355390 0.513200 -0.642015
O30   O     O_R   0.644610 0.084430 0.513200 -0.641963
O31   O     O_R   0.915570 0.644610 0.513200 -0.641695
O32   O     O_R   0.355390 0.915570 0.513200 -0.642021
O33   O     O_R   0.915570 0.355390 0.513200 -0.642216
O34   O     O_R   0.355390 0.084430 0.513200 -0.641895
O35   O     O_R   0.084430 0.644610 0.513200 -0.642159
O36   O     O_R   0.644610 0.915570 0.513200 -0.641571
O37   O     O_R   0.355260 0.084530 0.987020 -0.641652
O38   O     O_R   0.915470 0.355260 0.987020 -0.642669
O39   O     O_R   0.644740 0.915470 0.987020 -0.641464
O40   O     O_R   0.084530 0.644740 0.987020 -0.642401
O41   O     O_R   0.644740 0.084530 0.987020 -0.642562
O42   O     O_R   0.084530 0.355260 0.987020 -0.641306
O43   O     O_R   0.355260 0.915470 0.987020 -0.642304
O44   O     O_R   0.915470 0.644740 0.987020 -0.641490
O45   O     O_R   0.855260 0.584530 0.487020 -0.641450
O46   O     O_R   0.415470 0.855260 0.487020 -0.642346
O47   O     O_R   0.144740 0.415470 0.487020 -0.641199
O48   O     O_R   0.584530 0.144740 0.487020 -0.642454
O49   O     O_R   0.144740 0.584530 0.487020 -0.642658
O50   O     O_R   0.584530 0.855260 0.487020 -0.641662
O51   O     O_R   0.855260 0.415470 0.487020 -0.642548
O52   O     O_R   0.415470 0.144740 0.487020 -0.641401
C1    C     C_R   0.499999 1.000000 0.060755 0.802048
C2    C     C_R   0.000000 0.500000 0.060755 0.801730
C3    C     C_R   0.000000 0.500000 0.560755 0.802055
C4    C     C_R   0.500000 0.000000 0.560755 0.801740
C5    C     C_R   0.500000 1.000000 0.939458 0.809553
C6    C     C_R   1.000000 0.500000 0.939458 0.809446
C7    C     C_R   0.000000 0.500000 0.439458 0.809509
C8    C     C_R   0.500000 0.000000 0.439458 0.809383
C9    C     C_R   0.638361 0.861256 0.000071 0.858498
C10   C     C_R   0.138449 0.638659 0.000202 0.857939
C11   C     C_R   0.361336 0.138441 0.000204 0.859158
C12   C     C_R   0.861552 0.361341 0.000202 0.858017
C13   C     C_R   0.361633 0.861259 0.000074 0.857546
C14   C     C_R   0.861559 0.638664 0.000204 0.859360
C15   C     C_R   0.638367 0.138741 0.000074 0.857593
C16   C     C_R   0.138744 0.361639 0.000071 0.858696
C17   C     C_R   0.138361 0.361256 0.500071 0.858568
C18   C     C_R   0.638448 0.138659 0.500202 0.858056
C19   C     C_R   0.861638 0.638744 0.500071 0.858617
C20   C     C_R   0.361259 0.861633 0.500074 0.857668
C21   C     C_R   0.861633 0.361259 0.500074 0.857468
C22   C     C_R   0.361559 0.138664 0.500204 0.859220
C23   C     C_R   0.138659 0.638448 0.500202 0.857850
C24   C     C_R   0.638441 0.861336 0.500204 0.859299
C25   C     C_2   0.806966 0.249187 0.987049 -0.152743
C26   C     C_2   0.752011 0.808168 0.987571 -0.150191
C27   C     C_2   0.193036 0.750812 0.987048 -0.152549
C28   C     C_2   0.249200 0.193043 0.987039 -0.149555
C29   C     C_2   0.191832 0.247991 0.987571 -0.150073
C30   C     C_2   0.248010 0.808141 0.987565 -0.153172
C31   C     C_2   0.806958 0.750799 0.987039 -0.149400
C32   C     C_2   0.751992 0.191857 0.987566 -0.153398
C33   C     C_2   0.308142 0.748011 0.487565 -0.153217
C34   C     C_2   0.252010 0.308168 0.487571 -0.149947
C35   C     C_2   0.693036 0.250812 0.487048 -0.152595
C36   C     C_2   0.747987 0.691831 0.487572 -0.150169
C37   C     C_2   0.693040 0.749200 0.487040 -0.149527
C38   C     C_2   0.748009 0.308142 0.487565 -0.153373
C39   C     C_2   0.306957 0.250799 0.487039 -0.149338
C40   C     C_2   0.250813 0.693036 0.487048 -0.152785
C41   C     C_2   0.806638 0.305608 0.001079 -0.289346
C42   C     C_2   0.691683 0.803917 0.999880 -0.287894
C43   C     C_2   0.193362 0.694392 0.001078 -0.289398
C44   C     C_2   0.305552 0.193315 0.001094 -0.289691
C45   C     C_2   0.196082 0.308316 0.999880 -0.287894
C46   C     C_2   0.308288 0.803955 0.999902 -0.288516
C47   C     C_2   0.806686 0.694449 0.001094 -0.289680
C48   C     C_2   0.691713 0.196044 0.999902 -0.288405
C49   C     C_2   0.303956 0.808288 0.499903 -0.288483
C50   C     C_2   0.191683 0.303918 0.499880 -0.288027
C51   C     C_2   0.693361 0.194393 0.501079 -0.289365
C52   C     C_2   0.808316 0.696081 0.499880 -0.287915
C53   C     C_2   0.693315 0.805551 0.501094 -0.289733
C54   C     C_2   0.808288 0.303955 0.499902 -0.288468
C55   C     C_2   0.306685 0.194448 0.501094 -0.289783
C56   C     C_2   0.194392 0.693362 0.501078 -0.289359
H1    H     H_    0.849657 0.243791 0.974730 0.178691
H2    H     H_    0.761697 0.855168 0.977148 0.179375
H3    H     H_    0.150346 0.756207 0.974728 0.178815
H4    H     H_    0.243886 0.150420 0.974696 0.180383
H5    H     H_    0.144833 0.238306 0.977147 0.179475
H6    H     H_    0.238370 0.855077 0.977107 0.178414
H7    H     H_    0.849580 0.756112 0.974695 0.180445
H8    H     H_    0.761633 0.144921 0.977108 0.178244
H9    H     H_    0.355077 0.738373 0.477107 0.178401
H10   H     H_    0.261696 0.355166 0.477147 0.179565
H11   H     H_    0.650346 0.256207 0.474728 0.178801
H12   H     H_    0.738300 0.644832 0.477149 0.179396
H13   H     H_    0.650416 0.743887 0.474697 0.180405
H14   H     H_    0.738369 0.355078 0.477108 0.178284
H15   H     H_    0.349580 0.256112 0.474695 0.180527
H16   H     H_    0.256209 0.650346 0.474729 0.178717
H17   H     H_    0.766314 0.312076 0.013962 0.152498
H18   H     H_    0.678972 0.757324 0.010002 0.152985
H19   H     H_    0.233686 0.687924 0.013962 0.152450
H20   H     H_    0.311901 0.233540 0.014011 0.152954
H21   H     H_    0.242675 0.321026 0.010003 0.153002
H22   H     H_    0.320934 0.757451 0.010075 0.152708
H23   H     H_    0.766461 0.688103 0.014012 0.152953
H24   H     H_    0.679066 0.242549 0.010074 0.152794
H25   H     H_    0.257451 0.820932 0.510075 0.152757
H26   H     H_    0.178972 0.257325 0.510003 0.152929
H27   H     H_    0.733684 0.187926 0.513962 0.152492
H28   H     H_    0.821028 0.742674 0.510002 0.153011
H29   H     H_    0.733541 0.811899 0.514011 0.152957
H30   H     H_    0.820935 0.257449 0.510074 0.152746
H31   H     H_    0.266460 0.188101 0.514011 0.152912
H32   H     H_    0.187922 0.733686 0.513961 0.152499
C57   C     C_R   0.468688 0.056198 0.832819 0.549817
C58   C     C_R   0.943400 0.530577 0.832821 0.549722
C59   C     C_R   0.531311 0.943804 0.832820 0.549828
C60   C     C_R   0.056607 0.469431 0.832821 0.549731
C61   C     C_R   0.968476 0.556080 0.332819 0.549798
C62   C     C_R   0.443920 0.031523 0.332819 0.549802
C63   C     C_R   0.031525 0.443924 0.332819 0.549811
C64   C     C_R   0.556081 0.968483 0.332819 0.549787
O53   O     O_2   0.444169 0.113281 0.844563 -0.477064
O54   O     O_2   0.886023 0.554381 0.844568 -0.477137
O55   O     O_2   0.555830 0.886721 0.844564 -0.477016
O56   O     O_2   0.113983 0.445626 0.844569 -0.477089
O57   O     O_2   0.943749 0.613076 0.344561 -0.477161
O58   O     O_2   0.386922 0.056246 0.344562 -0.477181
O59   O     O_2   0.056252 0.386928 0.344562 -0.477137
O60   O     O_2   0.613080 0.943761 0.344562 -0.477204
N1    N     N_R   0.499999 0.000001 0.843957 -0.364041
N2    N     N_R   0.000003 0.500004 0.843956 -0.364055
N3    N     N_R   0.000000 0.500002 0.343957 -0.364002
N4    N     N_R   0.500001 0.000003 0.343957 -0.364005
C65   C     C_R   0.565342 0.003101 0.879709 -0.084266
C66   C     C_R   0.997486 0.434635 0.879707 -0.084357
C67   C     C_R   0.434657 0.996901 0.879709 -0.084238
C68   C     C_R   0.002517 0.565370 0.879707 -0.084328
C69   C     C_R   0.065335 0.503274 0.379710 -0.084230
C70   C     C_R   0.496733 0.934668 0.379710 -0.084241
C71   C     C_R   0.934666 0.496728 0.379710 -0.084246
C72   C     C_R   0.503268 0.065336 0.379710 -0.084224
C73   C     C_R   0.565411 0.003016 0.902986 -0.197974
C74   C     C_R   0.997555 0.434567 0.902984 -0.198107
C75   C     C_R   0.434588 0.996985 0.902986 -0.198234
C76   C     C_R   0.002446 0.565437 0.902984 -0.198368
C77   C     C_R   0.065403 0.503185 0.402987 -0.198247
C78   C     C_R   0.496822 0.934599 0.402987 -0.198235
C79   C     C_R   0.934597 0.496817 0.402987 -0.198014
C80   C     C_R   0.503179 0.065404 0.402987 -0.198469
C81   C     C_R   0.499999 0.000001 0.867955 0.279622
C82   C     C_R   0.000002 0.500003 0.867954 0.279937
C83   C     C_R   0.000000 0.500001 0.367955 0.279507
C84   C     C_R   0.500001 0.000003 0.367955 0.279555
C85   C     C_R   0.500000 0.000002 0.797429 -0.111889
C86   C     C_R   0.000004 0.500004 0.797429 -0.111773
C87   C     C_R   0.000000 0.500002 0.297429 -0.111851
C88   C     C_R   0.500000 0.000003 0.297429 -0.111856
C89   C     C_R   0.463835 0.055434 0.809313 -0.127667
C90   C     C_R   0.944082 0.535410 0.809313 -0.127783
C91   C     C_R   0.536164 0.944569 0.809313 -0.127678
C92   C     C_R   0.055926 0.464598 0.809314 -0.127796
C93   C     C_R   0.963620 0.555292 0.309313 -0.127661
C94   C     C_R   0.444707 0.036380 0.309313 -0.127661
C95   C     C_R   0.036381 0.444712 0.309313 -0.127672
C96   C     C_R   0.555294 0.963626 0.309313 -0.127653
C97   C     C_R   0.425259 0.108748 0.797329 0.337766
C98   C     C_R   0.890229 0.573228 0.797328 0.337623
C99   C     C_R   0.574740 0.891256 0.797329 0.337762
C100  C     C_R   0.109780 0.426781 0.797328 0.337619
C101  C     C_R   0.924828 0.608451 0.297329 0.337653
C102  C     C_R   0.391545 0.075166 0.297329 0.337654
C103  C     C_R   0.075173 0.391554 0.297329 0.337652
C104  C     C_R   0.608455 0.924839 0.297329 0.337656
C105  C     C_R   0.500000 0.000000 0.914852 -0.019629
C106  C     C_R   0.000000 0.500001 0.914851 -0.019602
C107  C     C_R   1.000000 0.500000 0.414853 -0.019643
C108  C     C_R   0.500000 0.000001 0.414853 -0.019586
H33   H     H_    0.383372 0.994513 0.911670 0.172563
H34   H     H_    0.004460 0.616673 0.911667 0.172427
H35   H     H_    0.616627 0.005488 0.911669 0.172680
H36   H     H_    0.995541 0.383330 0.911667 0.172547
H37   H     H_    0.883388 0.494209 0.411670 0.172708
H38   H     H_    0.505782 0.116613 0.411670 0.172430
H39   H     H_    0.116612 0.505792 0.411670 0.172564
H40   H     H_    0.494218 0.883390 0.411670 0.172573
H41   H     H_    0.383908 0.994214 0.870774 0.161646
H42   H     H_    0.004741 0.616138 0.870770 0.161453
H43   H     H_    0.616091 0.005788 0.870774 0.161662
H44   H     H_    0.995263 0.383867 0.870770 0.161468
H45   H     H_    0.883924 0.493905 0.370775 0.161771
H46   H     H_    0.506088 0.116078 0.370775 0.161727
H47   H     H_    0.116077 0.506098 0.370775 0.161748
H48   H     H_    0.493914 0.883927 0.370775 0.161749
C109  C     C_R   1.000000 0.500002 0.085364 -0.014251
C110  C     C_R   0.499998 0.999999 0.085364 -0.014395
C111  C     C_R   0.500000 0.000001 0.585364 -0.014242
C112  C     C_R   0.000001 0.499999 0.585365 -0.014398
C113  C     C_R   0.970710 0.559713 0.238190 0.065981
C114  C     C_R   0.440285 0.029286 0.238190 0.065981
C115  C     C_R   0.029291 0.440292 0.238190 0.065981
C116  C     C_R   0.559713 0.970716 0.238190 0.065981
C117  C     C_R   0.470944 0.059827 0.738190 0.065961
C118  C     C_R   0.939783 0.528229 0.738188 0.065954
C119  C     C_R   0.529057 0.940178 0.738190 0.065961
C120  C     C_R   0.060225 0.471775 0.738189 0.065954
C121  C     C_R   0.000000 0.500003 0.226455 0.078905
C122  C     C_R   0.499999 0.000000 0.226455 0.078906
C123  C     C_R   0.500001 0.000002 0.726454 0.078901
C124  C     C_R   0.000003 0.500001 0.726453 0.078923
C125  C     C_R   0.947136 0.620271 0.225750 -0.201705
C126  C     C_R   0.379724 0.052853 0.225751 -0.201705
C127  C     C_R   0.052864 0.379734 0.225751 -0.201703
C128  C     C_R   0.620273 0.947147 0.225751 -0.201703
C129  C     C_R   0.447604 0.120476 0.725750 -0.201675
C130  C     C_R   0.878819 0.550731 0.725748 -0.201675
C131  C     C_R   0.552397 0.879530 0.725750 -0.201674
C132  C     C_R   0.121188 0.449272 0.725748 -0.201675
C133  C     C_R   0.948587 0.620281 0.202565 -0.127636
C134  C     C_R   0.379714 0.051401 0.202565 -0.127635
C135  C     C_R   0.051413 0.379725 0.202565 -0.127635
C136  C     C_R   0.620282 0.948598 0.202565 -0.127633
C137  C     C_R   0.449053 0.120478 0.702564 -0.127619
C138  C     C_R   0.878840 0.549292 0.702562 -0.127617
C139  C     C_R   0.550949 0.879528 0.702565 -0.127618
C140  C     C_R   0.121166 0.450709 0.702562 -0.127619
C141  C     C_R   0.973971 0.560204 0.190854 -0.024806
C142  C     C_R   0.439793 0.026022 0.190854 -0.024808
C143  C     C_R   0.026028 0.439801 0.190855 -0.024814
C144  C     C_R   0.560202 0.973976 0.190854 -0.024816
C145  C     C_R   0.474203 0.060304 0.690854 -0.024832
C146  C     C_R   0.939355 0.524974 0.690852 -0.024896
C147  C     C_R   0.525798 0.939702 0.690854 -0.024838
C148  C     C_R   0.060650 0.475026 0.690852 -0.024889
C149  C     C_R   0.000000 0.500003 0.202735 -0.055735
C150  C     C_R   0.499998 1.000000 0.202735 -0.055735
C151  C     C_R   0.500001 0.000003 0.702734 -0.055730
C152  C     C_R   0.000003 0.500000 0.702733 -0.055713
C153  C     C_R   0.025276 0.440783 0.167421 0.510636
C154  C     C_R   0.559220 0.974728 0.167421 0.510642
C155  C     C_R   0.974723 0.559223 0.167421 0.510628
C156  C     C_R   0.440774 0.025269 0.167421 0.510634
C157  C     C_R   0.525054 0.940688 0.667420 0.510653
C158  C     C_R   0.059648 0.475745 0.667418 0.510665
C159  C     C_R   0.474948 0.059318 0.667420 0.510642
C160  C     C_R   0.940357 0.524253 0.667418 0.510675
N5    N     N_R   1.000000 0.500003 0.156210 -0.355106
N6    N     N_R   0.499997 0.999998 0.156210 -0.355104
N7    N     N_R   0.500001 0.000003 0.656209 -0.355119
N8    N     N_R   0.000003 0.499999 0.656208 -0.355182
C161  C     C_R   0.065414 0.499935 0.120510 -0.102854
C162  C     C_R   0.500072 0.934585 0.120511 -0.102837
C163  C     C_R   0.934586 0.500071 0.120510 -0.102832
C164  C     C_R   0.499922 0.065412 0.120510 -0.102819
C165  C     C_R   0.565415 0.999773 0.620511 -0.102862
C166  C     C_R   0.000784 0.434590 0.620513 -0.102972
C167  C     C_R   0.434587 0.000233 0.620511 -0.102874
C168  C     C_R   0.999221 0.565408 0.620512 -0.102964
C169  C     C_R   0.065487 0.499936 0.097232 -0.208324
C170  C     C_R   0.500071 0.934513 0.097233 -0.208203
C171  C     C_R   0.934513 0.500069 0.097232 -0.208467
C172  C     C_R   0.499924 0.065485 0.097232 -0.208344
C173  C     C_R   0.565487 0.999777 0.597233 -0.208439
C174  C     C_R   0.000763 0.434516 0.597234 -0.208088
C175  C     C_R   0.434514 0.000227 0.597233 -0.208304
C176  C     C_R   0.999240 0.565482 0.597234 -0.208220
C177  C     C_R   1.000000 0.500003 0.132247 0.308206
C178  C     C_R   0.499997 0.999999 0.132247 0.308184
C179  C     C_R   0.500001 0.000003 0.632247 0.308301
C180  C     C_R   0.000003 0.499999 0.632247 0.308576
O61   O     O_2   0.950877 0.617178 0.155923 -0.552771
O62   O     O_2   0.382816 0.049109 0.155923 -0.552761
O63   O     O_2   0.049122 0.382828 0.155924 -0.552743
O64   O     O_2   0.617178 0.950887 0.155923 -0.552733
O65   O     O_2   0.451316 0.117359 0.655922 -0.552746
O66   O     O_2   0.882013 0.547121 0.655918 -0.552588
O67   O     O_2   0.548686 0.882647 0.655923 -0.552728
O68   O     O_2   0.117992 0.452877 0.655918 -0.552606
C181  C     C_R   0.466697 0.057440 0.761868 0.002586
C182  C     C_R   0.942110 0.532506 0.761867 0.002538
C183  C     C_R   0.533304 0.942564 0.761868 0.002586
C184  C     C_R   0.057898 0.467500 0.761867 0.002540
C185  C     C_R   0.966471 0.557309 0.261868 0.002577
C186  C     C_R   0.442690 0.033526 0.261868 0.002578
C187  C     C_R   0.033530 0.442697 0.261868 0.002578
C188  C     C_R   0.557309 0.966477 0.261868 0.002577
C189  C     C_R   0.500000 0.000002 0.773668 0.082828
C190  C     C_R   0.000004 0.500003 0.773667 0.082835
C191  C     C_R   0.000000 0.500002 0.273668 0.082836
C192  C     C_R   0.500000 0.000002 0.273668 0.082834
C193  C     C_R   0.428181 0.109772 0.774101 -0.264197
C194  C     C_R   0.889245 0.570286 0.774100 -0.264080
C195  C     C_R   0.571819 0.890232 0.774101 -0.264192
C196  C     C_R   0.110764 0.429721 0.774101 -0.264075
C197  C     C_R   0.927746 0.609486 0.274101 -0.264185
C198  C     C_R   0.390509 0.072248 0.274101 -0.264185
C199  C     C_R   0.072255 0.390519 0.274101 -0.264183
C200  C     C_R   0.609490 0.927756 0.274101 -0.264186
H49   H     H_    0.116768 0.499930 0.088553 0.170856
H50   H     H_    0.500083 0.883232 0.088553 0.170908
H51   H     H_    0.883232 0.500074 0.088552 0.170804
H52   H     H_    0.499913 0.116766 0.088552 0.170857
H53   H     H_    0.616768 0.999644 0.588553 0.170792
H54   H     H_    0.001328 0.383239 0.588554 0.170880
H55   H     H_    0.383232 0.000360 0.588553 0.170842
H56   H     H_    0.998675 0.616760 0.588554 0.170832
H57   H     H_    0.116209 0.500111 0.129459 0.148999
H58   H     H_    0.499901 0.883791 0.129459 0.149006
H59   H     H_    0.883791 0.499895 0.129459 0.148993
H60   H     H_    0.500092 0.116206 0.129458 0.149000
H61   H     H_    0.616209 0.999821 0.629459 0.148929
H62   H     H_    0.001173 0.383800 0.629463 0.148747
H63   H     H_    0.383793 0.000186 0.629460 0.148937
H64   H     H_    0.998832 0.616198 0.629462 0.148739
H65   H     H_    0.929695 0.667915 0.193841 0.195878
H66   H     H_    0.332077 0.070289 0.193842 0.195878
H67   H     H_    0.070305 0.332090 0.193842 0.195878
H68   H     H_    0.667918 0.929710 0.193842 0.195878
H69   H     H_    0.430344 0.168185 0.693840 0.195898
H70   H     H_    0.830881 0.567343 0.693838 0.195903
H71   H     H_    0.569658 0.831821 0.693841 0.195899
H72   H     H_    0.169125 0.432656 0.693839 0.195903
H73   H     H_    0.928966 0.669589 0.233468 0.159424
H74   H     H_    0.330404 0.071019 0.233469 0.159424
H75   H     H_    0.071034 0.330416 0.233469 0.159424
H76   H     H_    0.669593 0.928982 0.233469 0.159424
H77   H     H_    0.429627 0.169864 0.733467 0.159473
H78   H     H_    0.829185 0.568023 0.733465 0.159459
H79   H     H_    0.570374 0.830141 0.733468 0.159473
H80   H     H_    0.170822 0.431980 0.733465 0.159459
H81   H     H_    0.395782 0.150297 0.765956 0.179818
H82   H     H_    0.848262 0.602108 0.765956 0.179871
H83   H     H_    0.604219 0.849707 0.765957 0.179818
H84   H     H_    0.151748 0.397901 0.765957 0.179870
H85   H     H_    0.895184 0.649880 0.265955 0.179845
H86   H     H_    0.350113 0.104806 0.265955 0.179845
H87   H     H_    0.104817 0.350125 0.265956 0.179845
H88   H     H_    0.649887 0.895197 0.265956 0.179847
N9    N     N_R   0.378765 0.159824 0.808209 0.253573
O69   O     O_R   0.380929 0.227587 0.802511 -0.313496
O70   O     O_R   0.324759 0.136732 0.820127 -0.304199
N10   N     N_R   0.838483 0.618979 0.808206 0.253697
O71   O     O_R   0.770747 0.615772 0.802524 -0.314114
O72   O     O_R   0.860786 0.673372 0.820100 -0.303067
N11   N     N_R   0.621235 0.840179 0.808210 0.253574
O73   O     O_R   0.619071 0.772416 0.802513 -0.313492
O74   O     O_R   0.675241 0.863271 0.820128 -0.304181
N12   N     N_R   0.161528 0.381034 0.808208 0.253698
O75   O     O_R   0.229265 0.384247 0.802527 -0.314110
O76   O     O_R   0.139229 0.326638 0.820101 -0.303045
N13   N     N_R   0.878124 0.659335 0.308210 0.253626
O77   O     O_R   0.879994 0.727104 0.302507 -0.313498
O78   O     O_R   0.824227 0.636022 0.320133 -0.303829
N14   N     N_R   0.340657 0.121867 0.308210 0.253627
O79   O     O_R   0.272888 0.119993 0.302508 -0.313499
O80   O     O_R   0.363968 0.175765 0.320132 -0.303848
N15   N     N_R   0.121877 0.340669 0.308211 0.253626
O81   O     O_R   0.120008 0.272901 0.302508 -0.313493
O82   O     O_R   0.175774 0.363983 0.320134 -0.303836
N16   N     N_R   0.659344 0.878140 0.308211 0.253626
O83   O     O_R   0.727113 0.880014 0.302508 -0.313503
O84   O     O_R   0.636034 0.824241 0.320134 -0.303842

loop_
_geom_bond_atom_site_label_1
_geom_bond_atom_site_label_2
_geom_bond_distance
_ccdc_geom_bond_type
C196  H84   1.077657 S    
C188  C192  1.418341 A    
C139  C147  1.396853 A    
C65   C81   1.401481 A    
N14   O80   1.301458 A    
C166  H62   1.082865 S    
O5    C1    1.284106 A    
C30   C46   1.341260 D    
C87   C93   1.417510 A    
C115  C127  1.415627 A    
N15   O82   1.301460 A    
C165  C173  1.395180 A    
Zn12  O26   1.934402 S    
C166  C180  1.400824 A    
O34   C22   1.276207 A    
Zn14  O36   1.934409 S    
C148  C152  1.407897 A    
O52   C22   1.278285 A    
O41   C15   1.278268 A    
C18   C51   1.450254 S    
C183  C189  1.418343 A    
C2    C109  1.474911 S    
Zn15  O35   1.935037 S    
N16   O84   1.301459 A    
C70   H48   1.082891 S    
Zn4   O2    1.943975 S    
C94   C102  1.414479 A    
C156  N6    1.368643 A    
C88   C96   1.417512 A    
O47   C17   1.278291 A    
C61   C93   1.411789 A    
C77   H39   1.082897 S    
C40   C56   1.341267 D    
N3    C83   1.438357 S    
C36   C37   1.471282 S    
C144  C154  1.404668 A    
C101  N13   1.435616 S    
C129  C137  1.389894 A    
N12   O76   1.301480 A    
O22   C10   1.276136 A    
O46   C20   1.278266 A    
Zn12  O24   1.935050 S    
C66   H44   1.082888 S    
N8    C180  1.436133 S    
C168  C180  1.400823 A    
C7    C107  1.474737 S    
Zn16  O4    1.945473 S    
C92   C100  1.414492 A    
Zn1   O13   1.931572 S    
Zn3   O15   1.931573 S    
C25   C32   1.471612 S    
Zn4   O16   1.931569 S    
C127  C135  1.389890 A    
N2    C82   1.438273 S    
Zn7   O3    1.943950 S    
C128  C136  1.389889 A    
C86   C92   1.417557 A    
N9    O69   1.301263 A    
C145  C159  1.404674 A    
C176  H56   1.082875 S    
C146  C160  1.404679 A    
N11   O73   1.301261 A    
C147  C157  1.404668 A    
C160  N8    1.368593 A    
O11   C3    1.284119 A    
C112  C174  1.406072 A    
Zn9   O21   1.934400 S    
C67   C81   1.401480 A    
C125  C133  1.389890 A    
O49   C23   1.278262 A    
C104  N16   1.435616 S    
C99   C195  1.393339 A    
C103  N15   1.435617 S    
C68   H42   1.082888 S    
C173  H53   1.082877 S    
N10   O72   1.301480 A    
C32   H8    1.086382 S    
C33   H9    1.086387 S    
N13   O77   1.301259 A    
Zn9   O25   1.935042 S    
Zn10  O22   1.935043 S    
C3    C112  1.474959 S    
C131  H79   1.077613 S    
Zn13  O29   1.934400 S    
C167  C175  1.395180 A    
Zn10  O2    1.945471 S    
C121  C149  1.421635 A    
Zn3   O1    1.943950 S    
C60   O56   1.348686 S    
Zn16  O34   1.934402 S    
C185  C197  1.409001 A    
C66   C74   1.395127 A    
C143  C149  1.407876 A    
C104  C200  1.393344 A    
Zn4   O42   1.938292 S    
C141  C155  1.404668 A    
C49   H25   1.080833 S    
C70   C78   1.395103 A    
C142  C156  1.404668 A    
C115  C187  1.421987 A    
C77   C107  1.405865 A    
Zn8   O46   1.938937 S    
C170  H50   1.082877 S    
C184  C196  1.408991 A    
C187  C191  1.418342 A    
O27   C15   1.276134 A    
C22   C55   1.449916 S    
C102  N14   1.435618 S    
C63   N3    1.365529 A    
C181  C189  1.418342 A    
C111  C173  1.406050 A    
C74   C106  1.405899 A    
C28   H4    1.086388 S    
C90   C98   1.414493 A    
C73   H35   1.082892 S    
C78   H40   1.082894 S    
C8    C108  1.474743 S    
C14   C47   1.449916 S    
C193  H81   1.077644 S    
O16   C6    1.283205 A    
O14   C6    1.283206 A    
C109  C169  1.406045 A    
Zn15  O9    1.931701 S    
C21   C54   1.450252 S    
Zn6   O48   1.938939 S    
N15   O81   1.301261 A    
Zn12  O6    1.931704 S    
C98   C194  1.393327 A    
O40   C10   1.278254 A    
O45   C19   1.278302 A    
C154  N6    1.368643 A    
C102  C198  1.393341 A    
C59   O55   1.348685 S    
Zn5   O17   1.931572 S    
C13   C46   1.450252 S    
C86   C90   1.417558 A    
C185  C191  1.418342 A    
C10   C43   1.450253 S    
O9    C3    1.284118 A    
C128  H76   1.077618 S    
C133  C141  1.396857 A    
C43   H19   1.080838 S    
C112  C176  1.406072 A    
C175  H55   1.082876 S    
C135  C143  1.396855 A    
C91   C99   1.414474 A    
C69   C83   1.401491 A    
C89   C97   1.414474 A    
C58   N2    1.365482 A    
N5    C177  1.436235 S    
C133  H65   1.083435 S    
C181  C193  1.408997 A    
Zn10  O28   1.934409 S    
C64   C96   1.411784 A    
C57   O53   1.348686 S    
C140  H72   1.083437 S    
Zn9   O7    1.931711 S    
O50   C24   1.278291 A    
Zn10  O8    1.931705 S    
Zn11  O5    1.931701 S    
C197  H85   1.077650 S    
O31   C19   1.276202 A    
C169  H49   1.082875 S    
C85   C189  1.424140 A    
Zn1   O41   1.938947 S    
C6    C106  1.474815 S    
C72   C80   1.395103 A    
C4    C111  1.474923 S    
C141  C149  1.407877 A    
C34   C39   1.471281 S    
C72   H46   1.082892 S    
C188  C200  1.408999 A    
C137  C145  1.396851 A    
C186  C192  1.418340 A    
C64   O60   1.348688 S    
C113  C125  1.415629 A    
C161  C169  1.395174 A    
C130  C138  1.389898 A    
C63   O59   1.348689 S    
C163  C171  1.395174 A    
N16   O83   1.301262 A    
Zn9   O1    1.945477 S    
C164  C172  1.395174 A    
C74   H36   1.082894 S    
C36   H12   1.086385 S    
C103  C199  1.393345 A    
N11   O74   1.301459 A    
C78   C108  1.405865 A    
C109  C171  1.406048 A    
C110  C172  1.406048 A    
C200  H88   1.077648 S    
C157  N7    1.368632 A    
Zn1   O1    1.943950 S    
C158  N8    1.368591 A    
Zn2   O14   1.931579 S    
C97   N9    1.435609 S    
Zn1   O39   1.938300 S    
C160  O66   1.349673 S    
Zn2   O40   1.938939 S    
C139  H71   1.083436 S    
C76   C106  1.405900 A    
Zn3   O37   1.938304 S    
C98   N10   1.435588 S    
C58   C90   1.411819 A    
C134  H66   1.083436 S    
C39   H15   1.086390 S    
C123  C151  1.421641 A    
C117  C181  1.421995 A    
Zn7   O51   1.938943 S    
C120  C124  1.418276 A    
C57   C89   1.411791 A    
C126  C134  1.389896 A    
C79   H37   1.082897 S    
C114  C186  1.421989 A    
C57   N1    1.365515 A    
C41   H17   1.080837 S    
C198  H86   1.077649 S    
O18   C8    1.283185 A    
C126  H74   1.077616 S    
C115  C121  1.418266 A    
O10   C4    1.284102 A    
C32   C48   1.341263 D    
C39   C55   1.341179 D    
C5    C105  1.474755 S    
C68   C82   1.401437 A    
Zn14  O30   1.935043 S    
C55   H31   1.080863 S    
Zn15  O3    1.945495 S    
C66   C82   1.401438 A    
C53   H29   1.080866 S    
C11   C44   1.449914 S    
C122  C150  1.421635 A    
C167  H63   1.082863 S    
C31   C47   1.341178 D    
Zn2   O44   1.938298 S    
C143  C153  1.404668 A    
C67   C75   1.395109 A    
C182  C190  1.418351 A    
C47   H23   1.080867 S    
C65   C73   1.395109 A    
Zn5   O47   1.938300 S    
C132  C140  1.389902 A    
Zn8   O20   1.931569 S    
C45   H21   1.080863 S    
C50   H26   1.080862 S    
C159  O65   1.349668 S    
Zn7   O45   1.938304 S    
C68   C76   1.395127 A    
O35   C23   1.276140 A    
C120  C132  1.415641 A    
C69   C77   1.395103 A    
C174  H54   1.082876 S    
C12   C41   1.450255 S    
C71   C83   1.401492 A    
O32   C20   1.276138 A    
O24   C12   1.276143 A    
C117  C129  1.415632 A    
C1    C110  1.474917 S    
C187  C199  1.408999 A    
C88   C192  1.424128 A    
C161  C177  1.400876 A    
C33   C40   1.471613 S    
C117  C123  1.418271 A    
C93   C101  1.414476 A    
C136  C144  1.396857 A    
C135  H67   1.083437 S    
C62   C94   1.411781 A    
O12   C4    1.284101 A    
C129  H77   1.077613 S    
O48   C18   1.278254 A    
O38   C12   1.278261 A    
C110  C170  1.406047 A    
Zn16  O10   1.931704 S    
Zn13  O3    1.945477 S    
O8    C2    1.284098 A    
C114  C122  1.418267 A    
Zn14  O4    1.945471 S    
C183  C195  1.408997 A    
N14   O79   1.301262 A    
C155  O61   1.349668 S    
C48   H24   1.080830 S    
C119  C123  1.418271 A    
C75   H33   1.082896 S    
C72   C84   1.401494 A    
O21   C9    1.276200 A    
C26   C42   1.341177 D    
Zn6   O18   1.931579 S    
C171  H51   1.082877 S    
C147  C151  1.407881 A    
C38   C54   1.341265 D    
C134  C142  1.396856 A    
N13   O78   1.301461 A    
C100  C196  1.393325 A    
C62   O58   1.348690 S    
O25   C13   1.276128 A    
C30   H6    1.086385 S    
C95   C103  1.414475 A    
C113  C121  1.418266 A    
Zn8   O4    1.943975 S    
C136  H68   1.083437 S    
C163  H59   1.082864 S    
C120  C184  1.422019 A    
C116  C122  1.418270 A    
C71   H45   1.082890 S    
N6    C178  1.436229 S    
C164  C178  1.400875 A    
N1    C81   1.438339 S    
C116  C188  1.421985 A    
C165  H61   1.082862 S    
O36   C24   1.276213 A    
C58   O54   1.348685 S    
Zn11  O1    1.945495 S    
O37   C11   1.278292 A    
C60   N2    1.365482 A    
Zn12  O2    1.945473 S    
O43   C13   1.278261 A    
O28   C16   1.276209 A    
C60   C92   1.411826 A    
N12   O75   1.301263 A    
Zn5   O3    1.943950 S    
C156  O62   1.349669 S    
Zn6   O4    1.943954 S    
C33   C49   1.341263 D    
C142  C150  1.407875 A    
C124  C152  1.421659 A    
C87   C191  1.424128 A    
C111  C175  1.406049 A    
C130  H78   1.077617 S    
C138  C146  1.396846 A    
C61   N3    1.365526 A    
C63   C95   1.411783 A    
C64   N4    1.365529 A    
C17   C50   1.449914 S    
C186  C198  1.408999 A    
C25   H1    1.086388 S    
C162  C170  1.395174 A    
C131  C139  1.389894 A    
C29   H5    1.086390 S    
C27   H3    1.086386 S    
O13   C5    1.283180 A    
N9    O70   1.301458 A    
C137  H69   1.083436 S    
O23   C11   1.276209 A    
C36   C52   1.341174 D    
C76   H34   1.082894 S    
C140  C148  1.396843 A    
C157  O67   1.349669 S    
Zn8   O50   1.938292 S    
C16   C45   1.449915 S    
C158  O68   1.349673 S    
Zn2   O2    1.943954 S    
O7    C1    1.284107 A    
O26   C14   1.276206 A    
Zn15  O31   1.934397 S    
N10   O71   1.301261 A    
Zn16  O32   1.935050 S    
C27   C30   1.471611 S    
C118  C124  1.418276 A    
C155  N5    1.368640 A    
C127  H75   1.077617 S    
C28   C44   1.341176 D    
O19   C7    1.283178 A    
C145  C151  1.407879 A    
C73   C105  1.405871 A    
C146  C152  1.407900 A    
C194  H82   1.077658 S    
O39   C9    1.278292 A    
O15   C5    1.283179 A    
C62   N4    1.365527 A    
C184  C190  1.418351 A    
O51   C21   1.278262 A    
C42   H18   1.080865 S    
C35   H11   1.086386 S    
C165  C179  1.400864 A    
O20   C8    1.283184 A    
O44   C14   1.278285 A    
C101  C197  1.393339 A    
C172  H52   1.082876 S    
Zn11  O27   1.935037 S    
C34   C50   1.341177 D    
N7    C179  1.436211 S    
C144  C150  1.407876 A    
C168  C176  1.395198 A    
C80   H38   1.082895 S    
C96   C104  1.414474 A    
C54   H30   1.080832 S    
C162  H58   1.082862 S    
C164  H60   1.082861 S    
O17   C7    1.283176 A    
C119  C183  1.421995 A    
C26   H2    1.086385 S    
C51   H27   1.080833 S    
C182  C194  1.408991 A    
C99   N11   1.435607 S    
C52   H28   1.080864 S    
C161  H57   1.082863 S    
C46   H22   1.080835 S    
Zn5   O49   1.938947 S    
C79   C107  1.405865 A    
C40   H16   1.086381 S    
C37   H13   1.086392 S    
C195  H83   1.077647 S    
C86   C190  1.424182 A    
O29   C17   1.276201 A    
C34   H10   1.086385 S    
C118  C130  1.415643 A    
O42   C16   1.278295 A    
C85   C89   1.417518 A    
C69   H47   1.082892 S    
C59   C91   1.411792 A    
C162  C178  1.400876 A    
C28   C29   1.471283 S    
C87   C95   1.417509 A    
C37   C53   1.341180 D    
N4    C84   1.438357 S    
Zn11  O23   1.934397 S    
C166  C174  1.395198 A    
Zn13  O33   1.935042 S    
C167  C179  1.400863 A    
C38   H14   1.086381 S    
C23   C56   1.450251 S    
C56   H32   1.080832 S    
C114  C126  1.415623 A    
C159  N7    1.368630 A    
C138  H70   1.083438 S    
C70   C84   1.401493 A    
C80   C108  1.405863 A    
C29   C45   1.341178 D    
C125  H73   1.077616 S    
C97   C193  1.393339 A    
C75   C105  1.405872 A    
C88   C94   1.417512 A    
Zn4   O38   1.938937 S    
Zn7   O19   1.931573 S    
C15   C48   1.450253 S    
C132  H80   1.077617 S    
C35   C51   1.341266 D    
C148  C158  1.404685 A    
O33   C21   1.276128 A    
C71   C79   1.395103 A    
C65   H43   1.082893 S    
C119  C131  1.415628 A    
C31   H7    1.086392 S    
C199  H87   1.077649 S    
C44   H20   1.080865 S    
C61   O57   1.348684 S    
C19   C52   1.449913 S    
C27   C43   1.341263 D    
C24   C53   1.449918 S    
C168  H64   1.082863 S    
C100  N12   1.435588 S    
C163  C177  1.400873 A    
C26   C31   1.471281 S    
Zn6   O52   1.938298 S    
O6    C2    1.284099 A    
C85   C91   1.417516 A    
C35   C38   1.471611 S    
C9    C42   1.449914 S    
C118  C182  1.422018 A    
C116  C128  1.415628 A    
C67   H41   1.082893 S    
C59   N1    1.365516 A    
C25   C41   1.341265 D    
C113  C185  1.421986 A    
Zn13  O11   1.931711 S    
C153  O63   1.349669 S    
Zn14  O12   1.931705 S    
C20   C49   1.450254 S    
C154  O64   1.349672 S    
C153  N5    1.368642 A    
O30   C18   1.276136 A    
Zn3   O43   1.938943 S    
