data_mof_unit_38412.cif
_audit_creation_date              2012-12-10T20:38:18-0500
_audit_creation_method            fapswitch 2.2
_symmetry_space_group_name_H-M    P1
_symmetry_Int_Tables_number       1
_space_group_crystal_system       triclinic
_cell_length_a                    9.852521
_cell_length_b                    10.672766
_cell_length_c                    16.818093
_cell_angle_alpha                 90.059549
_cell_angle_beta                  84.375401
_cell_angle_gamma                 89.96686
_cell_volume                      1759.96800234

loop_
_atom_site_label
_atom_site_type_symbol
_atom_type_description
_atom_site_fract_x
_atom_site_fract_y
_atom_site_fract_z
_atom_type_partial_charge
C1    C     C_R   0.500343 0.740092 0.497482 0.880043
C2    C     C_R   0.348088 0.468720 0.783459 -0.215306
C3    C     C_R   0.444846 0.365932 0.151384 -0.183884
C4    C     C_R   0.439673 0.390556 0.232292 -0.252549
C5    C     C_R   0.640680 0.525114 0.209666 0.175866
C6    C     C_R   0.644176 0.499582 0.128108 -0.178611
C7    C     C_R   0.544141 0.423782 0.099449 0.155354
C8    C     C_2   0.445626 0.520351 0.988744 0.121816
C9    C     C_2   0.525477 0.428702 0.015102 0.134305
C10   C     C_R   0.534315 0.472499 0.261709 -0.039874
C11   C     C_R   0.378912 0.936191 0.485731 0.142978
C12   C     C_R   0.479956 0.503063 0.652930 0.863238
C13   C     C_R   0.501740 0.871408 0.484509 -0.106767
C14   C     C_R   0.625752 0.935068 0.467732 -0.231059
C15   C     C_R   0.625798 0.064668 0.467616 -0.224652
C16   C     C_R   0.501832 0.128588 0.484276 -0.104830
C17   C     C_R   0.378949 0.063974 0.485546 0.124264
C18   C     C_3   0.253992 0.071487 0.543486 -0.476560
C19   C     C_3   0.254120 0.929454 0.543812 -0.491451
C20   C     C_R   0.922239 0.591727 0.539348 0.223504
C21   C     C_R   0.935501 0.416325 0.455300 -0.140989
C22   C     C_R   0.079578 0.416222 0.455359 -0.130708
C23   C     C_R   0.500454 0.259919 0.497358 0.880073
C24   C     C_R   0.064922 0.591855 0.539203 0.214497
C25   C     C_3   0.056761 0.619446 0.626383 -0.509114
C26   C     C_3   0.902708 0.618639 0.626737 -0.523737
C27   C     C_R   0.520025 0.497092 0.346978 0.867630
C28   C     C_R   0.464058 0.516905 0.738839 -0.024563
C29   C     C_R   0.563518 0.581387 0.776571 -0.215611
C30   C     C_R   0.551079 0.591530 0.858970 -0.177818
C31   C     C_R   0.440225 0.535713 0.903537 0.203957
C32   C     C_R   0.336647 0.477427 0.866171 -0.179362
H1    H     H_    0.651153 0.622584 0.742531 0.147151
H2    H     H_    0.719095 0.544849 0.086116 0.136306
H3    H     H_    0.722407 0.885892 0.460360 0.170486
H4    H     H_    0.722472 0.113679 0.460192 0.166316
H5    H     H_    0.274219 0.113292 0.601779 0.203521
H6    H     H_    0.165870 0.112320 0.515993 0.201872
H7    H     H_    0.274787 0.888650 0.602253 0.198943
H8    H     H_    0.165916 0.888100 0.516674 0.203483
H9    H     H_    0.886879 0.347263 0.420480 0.142674
H10   H     H_    0.139871 0.347005 0.420628 0.141855
H11   H     H_    0.096225 0.541480 0.661415 0.217864
H12   H     H_    0.359744 0.347353 0.271915 0.157854
H13   H     H_    0.098500 0.713358 0.638776 0.198180
H14   H     H_    0.853809 0.539644 0.661743 0.220783
H15   H     H_    0.855458 0.711976 0.639670 0.197243
H16   H     H_    0.251415 0.433509 0.901070 0.136022
H17   H     H_    0.366513 0.308558 0.128677 0.144004
H18   H     H_    0.269675 0.420141 0.754651 0.145082
H19   H     H_    0.631303 0.636411 0.888333 0.134159
N1    N     N_R   0.857140 0.500860 0.500530 -0.105110
N2    N     N_R   0.142780 0.500820 0.500530 -0.104862
O1    O     O_R   0.385310 0.683210 0.499990 -0.612331
O2    O     O_R   0.614650 0.683240 0.500000 -0.623192
O3    O     O_R   0.371780 0.500000 0.615800 -0.620294
O4    O     O_R   0.601120 0.500040 0.615800 -0.614890
O5    O     O_R   0.385350 0.316760 0.500000 -0.621386
O6    O     O_R   0.614690 0.316790 0.500010 -0.621513
O7    O     O_R   0.398880 0.499960 0.384200 -0.619914
O8    O     O_R   0.628220 0.500000 0.384200 -0.613368
Zn1   Zn    Zn3+2 0.346870 0.499980 0.499990 0.940134
Zn2   Zn    Zn3+2 0.653130 0.500020 0.500010 0.939973
C33   C     C_3   0.744587 0.613716 0.238519 -0.902869
H20   H     H_    0.811953 0.562745 0.276655 0.259852
H21   H     H_    0.810437 0.655446 0.188008 0.229289
H22   H     H_    0.692234 0.691556 0.273067 0.237214
C34   C     C_3   0.600889 0.334173 0.960242 -0.938331
H23   H     H_    0.656171 0.265583 0.994875 0.243571
H24   H     H_    0.527613 0.281764 0.926660 0.249954
H25   H     H_    0.676874 0.382032 0.917621 0.247314
C35   C     C_3   0.366304 0.612039 0.043990 -0.936568
H26   H     H_    0.309411 0.679754 0.009622 0.242126
H27   H     H_    0.291321 0.561071 0.085631 0.249666
H28   H     H_    0.436750 0.665980 0.078664 0.251661

loop_
_geom_bond_atom_site_label_1
_geom_bond_atom_site_label_2
_ccdc_geom_bond_type
C10   C27   S    
O5    Zn1   S    
C23   O5    A    
C30   H19   S    
C25   H11   S    
C3    H17   S    
C22   H10   S    
C23   O6    A    
C11   C19   S    
C12   C28   S    
O7    Zn1   S    
C28   C29   A    
C18   H5    S    
C3    C7    A    
C27   O7    A    
C30   C31   A    
C16   C17   A    
C15   C16   A    
C29   H1    S    
C2    C32   A    
C18   C19   S    
O8    Zn2   S    
C27   O8    A    
C20   C24   A    
C8    C9    D    
O2    Zn2   S    
C2    H18   S    
C21   C22   A    
C32   H16   S    
C35   H28   S    
C25   C26   S    
O4    Zn2   S    
C22   N2    A    
C8    C35   S    
C33   H22   S    
C24   C25   S    
C35   H27   S    
C14   H3    S    
C34   H23   S    
C4    H12   S    
C24   N2    A    
C6    H2    S    
C5    C33   S    
C33   H21   S    
C1    O1    A    
C29   C30   A    
N2    Zn1   S    
C31   C32   A    
C17   C18   S    
C12   O3    A    
C19   H7    S    
C26   H15   S    
C21   H9    S    
C12   O4    A    
C16   C23   S    
O3    Zn1   S    
C1    C13   S    
C4    C10   A    
C3    C4    A    
C25   H13   S    
C15   H4    S    
C7    C9    S    
C11   C17   A    
C8    C31   S    
C35   H26   S    
N1    Zn2   S    
C6    C7    A    
O1    Zn1   S    
O6    Zn2   S    
C33   H20   S    
C18   H6    S    
C9    C34   S    
C5    C10   A    
C20   N1    A    
C11   C13   A    
C5    C6    A    
C20   C26   S    
C34   H25   S    
C1    O2    A    
C19   H8    S    
C26   H14   S    
C34   H24   S    
C14   C15   A    
C2    C28   A    
C13   C14   A    
C21   N1    A    
