data_mof_unit_40023.cif
_audit_creation_date              2012-12-10T17:32:42-0500
_audit_creation_method            fapswitch 2.2
_symmetry_space_group_name_H-M    P1
_symmetry_Int_Tables_number       1
_space_group_crystal_system       triclinic
_cell_length_a                    12.071227
_cell_length_b                    12.906278
_cell_length_c                    14.129166
_cell_angle_alpha                 91.568783
_cell_angle_beta                  87.595007
_cell_angle_gamma                 93.665135
_cell_volume                      2194.13752081

loop_
_atom_site_label
_atom_site_type_symbol
_atom_type_description
_atom_site_fract_x
_atom_site_fract_y
_atom_site_fract_z
_atom_type_partial_charge
C1    C     C_R   0.521933 0.700443 0.497560 0.887372
C2    C     C_R   0.140280 0.450926 0.463159 0.607651
C3    C     C_R   0.976753 0.526107 0.539329 -0.154608
C4    C     C_R   0.021862 0.458802 0.467988 -0.143200
C5    C     C_R   0.500930 0.500215 0.670625 0.896565
C6    C     C_R   0.499165 0.500219 0.329379 0.862366
C7    C     C_1   0.502486 0.500091 0.772059 -0.203138
C8    C     C_1   0.497522 0.500213 0.227955 -0.227739
C9    C     C_1   0.502144 0.500047 0.857377 -0.014385
C10   C     C_1   0.497679 0.500130 0.142647 -0.020353
C11   C     C_1   0.500613 0.500034 0.957338 0.001904
C12   C     C_R   0.477761 0.299809 0.498734 0.866917
C13   C     C_1   0.499067 0.500057 0.042690 0.000942
C14   C     C_R   0.463494 0.188511 0.493376 -0.080917
C15   C     C_R   0.534085 0.811981 0.490258 -0.093623
C16   C     C_R   0.645285 0.969107 0.450969 0.109365
C17   C     C_R   0.349408 0.030732 0.516512 0.097522
C18   C     C_R   0.633920 0.861173 0.457618 -0.224835
C19   C     C_R   0.360513 0.138306 0.514803 -0.228840
C20   C     C_R   0.441289 0.868111 0.511251 -0.289130
C21   C     C_R   0.555256 0.132845 0.467340 -0.295262
C22   C     C_3   0.757102 0.024739 0.422417 -0.431011
C23   C     C_R   0.445706 0.974183 0.499539 0.130401
C24   C     C_3   0.856995 0.956709 0.410044 -0.358166
C25   C     C_3   0.963861 0.022132 0.386459 -0.889484
C26   C     C_3   0.234083 0.980864 0.536618 -0.443884
C27   C     C_3   0.213284 0.962940 0.642784 -0.324873
C28   C     C_3   0.096990 0.913391 0.662471 -0.909066
C29   C     C_3   0.235579 0.366544 0.339005 -0.255375
C30   C     C_3   0.845473 0.715071 0.552476 -0.335822
C31   C     C_3   0.985164 0.334821 0.322321 -0.373752
C32   C     C_3   0.896533 0.289150 0.254839 -0.408077
C33   C     C_3   0.950228 0.236460 0.167957 -0.881777
C34   C     C_R   0.549452 0.025579 0.471833 0.104928
C35   C     C_3   0.011567 0.611631 0.705538 -0.385804
C36   C     C_3   0.066784 0.553693 0.782922 -0.361701
C37   C     C_3   0.022434 0.585058 0.881669 -0.877598
C38   C     C_R   0.946203 0.400516 0.406856 0.033707
C39   C     C_R   0.049518 0.575410 0.606489 0.025679
C40   C     C_R   0.831580 0.410239 0.421797 -0.120502
C41   C     C_R   0.164240 0.580886 0.584980 -0.125999
C42   C     C_R   0.860314 0.540999 0.540333 0.621418
H1    H     H_    0.631980 0.174747 0.445447 0.158832
H2    H     H_    0.868124 0.916221 0.476949 0.216601
H3    H     H_    0.843200 0.898610 0.351521 0.221821
H4    H     H_    0.747626 0.064725 0.354808 0.197605
H5    H     H_    0.777909 0.084231 0.478394 0.207660
H6    H     H_    0.033278 0.965745 0.641281 0.268675
H7    H     H_    0.087088 0.838942 0.621847 0.252258
H8    H     H_    0.084399 0.898059 0.739237 0.251894
H9    H     H_    0.275022 0.911269 0.668719 0.219007
H10   H     H_    0.221898 0.038342 0.682607 0.227265
H11   H     H_    0.170876 0.032434 0.512732 0.210970
H12   H     H_    0.365407 0.827935 0.537407 0.173532
H13   H     H_    0.220740 0.907532 0.494504 0.197413
H14   H     H_    0.321808 0.343274 0.342056 0.201766
H15   H     H_    0.231811 0.443800 0.306227 0.140747
H16   H     H_    0.199359 0.306403 0.290045 0.137276
H17   H     H_    0.836164 0.712500 0.474348 0.148923
H18   H     H_    0.932442 0.740059 0.567699 0.153599
H19   H     H_    0.792093 0.774693 0.584274 0.199830
H20   H     H_    0.001328 0.294495 0.125601 0.260870
H21   H     H_    0.003977 0.175276 0.189442 0.256725
H22   H     H_    0.884554 0.200154 0.122842 0.256703
H23   H     H_    0.288895 0.182921 0.531931 0.191731
H24   H     H_    0.840458 0.230601 0.292249 0.219553
H25   H     H_    0.846975 0.351948 0.229680 0.233062
H26   H     H_    0.041697 0.386695 0.278442 0.204987
H27   H     H_    0.027020 0.268186 0.349327 0.245666
H28   H     H_    0.038751 0.669854 0.894554 0.262544
H29   H     H_    0.931652 0.565093 0.889157 0.266245
H30   H     H_    0.064650 0.542863 0.935843 0.251428
H31   H     H_    0.050122 0.468549 0.772026 0.233877
H32   H     H_    0.158140 0.571136 0.779678 0.225415
H33   H     H_    0.031945 0.696196 0.714426 0.196306
H34   H     H_    0.701426 0.814252 0.436323 0.146149
H35   H     H_    0.921307 0.596910 0.718813 0.264338
H36   H     H_    0.220521 0.625569 0.630332 0.156865
H37   H     H_    0.770962 0.365012 0.381543 0.157768
H38   H     H_    0.956711 0.062068 0.318714 0.269351
H39   H     H_    0.981099 0.080900 0.443757 0.264080
H40   H     H_    0.034547 0.971131 0.378953 0.246672
N1    N     N_R   0.207800 0.519340 0.515940 -0.137241
N2    N     N_R   0.792200 0.480660 0.484060 -0.141818
O1    O     O_R   0.421690 0.658830 0.504250 -0.627053
O2    O     O_3   0.813190 0.619038 0.593767 -0.602158
O3    O     O_R   0.578310 0.341170 0.495750 -0.630490
O4    O     O_R   0.609320 0.646410 0.494030 -0.582234
O5    O     O_R   0.390680 0.353590 0.505970 -0.577162
O6    O     O_R   0.406170 0.506210 0.631400 -0.609537
O7    O     O_R   0.593830 0.493790 0.368600 -0.604431
O8    O     O_R   0.593790 0.493790 0.621170 -0.553443
O9    O     O_R   0.406210 0.506210 0.378830 -0.611701
O10   O     O_3   0.182234 0.358196 0.429854 -0.622657
Zn1   Zn    Zn3+2 0.374720 0.508290 0.506830 0.948161
Zn2   Zn    Zn3+2 0.625280 0.491710 0.493170 0.967943

loop_
_geom_bond_atom_site_label_1
_geom_bond_atom_site_label_2
_ccdc_geom_bond_type
C15   C18   A    
O4    Zn2   S    
C3    C42   A    
C25   H38   S    
O1    Zn1   S    
C40   N2    A    
C35   C39   S    
C35   C36   S    
C26   H13   S    
O6    Zn1   S    
C39   C41   A    
C35   H33   S    
C26   C27   S    
C17   C23   A    
C24   H3    S    
C14   C21   A    
C36   C37   S    
C29   O10   S    
C6    O7    A    
C41   N1    A    
O8    Zn2   S    
N2    Zn2   S    
C16   C34   A    
O7    Zn2   S    
C21   H1    S    
C28   H8    S    
C33   H20   S    
C30   H18   S    
C18   H34   S    
C42   O2    S    
C30   O2    S    
C5    O6    A    
C6    O9    A    
C1    O4    A    
C22   H5    S    
C3    C39   A    
O9    Zn1   S    
C37   H28   S    
C30   H17   S    
C25   H39   S    
C2    N1    A    
C31   H26   S    
C27   H9    S    
C1    O1    A    
C15   C20   A    
C12   O5    A    
C2    O10   S    
C42   N2    A    
C24   C25   S    
C20   H12   S    
C41   H36   S    
C5    C7    S    
C6    C8    S    
C21   C34   A    
C35   H35   S    
O5    Zn1   S    
C2    C4    A    
C28   H7    S    
C31   C32   S    
C20   C23   A    
C33   H21   S    
C23   C34   A    
N1    Zn1   S    
O3    Zn2   S    
C40   H37   S    
C9    C11   S    
C36   H32   S    
C32   H25   S    
C1    C15   S    
C16   C18   A    
C22   H4    S    
C12   C14   S    
C37   H29   S    
C25   H40   S    
C24   H2    S    
C22   C24   S    
C30   H19   S    
C17   C26   S    
C3    C4    A    
C26   H11   S    
C27   H10   S    
C32   H24   S    
C7    C9    T    
C28   H6    S    
C16   C22   S    
C12   O3    A    
C14   C19   A    
C29   H15   S    
C10   C13   S    
C29   H14   S    
C31   C38   S    
C32   C33   S    
C38   C40   A    
C11   C13   T    
C33   H22   S    
C17   C19   A    
C19   H23   S    
C5    O8    A    
C36   H31   S    
C31   H27   S    
C29   H16   S    
C8    C10   T    
C37   H30   S    
C27   C28   S    
C4    C38   A    
