data_mof_unit_10876.cif
_audit_creation_date              2012-12-10T17:15:13-0500
_audit_creation_method            fapswitch 2.2
_symmetry_space_group_name_H-M    P1
_symmetry_Int_Tables_number       1
_space_group_crystal_system       triclinic
_cell_length_a                    10.261407
_cell_length_b                    10.462723
_cell_length_c                    12.762487
_cell_angle_alpha                 90.352267
_cell_angle_beta                  89.442065
_cell_angle_gamma                 92.804627
_cell_volume                      1368.48123054

loop_
_atom_site_label
_atom_site_type_symbol
_atom_type_description
_atom_site_fract_x
_atom_site_fract_y
_atom_site_fract_z
_atom_type_partial_charge
C1    C     C_R   0.447751 0.265470 0.496523 0.891361
C2    C     C_R   0.550810 0.734545 0.510149 0.828477
C3    C     C_2   0.071068 0.504650 0.520785 -0.032515
C4    C     C_2   0.930442 0.526027 0.504030 0.029051
C5    C     C_R   0.475268 0.517266 0.698760 0.937771
C6    C     C_R   0.525752 0.484146 0.301406 0.853069
C7    C     C_R   0.545569 0.460156 0.189503 -0.168006
C8    C     C_R   0.461408 0.544502 0.811428 -0.263924
C9    C     C_R   0.331066 0.509781 0.967270 -0.079171
C10   C     C_R   0.679855 0.509110 0.037707 -0.248955
C11   C     C_R   0.338641 0.545185 0.862418 -0.016894
C12   C     C_R   0.670577 0.477400 0.142583 -0.084204
C13   C     C_R   0.575782 0.553719 0.871896 -0.054778
C14   C     C_R   0.435446 0.439486 0.125846 -0.114928
C15   C     C_R   0.567630 0.517170 0.977294 0.128346
C16   C     C_R   0.443827 0.483969 0.022421 0.101810
C17   C     C_2   0.422362 0.128052 0.510311 0.062283
C18   C     C_2   0.569130 0.871966 0.530224 -0.037073
C19   C     C_2   0.474944 0.069878 0.593947 0.032937
C20   C     C_2   0.484555 0.930500 0.595323 -0.096508
H1    H     H_    0.237639 0.509228 0.007361 0.218614
H2    H     H_    0.776260 0.527015 0.004854 0.203146
N1    N     N_2   0.162330 0.550370 0.457540 -0.200860
N2    N     N_2   0.837670 0.449630 0.542460 -0.184992
O1    O     O_R   0.567930 0.307680 0.508550 -0.629298
O2    O     O_R   0.432070 0.692320 0.491450 -0.629223
O3    O     O_R   0.351090 0.340020 0.481290 -0.539498
O4    O     O_R   0.648910 0.659980 0.518710 -0.596566
O5    O     O_R   0.590490 0.486480 0.665020 -0.591516
O6    O     O_R   0.409510 0.513520 0.334980 -0.657046
O7    O     O_R   0.373660 0.518820 0.637760 -0.612422
O8    O     O_R   0.626340 0.481180 0.362240 -0.517247
Zn1   Zn    Zn3+2 0.644780 0.478400 0.518200 1.033260
Zn2   Zn    Zn3+2 0.355220 0.521600 0.481800 0.985697
C21   C     C_2   0.320466 0.359214 0.165554 0.459854
H3    H     H_    0.315098 0.328839 0.246572 0.093578
O9    O     O_2   0.235169 0.316905 0.107060 -0.526930
C22   C     C_2   0.699086 0.609643 0.824497 0.439428
H4    H     H_    0.697285 0.699979 0.783273 0.034877
O10   O     O_2   0.799124 0.551069 0.823116 -0.545667
C23   C     C_2   0.794647 0.457309 0.196476 0.607211
H5    H     H_    0.880581 0.516699 0.176029 0.101644
O11   O     O_2   0.804666 0.368478 0.257037 -0.485057
C24   C     C_2   0.221501 0.595319 0.812865 0.452328
H6    H     H_    0.228160 0.643198 0.738049 0.075583
O12   O     O_2   0.115486 0.588614 0.857440 -0.547069
C25   C     C_2   0.402425 0.858531 0.673594 0.375615
H7    H     H_    0.422748 0.761513 0.692424 0.002008
O13   O     O_2   0.313244 0.908809 0.719603 -0.543970
C26   C     C_2   0.518227 0.138939 0.690685 0.443803
H8    H     H_    0.589969 0.097707 0.740626 0.049123
O14   O     O_2   0.468453 0.236961 0.718970 -0.532139
N3    N     N_2   0.668414 0.943139 0.473840 -0.292396
H9    H     H_    0.692288 0.901409 0.403205 0.254681
C27   C     C_3   0.782808 0.975230 0.535646 -0.695647
H10   H     H_    0.859194 0.022752 0.485339 0.279648
H11   H     H_    0.822347 0.887599 0.569149 0.222349
H12   H     H_    0.758311 0.040689 0.600711 0.220831
N4    N     N_2   0.361416 0.055545 0.427632 -0.318368
H13   H     H_    0.370203 0.099550 0.355602 0.212669
C28   C     C_3   0.228314 0.011255 0.449863 -0.651648
H14   H     H_    0.190137 0.952656 0.383045 0.218526
H15   H     H_    0.165728 0.094078 0.461375 0.281947
H16   H     H_    0.223247 0.950641 0.520903 0.261191
C29   C     C_2   0.900944 0.649042 0.455753 0.478405
H17   H     H_    0.950764 0.736476 0.483312 -0.014727
O15   O     O_2   0.832744 0.652401 0.378239 -0.552201
C30   C     C_2   0.102674 0.443658 0.620897 0.466888
H18   H     H_    0.046727 0.466682 0.690260 0.078340
O16   O     O_2   0.175613 0.355488 0.624626 -0.466601
C31   C     C_2   0.858397 0.317606 0.559596 0.607859
H19   H     H_    0.798687 0.266046 0.617341 0.024681
O17   O     O_2   0.935403 0.259744 0.505748 -0.567705
C32   C     C_2   0.135232 0.571532 0.350008 0.564691
H20   H     H_    0.183316 0.652147 0.309963 0.029617
O18   O     O_2   0.067398 0.494326 0.300202 -0.547444

loop_
_geom_bond_atom_site_label_1
_geom_bond_atom_site_label_2
_ccdc_geom_bond_type
C28   H16   S    
C6    O8    A    
C27   H10   S    
C8    C13   A    
C2    C18   S    
C9    C11   A    
C23   H5    S    
C1    C17   S    
C25   H7    S    
C13   C15   A    
O2    Zn2   S    
N1    Zn2   S    
O8    Zn1   S    
C19   C20   S    
C27   H11   S    
C26   H8    S    
O7    Zn2   S    
N4    H13   S    
C2    O2    A    
N3    H9    S    
C10   H2    S    
C1    O1    A    
C14   C21   S    
C23   O11   D    
C19   C26   S    
C9    H1    S    
C13   C22   S    
C6    C7    S    
C32   O18   D    
C17   N4    S    
C8    C11   A    
C15   C16   A    
C10   C12   A    
C25   O13   D    
C22   O10   D    
C3    C30   S    
C24   O12   D    
O4    Zn1   S    
C18   C20   D    
C10   C15   A    
N3    C27   S    
O3    Zn2   S    
C28   H14   S    
C4    N2    D    
C14   C16   A    
C7    C12   A    
N4    C28   S    
C20   C25   S    
C29   O15   D    
C32   H20   S    
O6    Zn2   S    
N1    C32   S    
C3    C4    S    
C5    O5    A    
O5    Zn1   S    
C11   C24   S    
C31   H19   S    
C24   H6    S    
C21   O9    D    
C12   C23   S    
C28   H15   S    
C29   H17   S    
C6    O6    A    
C27   H12   S    
C31   O17   D    
C26   O14   D    
C1    O3    A    
C30   O16   D    
C5    C8    S    
C4    C29   S    
C2    O4    A    
C18   N3    S    
C17   C19   D    
C3    N1    D    
C9    C16   A    
C7    C14   A    
N2    Zn1   S    
N2    C31   S    
O1    Zn1   S    
C30   H18   S    
C5    O7    A    
C21   H3    S    
C22   H4    S    
