data_mof_unit_37896.cif
_audit_creation_date              2012-12-11T14:33:59-0500
_audit_creation_method            fapswitch 2.2
_symmetry_space_group_name_H-M    P1
_symmetry_Int_Tables_number       1
_space_group_crystal_system       triclinic
_cell_length_a                    13.990391
_cell_length_b                    14.057814
_cell_length_c                    27.270677
_cell_angle_alpha                 89.860789
_cell_angle_beta                  89.891292
_cell_angle_gamma                 119.556981
_cell_volume                      4665.429835

loop_
_atom_site_label
_atom_site_type_symbol
_atom_type_description
_atom_site_fract_x
_atom_site_fract_y
_atom_site_fract_z
_atom_type_partial_charge
C1    C     C_R   0.234837 0.787295 0.568758 0.537133
C2    C     C_R   0.212251 0.446973 0.568682 0.539053
C3    C     C_R   0.551963 0.764298 0.569120 0.538496
C4    C     C_3   0.671251 0.734820 0.793687 0.101995
C5    C     C_3   0.255690 0.945672 0.789398 0.097722
C6    C     C_3   0.049372 0.309706 0.789462 0.097870
C7    C     C_3   0.652121 0.717854 0.736577 0.118849
C8    C     C_3   0.272128 0.939880 0.732569 0.120594
C9    C     C_3   0.055437 0.332335 0.732580 0.122186
C10   C     C_1   0.690755 0.858276 0.863005 -0.051549
C11   C     C_1   0.129156 0.851179 0.858553 -0.065417
C12   C     C_1   0.146060 0.278407 0.858372 -0.063942
C13   C     C_1   0.623729 0.802432 0.660023 0.031295
C14   C     C_1   0.192321 0.820796 0.658605 0.028791
C15   C     C_1   0.175943 0.370285 0.658339 0.028546
C16   C     C_1   0.598266 0.790556 0.617336 0.035577
C17   C     C_1   0.206152 0.806775 0.616359 0.038304
C18   C     C_1   0.191541 0.398392 0.616147 0.037789
C19   C     C_R   0.065465 0.152033 0.096164 0.601578
C20   C     C_R   0.773415 0.881413 0.086315 0.582700
C21   C     C_R   0.116281 0.893119 0.087513 0.598012
C22   C     C_R   0.078553 0.174247 0.942590 0.519664
C23   C     C_R   0.779979 0.887662 0.950912 0.535536
C24   C     C_R   0.095804 0.921240 0.942800 0.517508
C25   C     C_R   0.611130 0.889272 0.358007 -0.129484
C26   C     C_R   0.100283 0.737351 0.362513 -0.128898
C27   C     C_R   0.262690 0.355299 0.364779 -0.129463
C28   C     C_R   0.628784 0.899933 0.307245 -0.012184
C29   C     C_R   0.084434 0.746744 0.312437 -0.015501
C30   C     C_R   0.238833 0.304276 0.318738 -0.015169
C31   C     C_R   0.656350 0.914466 0.204593 0.034073
C32   C     C_R   0.060736 0.759803 0.210681 0.043229
C33   C     C_R   0.197511 0.224791 0.221785 0.043598
C34   C     C_R   0.233879 0.788168 0.431466 0.546263
C35   C     C_R   0.211929 0.444534 0.431812 0.548328
C36   C     C_R   0.553431 0.765902 0.431044 0.547117
C37   C     C_R   0.640193 0.992967 0.229859 0.222174
C38   C     C_R   0.972850 0.679333 0.238646 0.255642
C39   C     C_R   0.298442 0.251559 0.244401 0.256580
C40   C     C_R   0.626697 0.984979 0.281220 -0.125136
C41   C     C_R   0.986452 0.672191 0.289428 -0.117978
C42   C     C_R   0.318503 0.292064 0.292727 -0.121421
C43   C     C_R   0.681818 0.925706 0.154297 -0.156228
C44   C     C_R   0.048647 0.773635 0.160729 -0.151484
C45   C     C_R   0.179333 0.194964 0.172179 -0.144103
C46   C     C_R   0.706014 0.851515 0.131199 0.008498
C47   C     C_R   0.136839 0.854414 0.133755 0.008077
C48   C     C_R   0.082194 0.176199 0.149037 -0.000172
C49   C     C_R   0.630720 0.726932 0.358067 -0.124102
C50   C     C_R   0.278604 0.902133 0.357649 -0.122201
C51   C     C_R   0.077683 0.328042 0.369806 -0.123085
C52   C     C_R   0.642539 0.733228 0.307572 0.020525
C53   C     C_R   0.267315 0.907939 0.307606 0.019978
C54   C     C_R   0.054329 0.281031 0.323633 0.023240
C55   C     C_R   0.642095 0.820121 0.281817 0.052534
C56   C     C_R   0.170591 0.829303 0.284534 0.050726
C57   C     C_R   0.135438 0.270707 0.297269 0.052607
C58   C     C_R   0.647006 0.649297 0.282349 -0.136591
C59   C     C_R   0.354168 0.988196 0.280176 -0.128528
C60   C     C_R   0.953511 0.252303 0.302203 -0.133411
C61   C     C_R   0.652893 0.651892 0.231656 -0.099024
C62   C     C_R   0.347334 0.988485 0.229540 -0.088919
C63   C     C_R   0.934223 0.218596 0.253871 -0.116242
C64   C     C_R   0.661373 0.742162 0.205524 0.024294
C65   C     C_R   0.251854 0.910310 0.205614 0.014523
C66   C     C_R   0.013686 0.207366 0.226323 0.017116
C67   C     C_3   0.541958 0.818561 0.737864 -0.237186
C68   C     C_3   0.178872 0.731023 0.738642 -0.234581
C69   C     C_3   0.265144 0.445679 0.737920 -0.236198
C70   C     C_R   0.653467 0.825849 0.230633 -0.017329
C71   C     C_R   0.161074 0.832736 0.233558 -0.020781
C72   C     C_R   0.114873 0.232394 0.248648 -0.016699
C73   C     C_R   0.681856 0.752656 0.155069 0.237583
C74   C     C_R   0.241831 0.913012 0.154597 0.232774
C75   C     C_R   0.997410 0.177909 0.176332 0.222718
C76   C     C_R   0.607417 0.799939 0.383123 0.000795
C77   C     C_R   0.199702 0.812346 0.384602 0.002789
C78   C     C_R   0.183466 0.371656 0.389302 0.001098
C79   C     C_3   0.751389 0.919075 0.726213 0.121198
C80   C     C_3   0.070334 0.831416 0.722223 0.121583
C81   C     C_3   0.164510 0.238498 0.722143 0.120428
C82   C     C_3   0.751115 0.945609 0.781509 0.164792
C83   C     C_3   0.043306 0.810187 0.777656 0.168487
C84   C     C_3   0.186902 0.233572 0.777414 0.166415
C85   C     C_1   0.726225 0.872350 0.904361 -0.073433
C86   C     C_1   0.113294 0.879411 0.897987 -0.063594
C87   C     C_1   0.119589 0.234039 0.897816 -0.063606
C88   C     C_3   0.641461 0.813949 0.713539 -0.019744
C89   C     C_3   0.179007 0.830054 0.711492 -0.022345
C90   C     C_3   0.165815 0.347910 0.711214 -0.021700
C91   C     C_3   0.546396 0.813949 0.795234 0.139946
C92   C     C_3   0.180127 0.744472 0.795880 0.147589
C93   C     C_3   0.251229 0.434436 0.795150 0.144756
C94   C     C_3   0.664070 0.839217 0.810149 0.051033
C95   C     C_3   0.151128 0.836072 0.807177 0.046041
C96   C     C_3   0.160083 0.314899 0.806929 0.046046
Cr1   Cr    Cr6+3 0.164410 0.584450 0.499910 1.039886
Cr2   Cr    Cr6+3 0.415550 0.579960 0.499910 1.039489
Cr3   Cr    Cr6+3 0.420040 0.835590 0.499910 1.037542
Cr4   Cr    Cr6+3 0.155170 0.075460 0.019960 1.054036
Cr5   Cr    Cr6+3 0.924540 0.079710 0.019960 1.048124
Cr6   Cr    Cr6+3 0.920290 0.844830 0.019960 1.033668
H1    H     H_    0.462207 0.750384 0.724857 0.084198
H2    H     H_    0.250635 0.722397 0.727347 0.082480
H3    H     H_    0.274146 0.525573 0.726238 0.082582
H4    H     H_    0.485941 0.729310 0.806844 0.211098
H5    H     H_    0.264929 0.770525 0.808535 0.216771
H6    H     H_    0.224035 0.492628 0.807443 0.212025
H7    H     H_    0.755898 0.750795 0.800652 0.068628
H8    H     H_    0.239803 0.014579 0.795353 0.081295
H9    H     H_    0.980280 0.225560 0.795726 0.080878
H10   H     H_    0.690691 0.995689 0.133788 0.194310
H11   H     H_    0.969206 0.726510 0.143389 0.184266
H12   H     H_    0.242133 0.189880 0.150896 0.204979
H13   H     H_    0.592933 0.945979 0.377180 0.125653
H14   H     H_    0.038289 0.668988 0.383465 0.125135
H15   H     H_    0.344279 0.387394 0.380077 0.126228
H16   H     H_    0.614531 0.045137 0.300853 0.081476
H17   H     H_    0.920361 0.608981 0.310991 0.089974
H18   H     H_    0.397426 0.316685 0.309551 0.086772
H19   H     H_    0.653263 0.583711 0.213578 0.155276
H20   H     H_    0.415768 0.053016 0.209760 0.169077
H21   H     H_    0.857872 0.206404 0.238727 0.146241
H22   H     H_    0.643531 0.580267 0.301777 0.098155
H23   H     H_    0.428480 0.049500 0.297820 0.093050
H24   H     H_    0.891321 0.261514 0.322039 0.104662
H25   H     H_    0.543818 0.894404 0.725267 0.156096
H26   H     H_    0.105766 0.654675 0.726536 0.150429
H27   H     H_    0.341624 0.447370 0.725875 0.160284
H28   H     H_    0.628858 0.658170 0.377084 0.132271
H29   H     H_    0.354884 0.962276 0.374411 0.133624
H30   H     H_    0.015065 0.337877 0.388924 0.134228
H31   H     H_    0.820860 0.902961 0.720021 0.118869
H32   H     H_    0.082542 0.914203 0.713610 0.118805
H33   H     H_    0.081142 0.168864 0.714196 0.119870
H34   H     H_    0.835849 0.974200 0.795625 0.051376
H35   H     H_    0.010560 0.864701 0.789491 0.050131
H36   H     H_    0.133188 0.147174 0.789679 0.050517
H37   H     H_    0.725368 0.718189 0.720297 0.170967
H38   H     H_    0.266890 0.008737 0.714954 0.173188
H39   H     H_    0.986257 0.259373 0.715103 0.170240
O1    O     O_R   0.137150 0.468200 0.553200 -0.497770
O2    O     O_R   0.531800 0.668950 0.553200 -0.496710
O3    O     O_R   0.331050 0.862850 0.553200 -0.495482
O4    O     O_R   0.179100 0.982980 0.967000 -0.509235
O5    O     O_R   0.017020 0.196120 0.967000 -0.498563
O6    O     O_R   0.803880 0.820900 0.967000 -0.519066
O7    O     O_R   0.173970 0.688730 0.549930 -0.496941
O8    O     O_R   0.311270 0.485240 0.549930 -0.496947
O9    O     O_R   0.514760 0.826030 0.549930 -0.495081
O10   O     O_R   0.140110 0.470540 0.446010 -0.520627
O11   O     O_R   0.529460 0.669570 0.446010 -0.521579
O12   O     O_R   0.330430 0.859890 0.446010 -0.523938
O13   O     O_R   0.176710 0.690910 0.450560 -0.500772
O14   O     O_R   0.309090 0.485800 0.450560 -0.503292
O15   O     O_R   0.514200 0.823290 0.450560 -0.503093
O16   O     O_3   0.333333 0.666667 0.499990 -0.280568
O17   O     O_R   0.176750 0.985260 0.074180 -0.453048
O18   O     O_R   0.014740 0.191490 0.074180 -0.412864
O19   O     O_R   0.808510 0.823250 0.074180 -0.459486
O20   O     O_R   0.146100 0.172630 0.068980 -0.494007
O21   O     O_R   0.827370 0.973470 0.068980 -0.504743
O22   O     O_R   0.026530 0.853900 0.068980 -0.515560
O23   O     O_3   0.000000 1.000000 0.020040 -0.297448
O24   O     O_R   0.148270 0.170520 0.969620 -0.486851
O25   O     O_R   0.829480 0.977750 0.969620 -0.518985
O26   O     O_R   0.022250 0.851730 0.969620 -0.483074
O27   O     O_3   0.513162 0.881270 0.819219 -0.711620
H40   H     H_    0.528607 0.944670 0.798161 0.388214
O28   O     O_3   0.112896 0.646764 0.821548 -0.714727
H41   H     H_    0.056549 0.592452 0.799415 0.380384
O29   O     O_3   0.349514 0.465773 0.820688 -0.708177
H42   H     H_    0.403138 0.459884 0.799029 0.386177
O30   O     O_3   0.638455 0.076669 0.203917 -0.729940
H43   H     H_    0.627335 0.124603 0.227111 0.316753
O31   O     O_3   0.875460 0.608138 0.215724 -0.725597
H44   H     H_    0.822949 0.557447 0.240506 0.316268
O32   O     O_3   0.377497 0.241201 0.218227 -0.702678
H45   H     H_    0.442434 0.262495 0.239421 0.315601
O33   O     O_3   0.684693 0.670064 0.128919 -0.663361
H46   H     H_    0.738811 0.654302 0.145073 0.339768
O34   O     O_3   0.330485 0.978006 0.124708 -0.664260
H47   H     H_    0.396483 0.978531 0.138132 0.334648
O35   O     O_3   0.901923 0.155012 0.152138 -0.675509
H48   H     H_    0.840189 0.121015 0.175288 0.334960
O36   O     O_3   0.774028 0.009206 0.695722 -0.668046
H49   H     H_    0.707456 0.016941 0.693858 0.367387
O37   O     O_3   0.981658 0.758801 0.692515 -0.664119
H50   H     H_    0.977715 0.686455 0.692824 0.367562
O38   O     O_3   0.236889 0.221264 0.692073 -0.666859
H51   H     H_    0.309563 0.288751 0.691709 0.368091
O39   O     O_3   0.723970 0.030366 0.783713 -0.535842
C97   C     C_3   0.751633 0.087779 0.828252 -0.002118
H52   H     H_    0.834340 0.107516 0.841438 0.098137
H53   H     H_    0.690328 0.040006 0.856916 0.174314
C98   C     C_3   0.745883 0.191732 0.820154 -0.372300
H54   H     H_    0.670259 0.173459 0.799686 0.176954
H55   H     H_    0.744249 0.227634 0.856079 0.081835
H56   H     H_    0.816747 0.250802 0.797814 0.208855
O40   O     O_3   0.961340 0.698452 0.782135 -0.529459
C99   C     C_3   0.905424 0.671115 0.827380 0.004034
H57   H     H_    0.883828 0.733127 0.839944 0.095910
H58   H     H_    0.955665 0.661181 0.856105 0.187832
C100  C     C_3   0.802790 0.560604 0.821369 -0.375029
H59   H     H_    0.822768 0.503761 0.801533 0.179029
H60   H     H_    0.769175 0.525427 0.857980 0.083387
H61   H     H_    0.740871 0.568994 0.799338 0.201140
O41   O     O_3   0.299584 0.263547 0.781142 -0.532629
C101  C     C_3   0.328788 0.237304 0.826457 0.002704
H62   H     H_    0.267182 0.155257 0.840032 0.092934
H63   H     H_    0.338740 0.297775 0.854721 0.184875
C102  C     C_3   0.440280 0.245304 0.819850 -0.371997
H64   H     H_    0.496872 0.321776 0.799998 0.175705
H65   H     H_    0.475895 0.246312 0.856251 0.082385
H66   H     H_    0.432466 0.176133 0.797515 0.211606
O42   O     O_3   0.562041 0.615499 0.724544 -0.666113
H67   H     H_    0.495605 0.611477 0.739360 0.341472
O43   O     O_3   0.377158 0.956579 0.720426 -0.660502
H68   H     H_    0.384652 0.896591 0.735467 0.344318
O44   O     O_3   0.038977 0.420730 0.720553 -0.659380
H69   H     H_    0.098632 0.487399 0.735747 0.341369
O45   O     O_3   0.592000 0.636302 0.817880 -0.543969
C103  C     C_3   0.617259 0.627229 0.867406 0.015424
H70   H     H_    0.578721 0.662097 0.891653 0.173995
H71   H     H_    0.707007 0.667807 0.874433 0.118079
C104  C     C_3   0.566248 0.507758 0.882480 -0.371439
H72   H     H_    0.581343 0.460897 0.854080 0.150131
H73   H     H_    0.602778 0.501140 0.917559 0.106870
H74   H     H_    0.476547 0.471794 0.888162 0.193052
O46   O     O_3   0.355798 0.966692 0.813319 -0.547588
C105  C     C_3   0.360771 0.991722 0.863923 0.017022
H75   H     H_    0.321888 0.914880 0.885684 0.181016
H76   H     H_    0.321561 0.041738 0.872281 0.118828
C106  C     C_3   0.479150 0.054074 0.881500 -0.371910
H77   H     H_    0.531262 0.116367 0.854262 0.151411
H78   H     H_    0.483198 0.095329 0.916738 0.107818
H79   H     H_    0.511598 0.997460 0.888003 0.189437
O47   O     O_3   0.027913 0.388311 0.813382 -0.553575
C107  C     C_3   0.000339 0.366967 0.863756 0.010186
H80   H     H_    0.076453 0.403531 0.886019 0.181015
H81   H     H_    0.950041 0.278293 0.871817 0.119522
C108  C     C_3   0.936629 0.422853 0.880636 -0.373134
H82   H     H_    0.872923 0.410522 0.853625 0.150989
H83   H     H_    0.896475 0.388196 0.916466 0.107658
H84   H     H_    0.992610 0.511669 0.885563 0.194736

loop_
_geom_bond_atom_site_label_1
_geom_bond_atom_site_label_2
_ccdc_geom_bond_type
C15   C18   T    
C40   H16   S    
C4    H7    S    
C93   O29   S    
Cr6   O26   S    
C21   O22   A    
C79   O36   S    
Cr2   O2    S    
C2    C18   S    
C33   C45   A    
C6    H9    S    
C31   C43   A    
C103  H70   S    
C48   C75   A    
C83   H35   S    
C27   C78   A    
C39   O32   S    
C6    C9    S    
O32   H45   S    
C53   C59   A    
C103  C104  S    
C67   H1    S    
C10   C85   T    
Cr2   O11   S    
O29   H42   S    
C25   C28   A    
C6    O47   S    
Cr6   O23   S    
C81   O38   S    
C67   C88   S    
O38   H51   S    
C35   O10   A    
C60   C63   A    
C82   C94   S    
Cr5   O21   S    
C107  H80   S    
C35   O14   A    
C37   C40   A    
C69   C93   S    
C24   O4    A    
C25   H13   S    
C93   H6    S    
C84   C96   S    
Cr3   O12   S    
C45   C48   A    
O28   H41   S    
C28   C40   A    
C11   C86   T    
C30   C57   A    
Cr2   O14   S    
C101  C102  S    
C80   H32   S    
O35   H48   S    
C61   H19   S    
C19   O20   A    
C80   C89   S    
O30   H43   S    
C79   C88   S    
C36   C76   S    
C33   C72   A    
C68   C92   S    
C37   O30   S    
O34   H47   S    
C22   O24   A    
C45   H12   S    
C31   C70   A    
C66   C72   A    
C22   O5    A    
C92   O28   S    
O40   C99   S    
C97   H53   S    
Cr5   O25   S    
C108  H83   S    
C64   C73   A    
Cr2   O16   S    
Cr4   O20   S    
C32   C38   A    
C39   C42   A    
C20   O19   A    
C68   H26   S    
C7    O42   S    
C12   C87   T    
C44   C47   A    
C82   O39   S    
C49   C52   A    
C2    O8    A    
C34   O13   A    
C63   C66   A    
C83   C95   S    
C21   C47   S    
C27   C30   A    
C99   C100  S    
C73   O33   S    
C91   H4    S    
O46   C105  S    
C106  H78   S    
C99   H58   S    
C80   C83   S    
C75   O35   S    
O44   H69   S    
C5    C95   S    
C28   C55   A    
C81   H33   S    
C32   C71   A    
C26   H14   S    
C27   H15   S    
Cr1   O10   S    
C79   H31   S    
Cr3   O9    S    
Cr5   O5    S    
C108  H84   S    
Cr6   O22   S    
C26   C77   A    
Cr3   O3    S    
C24   O26   A    
C3    O2    A    
O42   H67   S    
C38   C41   A    
Cr4   O23   S    
C21   O17   A    
Cr6   O19   S    
C9    H39   S    
C19   C48   S    
O41   C101  S    
C54   C60   A    
C4    C7    S    
C22   C87   S    
C58   H22   S    
C23   O6    A    
C92   C95   S    
C65   C74   A    
C31   C37   A    
Cr4   O24   S    
C106  H79   S    
Cr1   O16   S    
C61   C64   A    
C64   C70   A    
O37   H50   S    
C14   C89   S    
C67   H25   S    
Cr6   O6    S    
C5    C8    S    
C23   O25   A    
C106  H77   S    
C84   O41   S    
C92   H5    S    
C38   O31   S    
C7    C88   S    
C102  H66   S    
Cr4   O4    S    
C97   C98   S    
C20   O21   A    
Cr3   O15   S    
C3    O9    A    
C67   C91   S    
C101  H62   S    
C80   O37   S    
C49   C76   A    
C107  H81   S    
C33   C39   A    
Cr1   O13   S    
C41   H17   S    
Cr5   O18   S    
C52   C58   A    
C4    C94   S    
C81   C90   S    
C9    O44   S    
C98   H55   S    
O27   H40   S    
C100  H60   S    
C44   H11   S    
C97   H52   S    
C93   C96   S    
C6    C96   S    
Cr3   O16   S    
C23   C85   S    
C2    O1    A    
Cr1   O7    S    
C91   O27   S    
C43   H10   S    
C69   C90   S    
C50   C77   A    
C62   H20   S    
C81   C84   S    
O33   H46   S    
C36   O15   A    
C34   O12   A    
C11   C95   S    
O47   C107  S    
O31   H44   S    
C59   C62   A    
C69   H3    S    
C62   C65   A    
C29   C41   A    
C1    C17   S    
Cr5   O23   S    
C36   O11   A    
C68   H2    S    
C47   C74   A    
C102  H65   S    
C98   H54   S    
C9    C90   S    
C79   C82   S    
C63   H21   S    
C51   H30   S    
C103  H71   S    
C74   O34   S    
C29   C56   A    
C59   H23   S    
C104  H74   S    
C49   H28   S    
C35   C78   S    
C104  H73   S    
C99   H57   S    
C8    H38   S    
C51   C54   A    
C19   O18   A    
O39   C97   S    
C25   C76   A    
C60   H24   S    
C83   O40   S    
C51   C78   A    
C34   C77   S    
C1    O3    A    
C65   C71   A    
C15   C90   S    
C7    H37   S    
C52   C55   A    
C42   H18   S    
O43   H68   S    
C102  H64   S    
C50   H29   S    
C58   C61   A    
C4    O45   S    
C66   C75   A    
C108  H82   S    
C13   C88   S    
C101  H63   S    
C100  H61   S    
C30   C42   A    
C57   C72   A    
C82   H34   S    
O45   C103  S    
C98   H56   S    
C43   C46   A    
C53   C56   A    
Cr1   O1    S    
C55   C70   A    
C8    O43   S    
C105  C106  S    
C105  H76   S    
C84   H36   S    
C107  C108  S    
Cr4   O17   S    
C100  H59   S    
C32   C44   A    
C26   C29   A    
C69   H27   S    
C104  H72   S    
C5    H8    S    
C13   C16   T    
C105  H75   S    
C10   C94   S    
C5    O46   S    
C12   C96   S    
C1    O7    A    
C8    C89   S    
C68   C89   S    
O36   H49   S    
C24   C86   S    
Cr2   O8    S    
C46   C73   A    
C20   C46   S    
C3    C16   S    
C56   C71   A    
C50   C53   A    
C91   C94   S    
C54   C57   A    
C14   C17   T    
