data_mof_unit_12712.cif
_audit_creation_date              2012-12-10T18:19:14-0500
_audit_creation_method            fapswitch 2.2
_symmetry_space_group_name_H-M    P1
_symmetry_Int_Tables_number       1
_space_group_crystal_system       triclinic
_cell_length_a                    14.960232
_cell_length_b                    14.210288
_cell_length_c                    11.471062
_cell_angle_alpha                 89.755319
_cell_angle_beta                  89.613187
_cell_angle_gamma                 89.833955
_cell_volume                      2438.53610613

loop_
_atom_site_label
_atom_site_type_symbol
_atom_type_description
_atom_site_fract_x
_atom_site_fract_y
_atom_site_fract_z
_atom_type_partial_charge
C1    C     C_R   0.326955 0.500235 0.501406 1.065185
C2    C     C_R   0.425296 0.197985 0.534063 0.429824
C3    C     C_R   0.425892 0.802244 0.464425 0.487230
C4    C     C_R   0.574687 0.198026 0.465190 0.414682
C5    C     C_R   0.419783 0.900032 0.493112 -0.217725
C6    C     C_R   0.580372 0.100062 0.493819 -0.215811
C7    C     C_R   0.580348 0.899617 0.504940 -0.221989
C8    C     C_R   0.419586 0.100415 0.504521 -0.217975
C9    C     C_R   0.500045 0.950188 0.498894 -0.052136
C10   C     C_R   0.499998 0.049885 0.498937 -0.056823
C11   C     C_R   0.337654 0.950314 0.501965 0.404257
C12   C     C_R   0.672593 0.499787 0.498910 1.013755
C13   C     C_R   0.662391 0.049692 0.503026 0.392192
C14   C     C_R   0.662478 0.949600 0.496356 0.390626
C15   C     C_R   0.337564 0.050462 0.495835 0.391736
C16   C     C_R   0.502840 0.500095 0.282296 1.000368
C17   C     C_R   0.503263 0.499918 0.717619 1.007034
C18   C     C_1   0.505645 0.500293 0.161695 0.008407
C19   C     C_1   0.506379 0.499811 0.838166 0.011510
C20   C     C_1   0.507383 0.500222 0.059295 0.064668
C21   C     C_1   0.507764 0.499973 0.940551 0.062709
C22   C     C_R   0.814227 0.491319 0.391170 0.396682
C23   C     C_R   0.906297 0.473422 0.395589 -0.057804
C24   C     C_R   0.183556 0.528480 0.602197 0.376477
C25   C     C_R   0.767861 0.498981 0.498043 -0.259030
C26   C     C_R   0.230731 0.501263 0.500438 -0.287932
C27   C     C_R   0.813507 0.506267 0.604213 0.332949
C28   C     C_R   0.186179 0.476636 0.396816 0.393728
C29   C     C_R   0.904513 0.525316 0.598525 -0.061053
C30   C     C_R   0.093143 0.467814 0.400570 -0.010878
C31   C     C_R   0.952252 0.501103 0.496802 -0.056340
C32   C     C_R   0.045577 0.503366 0.497298 -0.054731
C33   C     C_3   0.060846 0.740758 0.723048 -0.089751
C34   C     C_R   0.090514 0.540366 0.595108 -0.101565
C35   C     C_3   0.946061 0.376769 0.111492 -0.018012
C36   C     C_R   0.948023 0.571092 0.689132 -0.180362
C37   C     C_R   0.046400 0.422244 0.311499 -0.196560
C38   C     C_R   0.039681 0.586348 0.682671 0.542203
C39   C     C_R   0.952886 0.428130 0.304440 0.546352
C40   C     C_R   0.574223 0.801848 0.534573 0.497650
H1    H     H_    0.910566 0.600936 0.761234 0.234708
H2    H     H_    0.996419 0.319341 0.106559 0.142799
H3    H     H_    0.976480 0.445859 0.088113 0.183813
H4    H     H_    0.894451 0.361537 0.045339 0.232367
H5    H     H_    0.610284 0.719197 0.832862 0.400213
H6    H     H_    0.471784 0.235599 0.775046 0.361486
H7    H     H_    0.387043 0.710107 0.170450 0.403553
H8    H     H_    0.531320 0.239405 0.222511 0.357676
H9    H     H_    0.122957 0.937818 0.646015 0.374409
H10   H     H_    0.866897 0.078573 0.671993 0.392570
H11   H     H_    0.869729 0.919396 0.329587 0.399348
H12   H     H_    0.082381 0.378797 0.250205 0.208663
H13   H     H_    0.131741 0.083186 0.329815 0.395340
H14   H     H_    0.669201 0.628014 0.196760 0.387021
H15   H     H_    0.324180 0.434147 0.829997 0.394046
H16   H     H_    0.864185 0.385435 0.803715 0.366872
H17   H     H_    0.217453 0.469482 0.076827 0.410173
H18   H     H_    0.988817 0.758609 0.733694 0.161255
H19   H     H_    0.082369 0.752332 0.630961 0.183406
H20   H     H_    0.099460 0.789661 0.778339 0.230015
N1    N     N_R   0.500000 0.750030 0.500000 -0.206093
N2    N     N_R   0.500000 0.249970 0.500000 -0.219100
O1    O     O_R   0.367850 0.580280 0.500030 -0.571578
O2    O     O_2   0.714268 0.438171 0.207860 -0.205081
O3    O     O_3   0.688814 0.610144 0.276151 -0.537795
O4    O     O_2   0.277785 0.628462 0.758214 -0.209410
O5    O     O_2   0.174092 0.510704 0.838130 -0.253136
O6    O     O_3   0.320153 0.452121 0.746658 -0.547927
O7    O     O_2   0.716636 0.566328 0.789088 -0.246594
O8    O     O_2   0.693600 0.403609 0.728391 -0.284572
O9    O     O_3   0.838773 0.443718 0.837700 -0.518528
O10   O     O_2   0.317276 0.539197 0.254671 -0.316495
O11   O     O_2   0.287940 0.370065 0.254525 -0.266233
O12   O     O_R   0.632150 0.419720 0.499970 -0.574175
O13   O     O_3   0.179002 0.482553 0.145540 -0.535407
O14   O     O_3   0.078424 0.647899 0.760306 -0.537245
O15   O     O_3   0.904362 0.377688 0.222359 -0.548929
O16   O     O_2   0.714134 0.703576 0.622256 -0.221741
O17   O     O_2   0.679218 0.853579 0.712877 -0.254503
O18   O     O_3   0.574901 0.716799 0.760277 -0.521755
O19   O     O_2   0.284660 0.294994 0.623508 -0.172145
O20   O     O_2   0.319423 0.144856 0.714062 -0.234397
O21   O     O_3   0.423153 0.281415 0.759878 -0.509251
O22   O     O_2   0.286677 0.704008 0.375445 -0.203546
O23   O     O_R   0.632150 0.580280 0.499970 -0.556862
O24   O     O_2   0.321044 0.854781 0.285352 -0.240311
O25   O     O_3   0.426395 0.718643 0.238673 -0.524871
O26   O     O_2   0.715828 0.296159 0.378811 -0.178524
O27   O     O_2   0.682723 0.147272 0.286491 -0.228880
O28   O     O_3   0.579563 0.284826 0.239489 -0.484232
O29   O     O_2   0.177323 0.874567 0.449408 -0.204035
O30   O     O_2   0.263548 0.796461 0.602496 -0.272019
O31   O     O_3   0.187056 0.954196 0.652581 -0.480905
O32   O     O_2   0.823758 0.125837 0.452081 -0.173987
O33   O     O_2   0.735286 0.202442 0.605111 -0.269398
O34   O     O_R   0.367850 0.419720 0.500030 -0.556610
O35   O     O_3   0.811219 0.044090 0.654174 -0.472450
O36   O     O_2   0.823122 0.872747 0.549278 -0.202396
O37   O     O_2   0.737236 0.796384 0.395554 -0.248952
O38   O     O_3   0.813820 0.954287 0.346920 -0.464338
O39   O     O_2   0.176530 0.126576 0.550392 -0.188539
O40   O     O_2   0.263405 0.204743 0.396893 -0.262626
O41   O     O_3   0.187117 0.047583 0.347245 -0.465325
O42   O     O_R   0.500010 0.580270 0.334450 -0.564635
O43   O     O_R   0.499990 0.419730 0.665550 -0.564901
O44   O     O_R   0.499990 0.580270 0.665550 -0.568584
O45   O     O_R   0.500010 0.419730 0.334450 -0.579770
O46   O     O_2   0.831397 0.554560 0.169664 -0.250179
S1    S     S_3+6 0.762211 0.521850 0.256311 0.089537
S2    S     S_3+6 0.760018 0.109379 0.551814 0.131109
S3    S     S_3+6 0.761004 0.889389 0.448861 0.133493
S4    S     S_3+6 0.239291 0.111117 0.449459 0.127457
S5    S     S_3+6 0.238465 0.532483 0.740400 0.085042
S6    S     S_3+6 0.761733 0.480221 0.741308 0.060565
S7    S     S_3+6 0.245734 0.465931 0.261416 0.038570
S8    S     S_3+6 0.639151 0.767733 0.657738 0.123265
S9    S     S_3+6 0.359778 0.230784 0.657968 0.134157
S10   S     S_3+6 0.361435 0.768667 0.340880 0.135023
S11   S     S_3+6 0.641376 0.232549 0.342556 0.146564
S12   S     S_3+6 0.239500 0.890083 0.549817 0.103600
Zn1   Zn    Zn3+2 0.500000 0.607200 0.500000 1.158280
Zn2   Zn    Zn3+2 0.500000 0.392800 0.500000 1.138821

loop_
_geom_bond_atom_site_label_1
_geom_bond_atom_site_label_2
_ccdc_geom_bond_type
C33   H18   S    
O4    S5    D    
C12   O12   A    
C27   C29   A    
O40   S4    D    
H15   O6    S    
H14   O3    S    
C38   O14   S    
O8    S6    D    
O39   S4    D    
O10   S7    D    
C12   O23   A    
C39   O15   S    
C19   C21   T    
C24   C26   A    
C5    C11   A    
C4    N2    A    
O46   S1    D    
N1    Zn1   S    
C35   H2    S    
C16   O45   A    
C32   C34   A    
C11   C15   A    
C16   O42   A    
C7    C14   A    
O27   S11   D    
C22   C25   A    
C7    C40   A    
C4    S11   S    
O23   Zn1   S    
O31   S12   S    
C35   H3    S    
C9    C10   A    
O6    S5    S    
H16   O9    S    
C24   S5    S    
C33   H19   S    
H8    O28   S    
O17   S8    D    
C36   H1    S    
O29   S12   D    
C11   S12   S    
C1    O1    A    
O1    Zn1   S    
C2    S9    S    
C3    N1    A    
C14   S3    S    
O16   S8    D    
O7    S6    D    
O18   S8    S    
O20   S9    D    
O25   S10   S    
C4    C6    A    
C37   H12   S    
O42   Zn1   S    
C35   O15   S    
C24   C34   A    
C40   N1    A    
C30   C37   A    
O41   S4    S    
H7    O25   S    
C5    C9    A    
C13   S2    S    
C3    S10   S    
C17   O43   A    
C33   O14   S    
C31   C32   A    
C29   C36   A    
C29   C31   A    
C22   S1    S    
O37   S3    D    
O24   S10   D    
C16   C18   S    
O26   S11   D    
C35   H4    S    
O3    S1    S    
O19   S9    D    
C8    C10   A    
O12   Zn2   S    
C8    C15   A    
C1    C26   S    
O13   S7    S    
N2    Zn2   S    
C28   S7    S    
H11   O38   S    
C7    C9    A    
H10   O35   S    
O36   S3    D    
C34   C38   A    
C15   S4    S    
C2    C8    A    
C3    C5    A    
O33   S2    D    
C6    C10   A    
C33   H20   S    
C26   C28   A    
O11   S7    D    
O34   Zn2   S    
C12   C25   S    
O28   S11   S    
H17   O13   S    
C36   C38   A    
O30   S12   D    
C37   C39   A    
C17   O44   A    
C6    C13   A    
C30   C32   A    
O35   S2    S    
O21   S9    S    
O2    S1    D    
C40   S8    S    
H13   O41   S    
C1    O34   A    
C23   C39   A    
O44   Zn1   S    
C28   C30   A    
C17   C19   S    
O32   S2    D    
O43   Zn2   S    
H5    O18   S    
C18   C20   T    
O5    S5    D    
H6    O21   S    
C27   S6    S    
C20   C21   S    
O9    S6    S    
O38   S3    S    
O22   S10   D    
C22   C23   A    
O45   Zn2   S    
H9    O31   S    
C13   C14   A    
C2    N2    A    
C23   C31   A    
C25   C27   A    
