data_mof_unit_7320.cif
_audit_creation_date              2012-12-10T17:23:43-0500
_audit_creation_method            fapswitch 2.2
_symmetry_space_group_name_H-M    P1
_symmetry_Int_Tables_number       1
_space_group_crystal_system       triclinic
_cell_length_a                    9.643168
_cell_length_b                    10.891043
_cell_length_c                    17.319505
_cell_angle_alpha                 94.077911
_cell_angle_beta                  85.967502
_cell_angle_gamma                 88.975167
_cell_volume                      1809.3906803

loop_
_atom_site_label
_atom_site_type_symbol
_atom_type_description
_atom_site_fract_x
_atom_site_fract_y
_atom_site_fract_z
_atom_type_partial_charge
C1    C     C_R   0.498385 0.737055 0.494935 0.866409
C2    C     C_R   0.378015 0.430521 0.772580 -0.260637
C3    C     C_R   0.385862 0.498575 0.152917 0.180851
C4    C     C_R   0.401972 0.477233 0.229335 -0.198652
C5    C     C_R   0.633176 0.565130 0.222086 0.139833
C6    C     C_R   0.619045 0.582358 0.142915 0.153945
C7    C     C_R   0.493683 0.551809 0.109557 -0.051792
C8    C     C_2   0.484202 0.474538 0.976521 -0.226666
C9    C     C_2   0.475941 0.572101 0.028479 0.206936
C10   C     C_R   0.522287 0.512274 0.265655 -0.148912
C11   C     C_R   0.233049 0.896484 0.493793 0.468570
C12   C     C_R   0.481978 0.502109 0.649618 0.850263
C13   C     C_R   0.119995 0.954386 0.538438 -0.191131
C14   C     C_R   0.138014 0.064552 0.582136 -0.131018
C15   C     C_R   0.262718 0.125469 0.573107 -0.139462
C16   C     C_R   0.376949 0.068094 0.528545 0.000535
C17   C     C_R   0.367874 0.943203 0.502131 0.069260
C18   C     C_R   0.493559 0.871495 0.489920 -0.130692
C19   C     C_R   0.620654 0.930965 0.488797 -0.193617
C20   C     C_R   0.626185 0.057710 0.499652 0.167741
C21   C     C_R   0.502638 0.129182 0.514049 -0.128678
C22   C     C_R   0.873837 0.343955 0.390603 -0.147419
C23   C     C_R   0.500837 0.263243 0.506180 0.786383
C24   C     C_R   0.953198 0.266927 0.336383 0.168020
C25   C     C_R   0.097144 0.263216 0.338330 0.124045
C26   C     C_R   0.159944 0.339109 0.393032 -0.199262
C27   C     C_R   0.082872 0.422047 0.446855 0.144560
C28   C     C_R   0.934089 0.422961 0.446462 0.102344
C29   C     C_R   0.915796 0.578279 0.548770 0.474161
C30   C     C_R   0.064350 0.576343 0.550619 0.119409
C31   C     C_R   0.518069 0.502822 0.350158 0.821786
C32   C     C_R   0.474663 0.503758 0.734009 -0.058724
C33   C     C_R   0.571554 0.571550 0.775776 0.417072
C34   C     C_R   0.573240 0.561177 0.855641 -0.205576
C35   C     C_R   0.477659 0.487069 0.893688 0.128568
C36   C     C_R   0.380558 0.421196 0.852242 -0.104640
Cu1   Cu    Cu3+1 0.359340 0.500010 0.500010 0.998834
Cu2   Cu    Cu3+1 0.640660 0.499990 0.499990 1.037665
H1    H     H_    0.717795 0.878456 0.481750 0.192174
H2    H     H_    0.018338 0.913858 0.539130 0.150138
H3    H     H_    0.053009 0.106619 0.619466 0.187413
H4    H     H_    0.271417 0.214227 0.604500 0.158949
H5    H     H_    0.764776 0.332831 0.389767 0.218851
H6    H     H_    0.316328 0.436297 0.261230 0.191774
H7    H     H_    0.269739 0.328697 0.391181 0.213779
H8    H     H_    0.307382 0.362636 0.881527 0.171961
H9    H     H_    0.304012 0.377444 0.740648 0.167803
H10   H     H_    0.498366 0.382391 0.995556 0.168052
H11   H     H_    0.649623 0.610112 0.888227 0.166276
N1    N     N_R   0.852190 0.498790 0.499250 -0.207558
N2    N     N_R   0.148060 0.498710 0.499220 -0.210510
O1    O     O_R   0.381190 0.680360 0.500010 -0.520435
O2    O     O_R   0.618760 0.680340 0.500000 -0.548478
O3    O     O_R   0.367440 0.500030 0.613600 -0.578778
O4    O     O_R   0.605010 0.500010 0.613590 -0.491144
O5    O     O_R   0.381240 0.319660 0.500000 -0.609568
O6    O     O_R   0.618810 0.319640 0.499990 -0.577146
O7    O     O_R   0.394990 0.499990 0.386410 -0.590524
O8    O     O_R   0.632560 0.499970 0.386400 -0.591384
O9    O     O_3   0.662325 0.647522 0.737687 -0.666908
H12   H     H_    0.722477 0.688195 0.775532 0.340351
I1    I     I_    0.786270 0.652288 0.071776 -0.189356
O10   O     O_3   0.211939 0.803622 0.437499 -0.681899
H13   H     H_    0.111437 0.785309 0.438649 0.325363
I2    I     I_    0.827704 0.124046 0.510090 -0.415029
O11   O     O_3   0.831983 0.658915 0.596850 -0.635320
H14   H     H_    0.880961 0.737223 0.604874 0.315641
I3    I     I_    0.846592 0.153410 0.256441 -0.192056
I4    I     I_    0.227029 0.141611 0.262593 -0.215442
I5    I     I_    0.147816 0.690447 0.641054 -0.311580
I6    I     I_    0.816786 0.629048 0.274058 -0.221708
I7    I     I_    0.419830 0.753871 0.001991 -0.199948
I8    I     I_    0.192227 0.452153 0.107962 -0.224064

loop_
_geom_bond_atom_site_label_1
_geom_bond_atom_site_label_2
_ccdc_geom_bond_type
C30   N2    A    
C8    H10   S    
C24   C25   A    
C36   H8    S    
C16   C21   A    
Cu2   N1    S    
C2    C36   A    
C2    H9    S    
C33   O9    S    
Cu2   O6    S    
Cu2   O8    S    
C3    C7    A    
Cu1   O7    S    
C9    I7    S    
C12   O3    A    
C32   C33   A    
C6    I1    S    
C19   C20   A    
C17   C18   A    
C1    C18   S    
C23   O5    A    
C5    I6    S    
C22   C28   A    
C13   C14   A    
C12   C32   S    
C11   C13   A    
C26   C27   A    
C29   C30   A    
Cu2   O2    S    
C19   H1    S    
C14   H3    S    
Cu1   N2    S    
Cu1   O3    S    
C31   O7    A    
C30   I5    S    
Cu1   Cu2   S    
C27   N2    A    
O11   H14   S    
C6    C7    A    
C11   O10   S    
C29   N1    A    
C21   C23   S    
Cu1   O1    S    
C5    C6    A    
C3    I8    S    
C1    O1    A    
C22   C24   A    
C12   O4    A    
C25   I4    S    
C15   C16   A    
C24   I3    S    
C4    C10   A    
C3    C4    A    
C16   C17   A    
C7    C9    S    
C20   I2    S    
C5    C10   A    
C33   C34   A    
C20   C21   A    
C29   O11   S    
C2    C32   A    
C34   C35   A    
C31   O8    A    
C27   C28   A    
C23   O6    A    
C18   C19   A    
C1    O2    A    
C14   C15   A    
O9    H12   S    
C13   H2    S    
C4    H6    S    
C26   H7    S    
C25   C26   A    
O10   H13   S    
Cu1   O5    S    
C28   N1    A    
C10   C31   S    
C8    C35   S    
C11   C17   A    
Cu2   O4    S    
C22   H5    S    
C15   H4    S    
C8    C9    D    
C34   H11   S    
C35   C36   A    
