data_mof_unit_51730.cif
_audit_creation_date              2013-03-05T15:51:18-0500
_audit_creation_method            fapswitch 2.2
_symmetry_space_group_name_H-M    P1
_symmetry_Int_Tables_number       1
_space_group_crystal_system       triclinic
_cell_length_a                    8.327245
_cell_length_b                    17.260727
_cell_length_c                    17.409033
_cell_angle_alpha                 97.813713
_cell_angle_beta                  96.880567
_cell_angle_gamma                 96.642616
_cell_volume                      2438.93647717

loop_
_atom_site_label
_atom_site_type_symbol
_atom_site_description
_atom_site_fract_x
_atom_site_fract_y
_atom_site_fract_z
_atom_type_partial_charge
P1    P     P_3+3 0.996700 0.679700 0.572930 0.496716
O1    O     O_2   0.169780 0.691990 0.551040 -0.282447
O2    O     O_3   0.896620 0.594010 0.545570 -0.389902
O3    O     O_3   0.384860 0.644020 0.410190 -0.364732
O4    O     O_2   0.375859 0.780678 0.499775 -0.369161
O5    O     O_3   0.086033 0.685636 0.670746 -0.520575
O6    O     O_3   0.322164 0.784471 0.350419 -0.519014
C1    C     C_3   0.382232 0.857849 0.248981 -0.983338
H1    H     H_    0.254394 0.860283 0.224018 0.247706
H2    H     H_    0.422048 0.908781 0.296412 0.242340
P2    P     P_3+3 0.328720 0.438370 0.322170 0.470078
P3    P     P_3+3 0.908362 0.599044 0.267201 0.449195
O7    O     O_2   0.160250 0.462050 0.312130 -0.363987
O8    O     O_3   0.957280 0.604490 0.369120 -0.354900
O9    O     O_2   0.013456 0.540988 0.228568 -0.380432
O10   O     O_3   0.296987 0.335779 0.295563 -0.566036
O11   O     O_3   0.987485 0.688558 0.240697 -0.511547
C2    C     C_3   0.872663 0.742424 0.240113 0.641691
H3    H     H_    0.747846 0.716230 0.246870 -0.011731
C3    C     C_3   0.864128 0.772887 0.160968 -0.404887
H4    H     H_    0.988054 0.798486 0.151697 0.205363
H5    H     H_    0.824495 0.721631 0.113696 0.134394
C4    C     C_3   0.747993 0.368198 0.293864 0.443302
H6    H     H_    0.638741 0.388576 0.315817 0.089000
H7    H     H_    0.853260 0.415725 0.309558 0.129250
C5    C     C_3   0.714729 0.347561 0.205149 -0.991284
H8    H     H_    0.604528 0.302929 0.187778 0.266350
H9    H     H_    0.694381 0.400711 0.178302 0.231455
H10   H     H_    0.820956 0.323396 0.182644 0.266247
Ba1   Ba    Ba6+2 0.160000 0.538340 0.465920 1.574608
C6    C     C_3   0.979156 0.689795 0.726008 0.665621
H11   H     H_    0.857431 0.661064 0.698510 0.058858
C7    C     C_3   0.983971 0.777269 0.759328 -1.113461
H12   H     H_    0.952308 0.811793 0.711780 0.243165
H13   H     H_    0.109008 0.801966 0.788398 0.271780
H14   H     H_    0.898821 0.785398 0.802994 0.243045
C8    C     C_3   0.237284 0.300005 0.355677 0.450211
H15   H     H_    0.117836 0.318755 0.365555 0.086101
H16   H     H_    0.324540 0.314757 0.410684 0.130918
C9    C     C_3   0.214871 0.211088 0.330419 -0.983262
H17   H     H_    0.125731 0.194650 0.276180 0.261538
H18   H     H_    0.168988 0.180209 0.376636 0.228984
H19   H     H_    0.333512 0.191502 0.319197 0.270498
P4    P     P_3+3 0.813590 0.320290 0.427010 0.462815
O12   O     O_2   0.640500 0.307960 0.448930 -0.354877
O13   O     O_3   0.913680 0.405980 0.454370 -0.416278
O14   O     O_3   0.425430 0.355970 0.589750 -0.389523
O15   O     O_3   0.782137 0.300394 0.324670 -0.565745
P5    P     P_3+3 0.885276 0.395018 0.732268 0.455299
O16   O     O_3   0.389690 0.539950 0.593560 -0.322206
O17   O     O_3   0.853010 0.395500 0.630820 -0.363355
O18   O     O_2   0.761518 0.442996 0.769912 -0.397151
O19   O     O_3   0.833352 0.299453 0.753055 -0.556537
Ba2   Ba    Ba6+2 0.650170 0.461650 0.534010 1.560121
P6    P     P_3+3 0.437979 0.746603 0.423853 0.468822
C10   C     C_3   0.397568 0.780521 0.281659 0.713337
H20   H     H_    0.530079 0.776009 0.292181 -0.031618
H21   H     H_    0.461407 0.864190 0.202806 0.233453
O20   O     O_3   0.420600 0.460050 0.406370 -0.400155
C11   C     C_3   0.568580 0.708847 0.732823 0.708424
H22   H     H_    0.674734 0.689079 0.763982 0.044659
C12   C     C_3   0.534025 0.782344 0.784636 -0.995877
H23   H     H_    0.636458 0.830961 0.790377 0.228547
H24   H     H_    0.420225 0.802854 0.759442 0.273920
H25   H     H_    0.518604 0.768418 0.844001 0.234503
P7    P     P_3+3 0.467488 0.554809 0.692267 0.472023
O21   O     O_2   0.650040 0.537900 0.687840 -0.396498
O22   O     O_3   0.434038 0.651674 0.726519 -0.551729
C13   C     C_3   0.915944 0.244419 0.711042 0.548188
H26   H     H_    0.026634 0.272282 0.690203 0.017667
C14   C     C_3   0.969021 0.185158 0.764467 -0.465397
H27   H     H_    0.058435 0.216687 0.814334 0.164405
H28   H     H_    0.862503 0.159444 0.789329 0.212264
P8    P     P_3+3 0.383491 0.253312 0.582665 0.422153
C15   C     C_3   0.420594 0.277404 0.735426 0.401853
H29   H     H_    0.304288 0.302423 0.725019 -0.036666
O23   O     O_2   0.494761 0.216380 0.526976 -0.385592
O24   O     O_3   0.436731 0.220127 0.672091 -0.578587
H30   H     H_    0.523148 0.326045 0.743189 0.162309
C16   C     C_3   0.420376 0.239287 0.810979 0.071694
H31   H     H_    0.316153 0.192074 0.802200 0.176524
C17   C     C_2   0.751629 0.726172 0.486236 -0.308163
C18   C     C_3   0.664000 0.774509 0.433470 0.091921
C19   C     C_2   0.716712 0.861909 0.456762 -0.207313
C20   C     C_2   0.860419 0.889014 0.502991 0.148434
C21   C     C_2   0.951629 0.831412 0.541777 -0.286435
C22   C     C_1   0.892633 0.755389 0.530246 0.215758
C23   C     C_R   0.116975 0.136970 0.523069 -0.286970
C24   C     C_R   0.173290 0.217785 0.539466 0.257119
C25   C     C_R   0.923678 0.247022 0.470569 0.313876
C26   C     C_R   0.867150 0.165849 0.452085 -0.279963
C27   C     C_R   0.961040 0.110187 0.480725 0.109234
C28   C     C_2   0.930454 0.974165 0.516192 -0.161167
C29   C     C_2   0.892799 0.025237 0.466365 -0.151446
C30   C     C_R   0.074447 0.272421 0.516100 -0.506216
H32   H     H_    0.805026 0.005520 0.414164 0.125748
H33   H     H_    0.066893 0.852085 0.579122 0.147993
H34   H     H_    0.196382 0.095602 0.541534 0.155854
H35   H     H_    0.018717 0.994557 0.568168 0.137924
H36   H     H_    0.643316 0.901407 0.429749 0.126028
H37   H     H_    0.749549 0.146333 0.416784 0.157237
H38   H     H_    0.704554 0.663955 0.478898 0.152962
H39   H     H_    0.120061 0.334727 0.528698 0.170979
H40   H     H_    0.534395 0.534877 0.856532 0.141120
H41   H     H_    0.711384 0.572424 0.109325 0.142650
C31   C     C_R   0.592474 0.534452 0.282361 -0.482592
C32   C     C_R   0.438743 0.491564 0.254827 0.329357
C33   C     C_R   0.378932 0.481630 0.174584 -0.251180
C34   C     C_R   0.474837 0.512671 0.121809 0.086747
C35   C     C_R   0.633262 0.551624 0.149801 -0.296342
C36   C     C_R   0.692589 0.561522 0.230061 0.193681
C37   C     C_R   0.413204 0.504622 0.833763 -0.289844
C38   C     C_R   0.359794 0.494091 0.752865 0.301896
C39   C     C_R   0.093985 0.436764 0.774725 0.268940
C40   C     C_R   0.145329 0.448015 0.855792 -0.314184
C41   C     C_R   0.306625 0.481476 0.885720 0.092880
C42   C     C_1   0.363384 0.492614 0.969261 -0.009574
C43   C     C_1   0.413505 0.501719 0.038756 -0.016754
C44   C     C_R   0.201797 0.458979 0.723802 -0.416517
H42   H     H_    0.060813 0.430543 0.894975 0.152899
H43   H     H_    0.260075 0.448122 0.153158 0.154723
H44   H     H_    0.640161 0.540788 0.343844 0.161123
H45   H     H_    0.159418 0.453935 0.661830 0.162346
N1    N     N_2   0.316291 0.712450 0.226416 -0.060228
H46   H     H_    0.310387 0.661000 0.250575 0.216064
C45   C     C_3   0.364784 0.701476 0.148989 -0.983874
H47   H     H_    0.294139 0.646811 0.114368 0.276428
H48   H     H_    0.496663 0.695941 0.152862 0.231983
H49   H     H_    0.336951 0.751010 0.117423 0.262689
N2    N     N_2   0.038951 0.646764 0.787563 -0.095182
H50   H     H_    0.160104 0.664034 0.810258 0.209527
C46   C     C_3   0.935884 0.632034 0.846727 -0.989311
H51   H     H_    0.815347 0.600109 0.819577 0.277464
H52   H     H_    0.920724 0.688127 0.882876 0.248652
H53   H     H_    0.993430 0.594355 0.885897 0.267403
C47   C     C_3   0.591531 0.728811 0.651727 -0.827041
H54   H     H_    0.687915 0.779502 0.655275 0.179988
H55   H     H_    0.623169 0.677141 0.614311 0.209508
H56   H     H_    0.475844 0.744757 0.624231 0.294899
N3    N     N_2   0.748670 0.829521 0.155498 -0.104348
H57   H     H_    0.649242 0.810773 0.113019 0.190529
C48   C     C_3   0.817755 0.910430 0.155729 -0.887091
H58   H     H_    0.720193 0.949011 0.158945 0.246565
H59   H     H_    0.872458 0.915702 0.101198 0.248781
H60   H     H_    0.912631 0.930808 0.207267 0.261024
C49   C     C_3   0.798922 0.200928 0.640676 -0.715618
H61   H     H_    0.763955 0.243534 0.601908 0.271901
H62   H     H_    0.856761 0.155358 0.608026 0.193420
H63   H     H_    0.690084 0.169958 0.659351 0.264075
N4    N     N_2   0.038699 0.122014 0.721572 -0.098490
H64   H     H_    0.135857 0.140429 0.693959 0.194424
C50   C     C_3   0.061000 0.054868 0.761233 -0.869019
H65   H     H_    0.110792 0.009648 0.722552 0.238910
H66   H     H_    0.942010 0.027964 0.774951 0.257617
H67   H     H_    0.147465 0.073043 0.816227 0.245119
C51   C     C_3   0.399550 0.299044 0.881071 -1.005367
H68   H     H_    0.405261 0.271582 0.935304 0.274686
H69   H     H_    0.496657 0.350509 0.889674 0.277915
H70   H     H_    0.278132 0.318734 0.871388 0.241819
C52   C     C_3   0.571751 0.199706 0.830399 -0.806890
H71   H     H_    0.556334 0.166492 0.879995 0.224170
H72   H     H_    0.587854 0.156492 0.779648 0.242032
H73   H     H_    0.681306 0.244307 0.848234 0.280220
C53   C     C_3   0.929786 0.809671 0.308049 -0.847612
H74   H     H_    0.835670 0.849913 0.313346 0.204444
H75   H     H_    0.952096 0.785066 0.363400 0.251336
H76   H     H_    0.045032 0.844234 0.299452 0.258804

loop_
_geom_bond_atom_site_label_1
_geom_bond_atom_site_label_2
_geom_bond_distance
_ccdc_geom_bond_type
P1    C22   1.838898 S    
P7    O22   1.762114 S    
H41   C35   1.083141 S    
C28   C29   1.354480 D    
P7    C38   1.823574 S    
O6    P6    1.751944 S    
C33   H43   1.083377 S    
O19   C13   1.411770 S    
C1    C10   1.532959 S    
C39   C40   1.404981 A    
C25   C30   1.391572 A    
C20   C21   1.501916 S    
C33   C34   1.407015 A    
Ba1   Ba2   4.509498 S    
C5    H8    1.110702 S    
O16   Ba2   2.905566 S    
C18   C19   1.506899 S    
C10   N1    1.454754 S    
P8    C24   1.821088 S    
N1    C45   1.447255 S    
C51   H68   1.111086 S    
N3    C48   1.446845 S    
C2    H3    1.110674 S    
C8    C9    1.521267 S    
C46   H53   1.109954 S    
O2    Ba2   2.857108 S    
C16   C52   1.526418 S    
C14   N4    1.452937 S    
C31   C32   1.397785 A    
C17   C22   1.327569 D    
C7    H14   1.106123 S    
C41   C42   1.453889 S    
C11   C12   1.530144 S    
P1    O1    1.533088 D    
C4    C5    1.521172 S    
C13   C14   1.539950 S    
C21   H33   1.086025 S    
C35   C36   1.405606 A    
C12   H24   1.111741 S    
C1    H21   1.107731 S    
C38   C44   1.388149 A    
C20   C28   1.493603 S    
C9    H19   1.110892 S    
C23   C27   1.407972 A    
P2    Ba1   3.382808 S    
C30   H39   1.081844 S    
C1    H1    1.108304 S    
P5    O17   1.755619 S    
P8    O23   1.545531 D    
P3    O11   1.750829 S    
C4    H6    1.103751 S    
C6    C7    1.536235 S    
C15   C16   1.548697 S    
C11   C47   1.526476 S    
C2    C3    1.536914 S    
C39   C44   1.393715 A    
O10   C8    1.397507 S    
Ba2   O20   2.747050 S    
C9    H18   1.104797 S    
P7    O21   1.589532 D    
Ba1   O16   2.747615 S    
C13   C49   1.519365 S    
C48   H60   1.110393 S    
C31   H44   1.082416 S    
C2    C53   1.528579 S    
O6    C10   1.414087 S    
C26   H37   1.083220 S    
C47   H56   1.104373 S    
P2    O20   1.545963 S    
C37   C38   1.405684 A    
P4    O13   1.592897 S    
C34   C43   1.453794 S    
C16   C51   1.527355 S    
C49   H62   1.097917 S    
C31   C36   1.396343 A    
C53   H76   1.107044 S    
P1    O5    1.759289 S    
C19   H36   1.083621 S    
C52   H73   1.107256 S    
O7    Ba1   2.818776 S    
N3    H57   1.031198 S    
C47   H55   1.107532 S    
C26   C27   1.411940 A    
H40   C37   1.083631 S    
C21   C22   1.326332 D    
C46   H51   1.105494 S    
Ba2   O21   2.818993 S    
C45   H49   1.108964 S    
O8    Ba1   2.698290 S    
C11   H22   1.094203 S    
P1    O2    1.592865 S    
C52   H72   1.107831 S    
C24   C30   1.391384 A    
O2    Ba1   2.917239 S    
N2    C46   1.447299 S    
C15   H29   1.110555 S    
C8    H15   1.106352 S    
C49   H63   1.103926 S    
P2    O10   1.749144 S    
C6    H11   1.097930 S    
C50   H67   1.111012 S    
C32   C33   1.406181 A    
P5    O18   1.545652 D    
Ba1   O20   2.906320 S    
O13   Ba2   2.918064 S    
C12   H23   1.110371 S    
C27   C29   1.486256 S    
C7    H12   1.108153 S    
C17   H38   1.084687 S    
C19   C20   1.354979 D    
C29   H32   1.084016 S    
O16   P7    1.735891 S    
O14   Ba2   2.810346 S    
C46   H52   1.109513 S    
C9    H17   1.110679 S    
C3    H5    1.112796 S    
O12   Ba2   2.844519 S    
C40   H42   1.083258 S    
P3    O9    1.543711 D    
O3    P6    1.751160 S    
P2    C32   1.847245 S    
N4    C50   1.446073 S    
C10   H20   1.110203 S    
P6    C18   1.869570 S    
O5    C6    1.387074 S    
C37   C41   1.404994 A    
P4    C25   1.837726 S    
P4    O12   1.533410 D    
C14   H28   1.106457 S    
C49   H61   1.103874 S    
C28   H35   1.084922 S    
C53   H74   1.109533 S    
C45   H48   1.108143 S    
C4    O15   1.396168 S    
C12   H25   1.111106 S    
C3    H4    1.113577 S    
N4    H64   1.030492 S    
O4    P6    1.543792 D    
C51   H70   1.104740 S    
O14   P8    1.750448 S    
C50   H66   1.111255 S    
C16   H31   1.100657 S    
C44   H45   1.082678 S    
C6    N2    1.456736 S    
C5    H9    1.105612 S    
O11   C2    1.408798 S    
Ba1   O13   2.856463 S    
O1    Ba1   2.844071 S    
O17   Ba2   2.698994 S    
C52   H71   1.111200 S    
C3    N3    1.452540 S    
C53   H75   1.109083 S    
N2    H50   1.032312 S    
P3    O8    1.759427 S    
C14   H27   1.107763 S    
C8    H16   1.110854 S    
P4    O15   1.749803 S    
C42   C43   1.214386 T    
P2    O7    1.503014 D    
C25   C26   1.405971 A    
C45   H47   1.109795 S    
P5    O19   1.753183 S    
C51   H69   1.110882 S    
P1    Ba1   3.378140 S    
C7    H13   1.111021 S    
P5    C39   1.828589 S    
C48   H59   1.111102 S    
C4    H7    1.109652 S    
C13   H26   1.112448 S    
C15   O24   1.407488 S    
O3    Ba1   2.810888 S    
P4    Ba2   3.378604 S    
C23   C24   1.398411 A    
C11   O22   1.387956 S    
C5    H10   1.110815 S    
C1    H2    1.110948 S    
C17   C18   1.503683 S    
P8    O24   1.756193 S    
C48   H58   1.110207 S    
C47   H54   1.106579 S    
C50   H65   1.110618 S    
C34   C35   1.407703 A    
C15   H30   1.108185 S    
P3    C36   1.845140 S    
C23   H34   1.082188 S    
C40   C41   1.407173 A    
N1    H46   1.031685 S    
