data_mof_unit_18837.cif
_audit_creation_date              2012-12-10T20:51:42-0500
_audit_creation_method            fapswitch 2.2
_symmetry_space_group_name_H-M    P1
_symmetry_Int_Tables_number       1
_space_group_crystal_system       triclinic
_cell_length_a                    8.100814
_cell_length_b                    8.934295
_cell_length_c                    16.638349
_cell_angle_alpha                 89.515352
_cell_angle_beta                  95.103519
_cell_angle_gamma                 89.983061
_cell_volume                      1199.38403561

loop_
_atom_site_label
_atom_site_type_symbol
_atom_type_description
_atom_site_fract_x
_atom_site_fract_y
_atom_site_fract_z
_atom_type_partial_charge
C1    C     C_R   0.499983 0.217962 0.499993 0.936221
C2    C     C_R   0.500017 0.782038 0.500007 0.936218
C3    C     C_R   0.522519 0.497174 0.654424 0.909255
C4    C     C_R   0.477481 0.502828 0.345576 0.909255
C5    C     C_R   0.538223 0.475906 0.741669 -0.151112
C6    C     C_R   0.461778 0.524107 0.258332 -0.151115
C7    C     C_R   0.422865 0.381118 0.773693 -0.307543
C8    C     C_R   0.577146 0.618892 0.226311 -0.307539
C9    C     C_R   0.425760 0.358294 0.855941 0.368661
C10   C     C_R   0.574253 0.641726 0.144064 0.368655
C11   C     C_R   0.543996 0.431559 0.907525 0.204280
C12   C     C_R   0.456010 0.568477 0.092476 0.204292
C13   C     C_R   0.672682 0.515320 0.876465 0.127582
C14   C     C_R   0.327315 0.484722 0.123534 0.127591
C15   C     C_R   0.666953 0.542594 0.792427 0.142184
C16   C     C_R   0.333041 0.457437 0.207570 0.142180
C17   C     C_1   0.499998 0.065182 0.499996 -0.180643
C18   C     C_1   0.500002 0.934818 0.500004 -0.180642
H1    H     H_    0.671781 0.674316 0.265548 0.206828
H2    H     H_    0.328234 0.325683 0.734458 0.206826
N1    N     N_1   0.073640 0.500030 0.499990 -0.029674
N2    N     N_1   0.926360 0.499970 0.500010 -0.029674
N3    N     N_2   0.519872 0.435883 0.989973 -0.126497
N4    N     N_2   0.480137 0.564156 0.010030 -0.126501
O1    O     O_R   0.636850 0.285340 0.500000 -0.609503
O2    O     O_R   0.363150 0.714660 0.500000 -0.609503
O3    O     O_R   0.363100 0.285350 0.500000 -0.616269
O4    O     O_R   0.636900 0.714650 0.500000 -0.616270
O5    O     O_R   0.652140 0.498630 0.616140 -0.614216
O6    O     O_R   0.347860 0.501370 0.383860 -0.614216
O7    O     O_R   0.378390 0.498650 0.616130 -0.616510
O8    O     O_R   0.621610 0.501350 0.383870 -0.616510
Zn1   Zn    Zn3+2 0.682780 0.499990 0.500010 0.993666
Zn2   Zn    Zn3+2 0.317220 0.500010 0.499990 0.993666
Cl1   Cl    Cl    0.726028 0.757539 0.106724 -0.605719
Cl2   Cl    Cl    0.273995 0.242477 0.893286 -0.605709
C19   C     C_3   0.815150 0.572088 0.932801 -0.749729
H3    H     H_    0.814874 0.523624 0.994342 0.263421
H4    H     H_    0.934563 0.538819 0.910153 0.239242
H5    H     H_    0.808784 0.695822 0.937003 0.278300
C20   C     C_3   0.184841 0.427975 0.067195 -0.749737
H6    H     H_    0.185127 0.476438 0.005654 0.263415
H7    H     H_    0.191186 0.304240 0.062991 0.278300
H8    H     H_    0.065432 0.461258 0.089842 0.239250
C21   C     C_3   0.791619 0.645058 0.756947 -0.791119
H9    H     H_    0.867364 0.710824 0.802627 0.244874
H10   H     H_    0.877618 0.577875 0.723396 0.255317
H11   H     H_    0.726026 0.728018 0.715480 0.228693
C22   C     C_3   0.208364 0.354979 0.243046 -0.791108
H12   H     H_    0.132612 0.289225 0.197364 0.244873
H13   H     H_    0.273948 0.272008 0.284510 0.228696
H14   H     H_    0.122372 0.422165 0.276599 0.255317

loop_
_geom_bond_atom_site_label_1
_geom_bond_atom_site_label_2
_ccdc_geom_bond_type
C9    Cl2   S    
C1    O1    A    
N3    N4    D    
C7    C9    A    
C19   H3    S    
C2    C18   S    
C11   C13   A    
C20   H6    S    
C12   N4    S    
C13   C19   S    
C9    C11   A    
C22   H14   S    
O8    Zn1   S    
C21   H10   S    
C17   C18   T    
O7    Zn2   S    
C2    O2    A    
N1    N2    T    
C3    O7    A    
C20   H7    S    
C3    O5    A    
C4    O8    A    
C10   C12   A    
C14   C20   S    
C11   N3    S    
C20   H8    S    
C12   C14   A    
O4    Zn1   S    
C22   H12   S    
C19   H5    S    
C5    C7    A    
C13   C15   A    
O3    Zn2   S    
C10   Cl1   S    
C14   C16   A    
C5    C15   A    
C4    C6    S    
C2    O4    A    
C15   C21   S    
C6    C16   A    
C8    H1    S    
O5    Zn1   S    
C16   C22   S    
C19   H4    S    
C7    H2    S    
C21   H11   S    
C1    O3    A    
N2    Zn1   S    
O6    Zn2   S    
C6    C8    A    
N1    Zn2   S    
C3    C5    S    
C21   H9    S    
C1    C17   S    
O2    Zn2   S    
C8    C10   A    
C4    O6    A    
O1    Zn1   S    
C22   H13   S    
