data_mof_unit_32640.cif
_audit_creation_date              2012-12-10T20:06:59-0500
_audit_creation_method            fapswitch 2.2
_symmetry_space_group_name_H-M    P1
_symmetry_Int_Tables_number       1
_space_group_crystal_system       triclinic
_cell_length_a                    19.263664
_cell_length_b                    18.438463
_cell_length_c                    10.682864
_cell_angle_alpha                 90.069836
_cell_angle_beta                  89.991972
_cell_angle_gamma                 90.088154
_cell_volume                      3794.46428597

loop_
_atom_site_label
_atom_site_type_symbol
_atom_type_description
_atom_site_fract_x
_atom_site_fract_y
_atom_site_fract_z
_atom_type_partial_charge
C1    C     C_R   0.365530 0.500017 0.501771 0.845637
C2    C     C_R   0.634465 0.500122 0.502303 0.848124
C3    C     C_R   0.709477 0.500923 0.516109 -0.047856
C4    C     C_R   0.290448 0.500656 0.514004 -0.043246
C5    C     C_R   0.963798 0.552063 0.474852 -0.172207
C6    C     C_R   0.036150 0.459233 0.635351 -0.172788
C7    C     C_R   0.035538 0.551965 0.473790 -0.173745
C8    C     C_R   0.964077 0.459218 0.636192 -0.172320
C9    C     C_R   0.071967 0.505334 0.553478 0.099850
C10   C     C_R   0.927844 0.505443 0.555424 0.106430
C11   C     C_R   0.528547 0.725963 0.401810 0.019796
C12   C     C_R   0.471613 0.273904 0.401664 0.019495
C13   C     C_R   0.471810 0.726075 0.598446 0.035358
C14   C     C_R   0.528026 0.274044 0.598569 0.037603
C15   C     C_R   0.529084 0.802000 0.399853 -0.260680
C16   C     C_R   0.471061 0.197860 0.399696 -0.260520
C17   C     C_R   0.472067 0.802115 0.600895 -0.254358
C18   C     C_R   0.527749 0.198006 0.601004 -0.254849
C19   C     C_R   0.500757 0.841098 0.500467 0.138512
C20   C     C_R   0.499214 0.158888 0.500440 0.138446
C21   C     C_R   0.436710 0.960950 0.499086 -0.052503
C22   C     C_R   0.563263 0.039022 0.499441 -0.052443
C23   C     C_R   0.563708 0.961973 0.500305 -0.055527
C24   C     C_R   0.436263 0.038000 0.499913 -0.055509
C25   C     C_R   0.499542 0.077376 0.500013 -0.022191
C26   C     C_R   0.500429 0.922604 0.500047 -0.022269
C27   C     C_R   0.500076 0.499948 0.260450 0.883707
C28   C     C_R   0.499909 0.500048 0.739567 0.879427
C29   C     C_R   0.382049 0.553627 0.130104 -0.241333
C30   C     C_R   0.615777 0.441415 0.869988 -0.254912
C31   C     C_R   0.384115 0.558762 0.870762 -0.256717
C32   C     C_R   0.617534 0.445047 0.129398 -0.243181
C33   C     C_R   0.325490 0.584151 0.066658 -0.041613
C34   C     C_R   0.672950 0.412560 0.933657 -0.039339
C35   C     C_R   0.326621 0.586690 0.934896 -0.038504
C36   C     C_R   0.673814 0.414163 0.065493 -0.042021
C37   C     C_R   0.442064 0.529528 0.935067 0.062411
C38   C     C_R   0.558431 0.471613 0.065004 0.057090
C39   C     C_R   0.441414 0.527889 0.065347 0.056956
C40   C     C_R   0.557857 0.470505 0.934708 0.061856
C41   C     C_R   0.499991 0.500149 0.871889 -0.162675
C42   C     C_R   0.499974 0.499804 0.128142 -0.168689
C43   C     C_R   0.746607 0.435670 0.520856 -0.054209
C44   C     C_R   0.255715 0.567142 0.524180 -0.058447
C45   C     C_R   0.253275 0.435378 0.521321 -0.183895
C46   C     C_R   0.744149 0.567331 0.530528 -0.186284
C47   C     C_R   0.817979 0.436918 0.537896 -0.122492
C48   C     C_R   0.184571 0.568477 0.541000 -0.130841
C49   C     C_R   0.181827 0.436766 0.537506 -0.161030
C50   C     C_R   0.815306 0.568522 0.547682 -0.172440
C51   C     C_R   0.852497 0.503428 0.550071 0.105928
C52   C     C_R   0.147318 0.503378 0.546617 0.108396
H1    H     H_    0.379449 0.551543 0.231145 0.172426
H2    H     H_    0.618130 0.442052 0.768893 0.166113
H3    H     H_    0.381941 0.558857 0.769640 0.164427
H4    H     H_    0.620043 0.446519 0.230484 0.172720
H5    H     H_    0.720705 0.383837 0.510300 0.182992
H6    H     H_    0.283392 0.618241 0.519193 0.182982
H7    H     H_    0.279220 0.383455 0.514228 0.159296
H8    H     H_    0.716446 0.618404 0.528775 0.162719
H9    H     H_    0.846405 0.386269 0.538072 0.128495
H10   H     H_    0.158533 0.620325 0.548947 0.127068
H11   H     H_    0.153375 0.386065 0.539996 0.128665
H12   H     H_    0.841488 0.620241 0.557992 0.129868
H13   H     H_    0.936341 0.587032 0.410254 0.141672
H14   H     H_    0.063909 0.423339 0.697946 0.140300
H15   H     H_    0.062569 0.586845 0.408316 0.148621
H16   H     H_    0.936650 0.423229 0.699203 0.134907
H17   H     H_    0.550898 0.696096 0.324559 0.134608
H18   H     H_    0.449400 0.303672 0.324304 0.134467
H19   H     H_    0.449156 0.696299 0.675508 0.148228
H20   H     H_    0.550569 0.303910 0.675745 0.148746
H21   H     H_    0.551245 0.830142 0.320392 0.138913
H22   H     H_    0.449028 0.169616 0.320120 0.138933
H23   H     H_    0.449986 0.830359 0.680363 0.144064
H24   H     H_    0.549699 0.169868 0.680573 0.143966
N1    N     N_R   0.500000 0.689440 0.500000 -0.098960
N2    N     N_R   0.500000 0.310560 0.500000 -0.098880
O1    O     O_R   0.398180 0.560840 0.499970 -0.625424
O2    O     O_R   0.601820 0.439160 0.500030 -0.622828
O3    O     O_R   0.601820 0.560840 0.500030 -0.619694
O4    O     O_R   0.398180 0.439160 0.499970 -0.618261
O5    O     O_R   0.499990 0.560810 0.316770 -0.626123
O6    O     O_R   0.500010 0.439190 0.683230 -0.627821
O7    O     O_R   0.500010 0.560810 0.683230 -0.628067
O8    O     O_R   0.499990 0.439190 0.316770 -0.626802
Zn1   Zn    Zn3+2 0.500000 0.581210 0.500000 0.948447
Zn2   Zn    Zn3+2 0.500000 0.418790 0.500000 0.949877
C53   C     C_2   0.730747 0.381116 0.139494 0.944159
O9    O     O_2   0.749542 0.409480 0.237271 -0.652339
O10   O     O_R   0.761563 0.316445 0.099739 -0.796829
H25   H     H_    0.799105 0.299100 0.159047 0.337040
C54   C     C_2   0.267557 0.614925 0.860870 0.948828
O11   O     O_2   0.278548 0.653939 0.770527 -0.665533
O12   O     O_R   0.199516 0.595879 0.892609 -0.780704
H26   H     H_    0.163961 0.617896 0.833957 0.341403
C55   C     C_2   0.731919 0.384273 0.859145 0.948603
O13   O     O_2   0.720719 0.347686 0.765742 -0.665896
O14   O     O_R   0.800156 0.400584 0.893881 -0.781500
H27   H     H_    0.835576 0.378377 0.835108 0.333029
C56   C     C_2   0.267843 0.615666 0.141092 0.940240
O15   O     O_2   0.249596 0.586546 0.238441 -0.652295
O16   O     O_R   0.235634 0.679708 0.102197 -0.796764
H28   H     H_    0.197717 0.695976 0.161735 0.335312
C57   C     C_R   0.370197 0.919983 0.496996 0.129927
C58   C     C_R   0.352280 0.877823 0.392180 -0.145126
C59   C     C_R   0.291033 0.837044 0.392186 -0.134248
C60   C     C_R   0.247196 0.838327 0.496422 -0.096449
C61   C     C_R   0.264467 0.880527 0.600703 -0.105982
C62   C     C_R   0.325771 0.921233 0.601220 -0.149456
H29   H     H_    0.386001 0.876232 0.311092 0.128775
H30   H     H_    0.277651 0.804286 0.311543 0.149442
H31   H     H_    0.199893 0.806570 0.496433 0.127064
H32   H     H_    0.230525 0.881385 0.681427 0.137119
H33   H     H_    0.339066 0.953023 0.683115 0.124937
C63   C     C_R   0.629783 0.079971 0.497697 0.129740
C64   C     C_R   0.647905 0.121951 0.392949 -0.145414
C65   C     C_R   0.709192 0.162662 0.393224 -0.132919
C66   C     C_R   0.752862 0.161491 0.497664 -0.094904
C67   C     C_R   0.735379 0.119481 0.601890 -0.107055
C68   C     C_R   0.674036 0.078842 0.602137 -0.149198
H34   H     H_    0.614320 0.123442 0.311695 0.128902
H35   H     H_    0.722737 0.195272 0.312625 0.149035
H36   H     H_    0.800202 0.193187 0.497876 0.128373
H37   H     H_    0.769192 0.118711 0.682773 0.136791
H38   H     H_    0.660581 0.047186 0.683977 0.124997
C69   C     C_R   0.630739 0.922260 0.501749 0.134684
C70   C     C_R   0.649735 0.880930 0.606636 -0.145486
C71   C     C_R   0.712154 0.842356 0.606867 -0.138580
C72   C     C_R   0.756039 0.844988 0.502770 -0.113083
C73   C     C_R   0.737586 0.886244 0.398282 -0.132354
C74   C     C_R   0.675120 0.924743 0.397525 -0.148513
H39   H     H_    0.616109 0.878518 0.687793 0.124042
H40   H     H_    0.726480 0.810371 0.687694 0.130300
H41   H     H_    0.804313 0.815029 0.503051 0.122555
H42   H     H_    0.771580 0.888187 0.317686 0.129508
H43   H     H_    0.661043 0.956022 0.315649 0.123667
C75   C     C_R   0.369225 0.077696 0.500976 0.134683
C76   C     C_R   0.349984 0.119099 0.605810 -0.145311
C77   C     C_R   0.287509 0.157572 0.605755 -0.138657
C78   C     C_R   0.243819 0.154774 0.501412 -0.112876
C79   C     C_R   0.262527 0.113458 0.396960 -0.131898
C80   C     C_R   0.325046 0.075053 0.396497 -0.148865
H44   H     H_    0.383451 0.121625 0.687165 0.124007
H45   H     H_    0.272982 0.189598 0.686558 0.129960
H46   H     H_    0.195497 0.184647 0.501477 0.123443
H47   H     H_    0.228685 0.111386 0.316175 0.129932
H48   H     H_    0.339312 0.043705 0.314667 0.123687

loop_
_geom_bond_atom_site_label_1
_geom_bond_atom_site_label_2
_ccdc_geom_bond_type
C36   C53   S    
O5    Zn1   S    
C57   C62   A    
C54   O11   D    
C49   H11   S    
C28   O6    A    
C50   H12   S    
C59   H30   S    
C14   C18   A    
O12   H26   S    
C21   C26   A    
C70   C71   A    
C6    C9    A    
O1    Zn1   S    
C55   O13   D    
C66   H36   S    
C60   C61   A    
C15   C19   A    
C30   H2    S    
C3    C43   A    
C56   O15   D    
C33   C56   S    
C32   C36   A    
C38   C42   A    
C48   C52   A    
C75   C80   A    
O8    Zn2   S    
C20   C25   S    
C29   C33   A    
C28   C41   S    
C34   C55   S    
C63   C64   A    
C23   C26   A    
C19   C26   S    
C65   C66   A    
C11   N1    A    
C17   C19   A    
C69   C74   A    
C11   C15   A    
C12   C16   A    
C44   H6    S    
C22   C25   A    
C12   N2    A    
C59   C60   A    
C32   C38   A    
C53   O10   S    
C18   C20   A    
C4    C45   A    
C22   C63   S    
C56   O16   S    
O2    Zn2   S    
C9    C52   S    
C10   C51   S    
C5    C10   A    
C55   O14   S    
C39   C42   A    
C58   H29   S    
C35   C54   S    
C80   H48   S    
C13   N1    A    
C63   C68   A    
C30   C34   A    
O7    Zn1   S    
C77   C78   A    
C5    H13   S    
C73   H42   S    
O10   H25   S    
C5    C7    A    
C67   H37   S    
C6    C8    A    
C4    C44   A    
C24   C75   S    
C74   H43   S    
C31   C37   A    
C60   H31   S    
C27   O8    A    
C64   H34   S    
C76   H44   S    
C48   H10   S    
O14   H27   S    
C45   C49   A    
C16   C20   A    
C49   C52   A    
C29   C39   A    
C50   C51   A    
C30   C40   A    
C24   C25   A    
C66   C67   A    
O3    Zn1   S    
C78   H46   S    
C61   H32   S    
C40   C41   A    
C15   H21   S    
C72   H41   S    
C8    H16   S    
C78   C79   A    
C1    O1    A    
C31   C35   A    
C73   C74   A    
C28   O7    A    
C67   C68   A    
C23   C69   S    
C71   C72   A    
N2    Zn2   S    
C7    C9    A    
C12   H18   S    
C45   H7    S    
C18   H24   S    
C46   H8    S    
C22   C23   A    
C14   H20   S    
C79   H47   S    
O6    Zn2   S    
C77   H45   S    
C47   H9    S    
C47   C51   A    
C76   C77   A    
C11   H17   S    
C16   H22   S    
C13   H19   S    
C57   C58   A    
C46   C50   A    
C3    C46   A    
C13   C17   A    
C1    C4    S    
C27   O5    A    
C2    C3    S    
C1    O4    A    
C68   H38   S    
C37   C39   A    
C70   H39   S    
C38   C40   A    
C27   C42   S    
C54   O12   S    
C29   H1    S    
O4    Zn2   S    
C33   C35   A    
C72   C73   A    
C34   C36   A    
C65   H35   S    
C14   N2    A    
C37   C41   A    
C2    O2    A    
C75   C76   A    
C43   H5    S    
C7    H15   S    
C71   H40   S    
C44   C48   A    
C6    H14   S    
N1    Zn1   S    
C8    C10   A    
C58   C59   A    
C21   C24   A    
C61   C62   A    
O16   H28   S    
C17   H23   S    
C79   C80   A    
C2    O3    A    
C31   H3    S    
C53   O9    D    
C64   C65   A    
C43   C47   A    
C62   H33   S    
C32   H4    S    
C21   C57   S    
C69   C70   A    
