data_mof_unit_45535.cif
_audit_creation_date              2012-12-10T17:03:26-0500
_audit_creation_method            fapswitch 2.2
_symmetry_space_group_name_H-M    P1
_symmetry_Int_Tables_number       1
_space_group_crystal_system       triclinic
_cell_length_a                    14.992984
_cell_length_b                    11.046124
_cell_length_c                    10.160497
_cell_angle_alpha                 113.308927
_cell_angle_beta                  99.080648
_cell_angle_gamma                 93.886745
_cell_volume                      1510.20257102

loop_
_atom_site_label
_atom_site_type_symbol
_atom_type_description
_atom_site_fract_x
_atom_site_fract_y
_atom_site_fract_z
_atom_type_partial_charge
C1    C     C_R   0.495196 0.253032 0.437471 0.816823
C2    C     C_R   0.504804 0.746968 0.562529 0.816824
C3    C     C_R   0.029580 0.263307 0.452861 0.171808
C4    C     C_R   0.970419 0.736676 0.547134 0.171820
C5    C     C_2   0.491108 0.108348 0.396474 -0.006938
C6    C     C_2   0.508894 0.891652 0.603523 -0.006940
C7    C     C_2   0.522169 0.063780 0.500237 0.186839
C8    C     C_2   0.477834 0.936219 0.499758 0.186841
C9    C     C_2   0.508603 0.511347 0.081391 0.315137
C10   C     C_2   0.491396 0.488654 0.918609 0.315140
C11   C     C_R   0.329394 0.499365 0.499518 0.824429
C12   C     C_R   0.670606 0.500628 0.500479 0.824431
C13   C     C_R   0.827663 0.621707 0.569086 0.086693
C14   C     C_R   0.172339 0.378275 0.430920 0.086692
C15   C     C_R   0.767648 0.500825 0.500507 -0.072508
C16   C     C_R   0.232352 0.499161 0.499490 -0.072496
C17   C     C_R   0.800459 0.380437 0.428487 0.075870
C18   C     C_R   0.199537 0.619549 0.571494 0.075871
C19   C     C_R   0.895493 0.378845 0.457096 0.071125
C20   C     C_R   0.104503 0.621134 0.542882 0.071123
C21   C     C_R   0.953295 0.500293 0.499690 -0.089313
C22   C     C_R   0.046704 0.499687 0.500301 -0.089312
C23   C     C_R   0.917184 0.622250 0.541138 0.071219
C24   C     C_R   0.082816 0.377732 0.458860 0.071225
C25   C     C_R   0.934750 0.263633 0.451171 0.167954
C26   C     C_R   0.065244 0.736338 0.548789 0.167945
Cu1   Cu    Cu3+1 0.515770 0.521810 0.644910 0.913623
Cu2   Cu    Cu3+1 0.484230 0.478190 0.355090 0.913619
N1    N     N_2   0.460520 0.445420 0.137370 -0.139058
N2    N     N_2   0.539480 0.554580 0.862630 -0.139057
O1    O     O_R   0.508410 0.332340 0.577400 -0.584982
O2    O     O_R   0.491590 0.667660 0.422600 -0.584980
O3    O     O_R   0.481780 0.295500 0.332650 -0.573911
O4    O     O_R   0.518220 0.704500 0.667350 -0.573909
O5    O     O_R   0.383570 0.518390 0.622380 -0.588618
O6    O     O_R   0.616430 0.481610 0.377620 -0.588627
O7    O     O_R   0.356940 0.481550 0.377630 -0.575191
O8    O     O_R   0.643060 0.518450 0.622370 -0.575187
C27   C     C_3   0.797857 0.742809 0.679550 -0.882129
H1    H     H_    0.773302 0.716418 0.763531 0.237903
H2    H     H_    0.854995 0.825334 0.740524 0.247634
H3    H     H_    0.741725 0.777903 0.624881 0.215309
C28   C     C_3   0.202150 0.257170 0.320468 -0.882146
H4    H     H_    0.226699 0.283548 0.236475 0.237900
H5    H     H_    0.258287 0.222091 0.375145 0.215302
H6    H     H_    0.145016 0.174635 0.259509 0.247640
C29   C     C_3   0.735805 0.262228 0.310733 -0.851302
H7    H     H_    0.684969 0.223906 0.358280 0.218438
H8    H     H_    0.699043 0.293116 0.228067 0.251075
H9    H     H_    0.772333 0.180502 0.249851 0.241161
C30   C     C_3   0.264190 0.737775 0.689226 -0.851290
H10   H     H_    0.315034 0.776061 0.641663 0.218429
H11   H     H_    0.227663 0.819524 0.750065 0.241159
H12   H     H_    0.300942 0.706923 0.771931 0.251066
C31   C     C_3   0.879964 0.149149 0.464177 -0.870037
H13   H     H_    0.810916 0.168021 0.484372 0.243916
H14   H     H_    0.874674 0.056100 0.364172 0.234781
H15   H     H_    0.912404 0.134284 0.561277 0.233579
C32   C     C_3   0.120018 0.850782 0.535694 -0.870029
H16   H     H_    0.125304 0.943869 0.635656 0.234806
H17   H     H_    0.189068 0.831904 0.515512 0.243912
H18   H     H_    0.087569 0.865573 0.438548 0.233553
C33   C     C_3   0.074375 0.149184 0.469353 -0.880935
H19   H     H_    0.051692 0.056581 0.367933 0.232571
H20   H     H_    0.149723 0.169714 0.496587 0.245743
H21   H     H_    0.057069 0.132477 0.563387 0.234070
C34   C     C_3   0.925623 0.850818 0.530695 -0.880940
H22   H     H_    0.948280 0.943388 0.632159 0.232554
H23   H     H_    0.942952 0.867610 0.436724 0.234091
H24   H     H_    0.850275 0.830259 0.503403 0.245740
C35   C     C_3   0.388363 0.862893 0.393695 -0.839269
H25   H     H_    0.400538 0.796106 0.285396 0.249858
H26   H     H_    0.349585 0.800156 0.434015 0.216268
H27   H     H_    0.342903 0.935016 0.382826 0.225352
C36   C     C_3   0.611644 0.137103 0.606293 -0.839270
H28   H     H_    0.599473 0.203895 0.714593 0.249859
H29   H     H_    0.657102 0.064979 0.617162 0.225352
H30   H     H_    0.650420 0.199834 0.565965 0.216268
C37   C     C_3   0.540083 0.984117 0.763755 -0.906415
H31   H     H_    0.509675 0.942145 0.832207 0.247209
H32   H     H_    0.615489 0.996543 0.796318 0.238719
H33   H     H_    0.515525 0.081719 0.789237 0.238909
C38   C     C_3   0.459925 0.015884 0.236241 -0.906415
H34   H     H_    0.490333 0.057861 0.167793 0.247210
H35   H     H_    0.484487 0.918285 0.210760 0.238905
H36   H     H_    0.384519 0.003452 0.203672 0.238721
C39   C     C_3   0.412498 0.383989 0.815982 -0.783662
H37   H     H_    0.424189 0.284178 0.808182 0.187220
H38   H     H_    0.347484 0.415483 0.846455 0.194570
H39   H     H_    0.399903 0.364683 0.702354 0.276290
C40   C     C_3   0.587504 0.616006 0.184016 -0.783669
H40   H     H_    0.652516 0.584504 0.153540 0.194573
H41   H     H_    0.575818 0.715817 0.191815 0.187218
H42   H     H_    0.600098 0.635315 0.297645 0.276294
C41   C     C_3   0.606731 0.672946 0.940880 -0.538078
H43   H     H_    0.631137 0.704884 0.861226 0.233993
H44   H     H_    0.575586 0.758358 0.008429 0.167917
H45   H     H_    0.670120 0.652724 0.994946 0.168345
C42   C     C_3   0.393259 0.327066 0.059123 -0.538073
H46   H     H_    0.368856 0.295126 0.138779 0.233992
H47   H     H_    0.329871 0.347304 0.005074 0.168348
H48   H     H_    0.424393 0.241646 0.991561 0.167914

loop_
_geom_bond_atom_site_label_1
_geom_bond_atom_site_label_2
_ccdc_geom_bond_type
C39   H37   S    
C33   H20   S    
C7    C36   S    
C41   H43   S    
C31   H13   S    
C9    C40   S    
C41   H45   S    
C1    O3    A    
C7    C8    S    
C27   H2    S    
C1    C5    S    
C22   C24   A    
Cu2   N1    S    
C19   C21   A    
C5    C38   S    
Cu1   O8    S    
C1    O1    A    
C13   C23   A    
C2    O2    A    
C14   C24   A    
C11   O7    A    
C35   H27   S    
C29   H7    S    
C32   H18   S    
C27   H3    S    
C26   C32   S    
C9    N1    D    
C2    O4    A    
C33   H21   S    
C32   H16   S    
C21   C22   A    
Cu1   N2    S    
C3    C24   A    
C2    C6    S    
C28   H6    S    
C18   C30   S    
C29   H9    S    
Cu1   O4    S    
C10   C39   S    
C32   H17   S    
N1    C42   S    
Cu1   O1    S    
C34   H22   S    
C17   C29   S    
Cu2   O2    S    
C29   H8    S    
C27   H1    S    
C5    C7    D    
C4    C23   A    
C6    C8    D    
Cu1   O5    S    
C30   H10   S    
C30   H11   S    
C36   H28   S    
N2    C41   S    
C40   H41   S    
C36   H29   S    
C11   C16   S    
C10   N2    D    
C38   H34   S    
C12   C15   S    
C3    C25   A    
C38   H36   S    
C31   H14   S    
C28   H5    S    
C38   H35   S    
C20   C22   A    
Cu2   O3    S    
C13   C15   A    
C28   H4    S    
C14   C16   A    
C39   H39   S    
C12   O6    A    
C40   H40   S    
C37   H32   S    
C9    C10   S    
C15   C17   A    
C8    C35   S    
C42   H47   S    
C25   C31   S    
C33   H19   S    
C4    C34   S    
C37   H33   S    
C4    C26   A    
C41   H44   S    
C3    C33   S    
C42   H46   S    
C30   H12   S    
C34   H24   S    
C21   C23   A    
C35   H25   S    
C40   H42   S    
C6    C37   S    
C20   C26   A    
Cu2   O7    S    
C11   O5    A    
C17   C19   A    
C18   C20   A    
C12   O8    A    
C19   C25   A    
C36   H30   S    
C13   C27   S    
C37   H31   S    
C42   H48   S    
Cu2   O6    S    
C16   C18   A    
C31   H15   S    
C35   H26   S    
Cu1   Cu2   S    
C39   H38   S    
C34   H23   S    
C14   C28   S    
