data_mof_unit_61273.cif
_audit_creation_date              2013-03-05T17:03:54-0500
_audit_creation_method            fapswitch 2.2
_symmetry_space_group_name_H-M    P1
_symmetry_Int_Tables_number       1
_space_group_crystal_system       triclinic
_cell_length_a                    10.745189
_cell_length_b                    16.14532
_cell_length_c                    16.948175
_cell_angle_alpha                 88.479594
_cell_angle_beta                  90.304745
_cell_angle_gamma                 93.393913
_cell_volume                      2934.03506077

loop_
_atom_site_label
_atom_site_type_symbol
_atom_site_description
_atom_site_fract_x
_atom_site_fract_y
_atom_site_fract_z
_atom_type_partial_charge
O1    O     O_R   0.494530 0.422540 0.612660 -0.657866
O2    O     O_R   0.505470 0.577460 0.387340 -0.657870
O3    O     O_R   0.504350 0.561840 0.618900 -0.545888
O4    O     O_R   0.495650 0.438160 0.381100 -0.545809
C1    C     C_R   0.496078 0.489477 0.652570 0.985613
C2    C     C_R   0.503888 0.510521 0.347429 0.985583
O5    O     O_R   0.678330 0.430350 0.496870 -0.565321
O6    O     O_R   0.321670 0.569650 0.503130 -0.565368
O7    O     O_R   0.688150 0.569660 0.503110 -0.613199
O8    O     O_R   0.311850 0.430340 0.496890 -0.613230
C3    C     C_R   0.740028 0.500662 0.500625 0.980809
C4    C     C_R   0.259972 0.499337 0.499385 0.980861
Zn1   Zn    Zn3+2 0.493440 0.406980 0.495830 1.064542
Zn2   Zn    Zn3+2 0.506560 0.593020 0.504170 1.064548
C5    C     C_R   0.763652 0.676515 0.298562 -0.278870
C6    C     C_R   0.236314 0.323014 0.701139 -0.278669
H1    H     H_    0.721527 0.663069 0.241796 0.226308
H2    H     H_    0.278495 0.336313 0.757919 0.226525
C7    C     C_R   0.827814 0.615310 0.338078 0.345902
C8    C     C_R   0.172208 0.384351 0.661781 0.346069
C9    C     C_R   0.882734 0.630913 0.411918 -0.079383
C10   C     C_R   0.117214 0.368953 0.587929 -0.079285
C11   C     C_R   0.882890 0.711686 0.442805 0.216421
C12   C     C_R   0.116928 0.288260 0.556868 0.216464
C13   C     C_R   0.816842 0.773269 0.402486 0.247861
C14   C     C_R   0.182932 0.226541 0.597011 0.247905
C15   C     C_R   0.755345 0.755173 0.330447 0.180367
C16   C     C_R   0.244516 0.244422 0.669079 0.179985
C17   C     C_R   0.070346 0.558759 0.452582 0.404693
C18   C     C_R   0.929653 0.441249 0.547444 0.404606
C19   C     C_R   0.127337 0.497819 0.498241 -0.185592
C20   C     C_R   0.872663 0.502183 0.501778 -0.185567
C21   C     C_R   0.057574 0.437275 0.543993 0.012683
C22   C     C_R   0.942418 0.562711 0.456004 0.012827
C23   C     C_R   0.489410 0.483190 0.737864 -0.225617
C24   C     C_R   0.510380 0.516797 0.262132 -0.226089
C25   C     C_R   0.438387 0.545806 0.781848 0.440426
C26   C     C_R   0.561357 0.454194 0.218109 0.440248
C27   C     C_R   0.437857 0.538534 0.863194 -0.188474
C28   C     C_R   0.561695 0.461447 0.136763 -0.188662
C29   C     C_R   0.489319 0.470279 0.901753 0.159832
C30   C     C_R   0.510043 0.529654 0.098241 0.159684
C31   C     C_R   0.533752 0.406184 0.857980 0.429293
C32   C     C_R   0.465598 0.593722 0.142044 0.429480
C33   C     C_R   0.534304 0.412908 0.776241 -0.282112
C34   C     C_R   0.465264 0.587027 0.223785 -0.281676
N1    N     N_2   0.499421 0.465468 0.984440 -0.096751
N2    N     N_2   0.499852 0.534465 0.015560 -0.096823
H3    H     H_    0.601541 0.413169 0.103506 0.237209
H4    H     H_    0.398016 0.586835 0.896422 0.237168
H5    H     H_    0.572298 0.364021 0.742822 0.246088
H6    H     H_    0.427252 0.635886 0.257234 0.246236
N3    N     N_R   0.515300 0.716920 0.509720 -0.184130
N4    N     N_R   0.484700 0.283080 0.490280 -0.184140
C35   C     C_R   0.461583 0.760029 0.449369 -0.107673
C36   C     C_R   0.538395 0.239975 0.550643 -0.107902
C37   C     C_R   0.452253 0.846801 0.451724 0.357148
C38   C     C_R   0.547734 0.153203 0.548294 0.357115
C39   C     C_R   0.498444 0.890347 0.518175 0.212412
C40   C     C_R   0.501596 0.109654 0.481834 0.212382
C41   C     C_R   0.551462 0.844807 0.579226 -0.246155
C42   C     C_R   0.448615 0.155191 0.420766 -0.245999
C43   C     C_R   0.562418 0.758754 0.574157 0.396430
C44   C     C_R   0.437621 0.241242 0.425835 0.396337
N5    N     N_2   0.486245 0.977252 0.529434 -0.031427
N6    N     N_2   0.513800 0.022749 0.470580 -0.031485
H7    H     H_    0.577368 0.273406 0.600318 0.223064
H8    H     H_    0.422582 0.726601 0.399700 0.223077
H9    H     H_    0.587155 0.877126 0.630593 0.249794
H10   H     H_    0.412958 0.122866 0.369395 0.249844
N7    N     N_R   0.685465 0.815741 0.288414 0.255177
O9    O     O_R   0.590770 0.791794 0.244703 -0.309092
O10   O     O_R   0.723929 0.893698 0.285924 -0.205911
N8    N     N_R   0.314403 0.183735 0.710963 0.255013
O11   O     O_R   0.408674 0.207582 0.755069 -0.308679
O12   O     O_R   0.276379 0.105691 0.712862 -0.206281
Cl1   Cl    Cl    0.625749 0.103729 0.626199 -0.370635
Cl2   Cl    Cl    0.374193 0.896281 0.373843 -0.370557
N9    N     N_R   0.623565 0.716677 0.637606 0.248423
O13   O     O_R   0.615665 0.742936 0.709252 -0.279792
O14   O     O_R   0.708869 0.665874 0.622421 -0.296202
N10   N     N_R   0.376448 0.283303 0.362389 0.248437
O15   O     O_R   0.384248 0.256987 0.290752 -0.279697
O16   O     O_R   0.291196 0.334148 0.377583 -0.296281
Cl3   Cl    Cl    0.845743 0.520916 0.291317 -0.475587
Cl4   Cl    Cl    0.154436 0.478641 0.708755 -0.476161
N11   N     N_R   0.953803 0.732367 0.512764 0.264307
O17   O     O_R   0.955148 0.681168 0.573291 -0.281794
O18   O     O_R   0.027385 0.799331 0.513176 -0.214967
N12   N     N_R   0.045905 0.267789 0.486907 0.264356
O19   O     O_R   0.044750 0.319069 0.426432 -0.281650
O20   O     O_R   0.972024 0.200959 0.486456 -0.215162
Cl5   Cl    Cl    0.803351 0.870479 0.446195 -0.395065
Cl6   Cl    Cl    0.196190 0.129449 0.553020 -0.394781
Cl7   Cl    Cl    0.156788 0.626951 0.386094 -0.504838
Cl8   Cl    Cl    0.843208 0.373057 0.613931 -0.504703
Cl9   Cl    Cl    0.630659 0.367012 0.260686 -0.386971
Cl10  Cl    Cl    0.369180 0.632997 0.739218 -0.387166
Cl11  Cl    Cl    0.594692 0.318698 0.904687 -0.375356
Cl12  Cl    Cl    0.404391 0.681138 0.095377 -0.375192

loop_
_geom_bond_atom_site_label_1
_geom_bond_atom_site_label_2
_geom_bond_distance
_ccdc_geom_bond_type
C6    C16   1.401227 A    
C18   C20   1.402765 A    
N11   O17   1.300796 A    
C13   Cl5   1.767160 S    
N3    C43   1.377667 A    
C16   N8    1.439576 S    
C35   H8    1.081244 S    
C27   C29   1.406174 A    
C43   N9    1.433931 S    
O5    C3    1.283176 A    
N8    O12   1.301053 A    
O1    C1    1.289305 A    
C7    C9    1.403247 A    
C31   Cl11  1.759321 S    
C37   C39   1.415541 A    
C33   H5    1.083880 S    
C38   C40   1.415517 A    
C28   H3    1.083494 S    
C34   H6    1.083885 S    
C42   H10   1.083553 S    
C40   C42   1.392394 A    
O4    Zn1   1.995511 S    
C41   C43   1.406174 A    
C18   Cl8   1.780150 S    
C38   Cl1   1.759434 S    
C5    C15   1.401124 A    
C2    C24   1.448261 S    
C8    Cl4   1.757324 S    
C42   C44   1.406200 A    
C19   C21   1.413468 A    
C24   C34   1.402038 A    
O6    C4    1.283179 A    
C28   C30   1.406178 A    
C40   N6    1.434775 S    
C11   N11   1.441933 S    
C29   C31   1.397210 A    
O2    C2    1.289317 A    
C30   C32   1.397211 A    
C26   Cl9   1.766645 S    
C25   Cl10  1.766631 S    
C32   C34   1.386713 A    
N3    C35   1.366491 A    
C25   C27   1.380558 A    
N4    C36   1.366497 A    
C39   C41   1.392392 A    
N8    O11   1.301581 A    
O4    C2    1.285034 A    
C17   Cl7   1.780138 S    
C9    C22   1.488951 S    
C7    Cl3   1.757352 S    
C17   C22   1.381449 A    
C20   C22   1.413459 A    
C5    C7    1.393195 A    
O7    Zn2   2.009400 S    
C31   C33   1.386714 A    
N12   O20   1.301329 A    
N1    N2    1.244870 D    
C6    C8    1.393189 A    
Zn2   N3    2.001731 S    
C29   N1    1.405454 S    
C30   N2    1.405442 S    
O7    C3    1.276621 A    
C44   N10   1.433895 S    
O3    Zn2   1.995508 S    
O8    C4    1.276621 A    
C8    C10   1.403169 A    
C3    C20   1.423982 S    
N5    N6    1.249275 D    
N10   O16   1.296967 A    
C14   Cl6   1.767218 S    
C35   C37   1.412092 A    
C4    C19   1.423984 S    
C10   C12   1.417875 A    
O1    Zn1   2.002414 S    
C23   C33   1.402026 A    
C15   N7    1.439401 S    
N9    O14   1.296896 A    
Zn1   N4    2.001733 S    
C41   H9    1.083567 S    
C5    H1    1.082783 S    
C10   C21   1.488941 S    
O6    Zn2   2.000199 S    
C18   C21   1.381439 A    
C23   C25   1.410062 A    
C37   Cl2   1.759426 S    
C12   C14   1.414715 A    
O3    C1    1.285062 A    
O8    Zn1   2.009400 S    
C12   N12   1.441830 S    
C13   C15   1.414275 A    
C36   H7    1.081248 S    
C14   C16   1.414415 A    
C9    C11   1.417987 A    
N7    O9    1.301626 A    
C17   C19   1.402779 A    
C39   N5    1.434769 S    
C26   C28   1.380540 A    
C32   Cl12  1.759309 S    
N12   O19   1.300831 A    
N4    C44   1.377673 A    
C1    C23   1.448294 S    
C24   C26   1.410046 A    
C36   C38   1.412087 A    
C11   C13   1.414762 A    
O2    Zn2   2.002418 S    
N9    O13   1.301564 A    
O5    Zn1   2.000198 S    
C27   H4    1.083491 S    
C6    H2    1.082776 S    
N10   O15   1.301637 A    
N7    O10   1.300976 A    
N11   O18   1.301244 A    
