data_mof_unit_44087.cif
_audit_creation_date              2012-10-26T21:32:59-0400
_audit_creation_method            fapswitch 2.2
_symmetry_space_group_name_H-M    P1
_symmetry_Int_Tables_number       1
_space_group_crystal_system       triclinic
_cell_length_a                    28.340252
_cell_length_b                    18.409676
_cell_length_c                    17.139662
_cell_angle_alpha                 90.081119
_cell_angle_beta                  60.036719
_cell_angle_gamma                 90.486194
_cell_volume                      7746.85396319

loop_
_atom_site_label
_atom_site_type_symbol
_atom_type_description
_atom_site_fract_x
_atom_site_fract_y
_atom_site_fract_z
_atom_type_partial_charge
C1    C     C_R   0.704716 0.275424 0.673465 0.911951
C2    C     C_R   0.921247 0.614431 0.574754 -0.213488
C3    C     C_R   0.071707 0.897567 0.936040 0.901865
C4    C     C_R   0.576469 0.596533 0.931240 0.939577
C5    C     C_R   0.430569 0.395243 0.061805 0.908370
C6    C     C_R   0.423606 0.596447 0.068787 0.940474
C7    C     C_R   0.571707 0.397567 0.936040 0.901865
C8    C     C_R   0.543269 0.999952 0.518554 0.014481
C9    C     C_R   0.449961 0.998328 0.498910 0.011860
C10   C     C_R   0.043269 0.499952 0.518554 0.014481
C11   C     C_R   0.949961 0.498328 0.498910 0.011860
C12   C     C_R   0.508044 0.060412 0.548035 0.043033
C13   C     C_R   0.971779 0.377944 0.432296 -0.218433
C14   C     C_R   0.485034 0.937801 0.469957 0.038804
C15   C     C_R   0.460218 0.058649 0.540423 0.046774
C16   C     C_R   0.532050 0.939023 0.479149 0.048902
C17   C     C_R   0.008044 0.560412 0.548035 0.043033
C18   C     C_R   0.985034 0.437801 0.469957 0.038804
C19   C     C_R   0.960218 0.558649 0.540423 0.046774
C20   C     C_R   0.032050 0.439023 0.479149 0.048903
C21   C     C_R   0.624319 0.939294 0.503199 0.061438
C22   C     C_R   0.370290 0.059508 0.509772 0.057741
C23   C     C_R   0.390538 0.936863 0.452182 0.073591
C24   C     C_R   0.022809 0.621227 0.582203 -0.208569
C25   C     C_R   0.606359 0.063457 0.556260 0.074147
C26   C     C_R   0.124319 0.439294 0.503199 0.061438
C27   C     C_R   0.870290 0.559508 0.509772 0.057741
C28   C     C_R   0.890538 0.436863 0.452182 0.073591
C29   C     C_R   0.106359 0.563457 0.556260 0.074147
C30   C     C_R   0.667221 0.937815 0.523749 -0.118910
C31   C     C_R   0.330017 0.061933 0.483173 -0.121422
C32   C     C_R   0.341033 0.936133 0.450126 -0.136002
C33   C     C_R   0.657561 0.064359 0.553626 -0.134803
C34   C     C_R   0.167221 0.437815 0.523749 -0.118910
C35   C     C_R   0.569830 0.882249 0.446574 -0.231679
C36   C     C_R   0.830017 0.561932 0.483173 -0.121422
C37   C     C_R   0.841033 0.436133 0.450126 -0.136002
C38   C     C_R   0.157561 0.564359 0.553626 -0.134803
C39   C     C_R   0.683050 0.000144 0.548765 -0.305038
C40   C     C_R   0.315675 0.000193 0.454594 -0.300457
C41   C     C_R   0.183050 0.500144 0.548765 -0.305038
C42   C     C_R   0.815675 0.500193 0.454594 -0.300457
C43   C     C_R   0.590786 0.000656 0.527171 0.079276
C44   C     C_R   0.403980 0.998434 0.486353 0.069628
C45   C     C_R   0.090786 0.500656 0.527171 0.079276
C46   C     C_R   0.421247 0.114431 0.574754 -0.213488
C47   C     C_R   0.903980 0.498434 0.486353 0.069628
C48   C     C_R   0.114667 0.382720 0.457766 -0.201647
C49   C     C_R   0.877216 0.614574 0.560222 -0.183090
C50   C     C_R   0.926066 0.378013 0.422734 -0.184049
C51   C     C_R   0.070910 0.622737 0.585744 -0.179773
C52   C     C_R   0.614667 0.882720 0.457766 -0.201647
C53   C     C_R   0.377216 0.114574 0.560222 -0.183089
C54   C     C_R   0.426066 0.878013 0.422734 -0.184049
C55   C     C_R   0.570910 0.122736 0.585744 -0.179773
C56   C     C_3   0.692932 0.438023 0.035766 0.089823
C57   C     C_R   0.471779 0.877944 0.432296 -0.218433
C58   C     C_3   0.724892 0.476009 0.074859 -0.368939
C59   C     C_3   0.739142 0.554156 0.041156 -0.945785
C60   C     C_3   0.400292 0.769528 0.865050 0.087887
C61   C     C_3   0.405751 0.808742 0.781879 -0.357944
C62   C     C_3   0.453169 0.862952 0.742903 -0.947384
C63   C     C_3   0.324499 0.425084 0.942091 0.088928
C64   C     C_3   0.294845 0.463086 0.899468 -0.381595
C65   C     C_3   0.287171 0.543689 0.923079 -0.931277
C66   C     C_3   0.603988 0.776433 0.116896 0.102365
C67   C     C_3   0.602363 0.831601 0.185345 -0.378637
C68   C     C_R   0.522809 0.121227 0.582203 -0.208569
C69   C     C_3   0.561505 0.891632 0.202778 -0.960064
C70   C     C_3   0.192932 0.938023 0.035765 0.089822
C71   C     C_3   0.224892 0.976008 0.074859 -0.368940
C72   C     C_3   0.239142 0.054156 0.041156 -0.945784
C73   C     C_3   0.900292 0.269528 0.865050 0.087886
C74   C     C_3   0.905750 0.308743 0.781880 -0.357945
C75   C     C_3   0.953169 0.362952 0.742903 -0.947383
C76   C     C_3   0.824499 0.925084 0.942092 0.088929
C77   C     C_3   0.794844 0.963087 0.899469 -0.381595
C78   C     C_3   0.787170 0.043690 0.923081 -0.931277
C79   C     C_R   0.729461 0.289420 0.947035 -0.064204
C80   C     C_3   0.103988 0.276433 0.116896 0.102365
C81   C     C_3   0.102363 0.331601 0.185345 -0.378638
C82   C     C_3   0.061505 0.391632 0.202778 -0.960065
C83   C     C_3   0.796788 0.360639 0.719849 -0.304986
C84   C     C_3   0.312364 0.884393 0.172013 -0.356226
C85   C     C_3   0.213818 0.370910 0.245170 -0.379374
C86   C     C_3   0.694745 0.883284 0.823459 -0.345958
C87   C     C_3   0.296788 0.860640 0.719849 -0.304988
C88   C     C_3   0.812364 0.384393 0.172013 -0.356226
C89   C     C_3   0.713818 0.870910 0.245170 -0.379375
C90   C     C_R   0.288985 0.754815 0.038930 -0.068950
C91   C     C_3   0.194745 0.383284 0.823459 -0.345959
C92   C     C_R   0.276471 0.282819 0.046009 -0.069342
C93   C     C_R   0.300396 0.735828 0.323655 0.908748
C94   C     C_R   0.715602 0.750890 0.955759 -0.067129
C95   C     C_R   0.229461 0.789420 0.947035 -0.064204
C96   C     C_R   0.788985 0.254815 0.038930 -0.068950
C97   C     C_R   0.776471 0.782819 0.046009 -0.069342
C98   C     C_R   0.215603 0.250890 0.955759 -0.067129
C99   C     C_R   0.777069 0.246947 0.906853 -0.284652
C100  C     C_R   0.239401 0.793090 0.081370 -0.280433
C101  C     C_R   0.225726 0.246001 0.089360 -0.281949
C102  C     C_R   0.767786 0.783309 0.910406 -0.276830
C103  C     C_R   0.277069 0.746947 0.906853 -0.284652
C104  C     C_R   0.295595 0.275526 0.325935 0.922455
C105  C     C_R   0.739401 0.293090 0.081370 -0.280433
C106  C     C_R   0.725726 0.746001 0.089360 -0.281950
C107  C     C_R   0.267786 0.283309 0.910406 -0.276830
C108  C     C_R   0.809889 0.238459 0.946230 0.460991
C109  C     C_R   0.214153 0.817986 0.033764 0.467026
C110  C     C_R   0.192872 0.239078 0.049764 0.452527
C111  C     C_R   0.794487 0.807225 0.956352 0.469998
C112  C     C_R   0.309889 0.738459 0.946230 0.460990
C113  C     C_R   0.714153 0.317986 0.033764 0.467026
C114  C     C_R   0.692872 0.739078 0.049765 0.452528
C115  C     C_R   0.699449 0.736434 0.676358 0.911922
C116  C     C_R   0.294487 0.307224 0.956352 0.469999
C117  C     C_R   0.642110 0.325134 0.946299 -0.255413
C118  C     C_R   0.353614 0.671725 0.060293 -0.259901
C119  C     C_R   0.364162 0.315409 0.048523 -0.258757
C120  C     C_R   0.648452 0.669987 0.937645 -0.265821
C121  C     C_R   0.142110 0.825134 0.946299 -0.255414
C122  C     C_R   0.853614 0.171725 0.060293 -0.259901
C123  C     C_R   0.864162 0.815409 0.048523 -0.258757
C124  C     C_R   0.148452 0.169987 0.937645 -0.265821
C125  C     C_R   0.614587 0.344419 0.899836 -0.094572
C126  C     C_R   0.204716 0.775424 0.673465 0.911951
C127  C     C_R   0.381447 0.650446 0.105474 -0.102295
C128  C     C_R   0.390115 0.337919 0.096396 -0.102952
C129  C     C_R   0.619123 0.650365 0.894184 -0.098758
C130  C     C_R   0.114588 0.844419 0.899836 -0.094572
C131  C     C_R   0.881447 0.150446 0.105474 -0.102295
C132  C     C_R   0.890115 0.837919 0.096396 -0.102952
C133  C     C_R   0.119122 0.150365 0.894184 -0.098758
C134  C     C_R   0.633395 0.321998 0.813487 -0.333595
C135  C     C_R   0.367316 0.677934 0.188296 -0.341035
C136  C     C_R   0.370022 0.316956 0.183932 -0.320670
C137  C     C_R   0.800396 0.235828 0.323655 0.908748
C138  C     C_R   0.632156 0.679405 0.812500 -0.343619
C139  C     C_R   0.133395 0.821998 0.813487 -0.333596
C140  C     C_R   0.867316 0.177934 0.188296 -0.341035
C141  C     C_R   0.870022 0.816956 0.183932 -0.320670
C142  C     C_R   0.132156 0.179405 0.812500 -0.343619
C143  C     C_R   0.685244 0.295844 0.765791 -0.159726
C144  C     C_R   0.326424 0.727621 0.226654 -0.163650
C145  C     C_R   0.317150 0.293005 0.231680 -0.160758
C146  C     C_R   0.674036 0.728327 0.773039 -0.164315
C147  C     C_R   0.185244 0.795844 0.765791 -0.159726
C148  C     C_R   0.795596 0.775526 0.325935 0.922456
C149  C     C_R   0.826424 0.227621 0.226654 -0.163650
C150  C     C_R   0.817150 0.793005 0.231680 -0.160758
C151  C     C_R   0.174036 0.228327 0.773039 -0.164315
C152  C     C_R   0.719766 0.294636 0.804302 0.501212
C153  C     C_R   0.306396 0.761815 0.174550 0.518158
C154  C     C_R   0.283956 0.292034 0.190742 0.515206
C155  C     C_R   0.696414 0.760540 0.823231 0.511594
C156  C     C_R   0.219766 0.794636 0.804302 0.501212
C157  C     C_R   0.806396 0.261815 0.174550 0.518158
C158  C     C_R   0.783956 0.792034 0.190742 0.515207
C159  C     C_R   0.199449 0.236434 0.676358 0.911922
C160  C     C_R   0.196414 0.260540 0.823231 0.511593
C161  C     C_R   0.696888 0.302353 0.899056 0.002650
C162  C     C_R   0.317043 0.730552 0.091050 0.009220
C163  C     C_R   0.308672 0.295112 0.094966 0.002315
C164  C     C_R   0.686340 0.727934 0.905416 0.000890
C165  C     C_R   0.196888 0.802353 0.899056 0.002650
C166  C     C_R   0.817043 0.230552 0.091050 0.009219
C167  C     C_R   0.808671 0.795113 0.094966 0.002315
C168  C     C_R   0.186340 0.227934 0.905416 0.000890
C169  C     C_R   0.690847 0.129714 0.536523 0.893432
C170  C     C_R   0.069830 0.382249 0.446574 -0.231678
C171  C     C_R   0.308808 0.870495 0.464421 0.862287
C172  C     C_R   0.303016 0.127754 0.482865 0.907196
C173  C     C_R   0.695900 0.872281 0.520104 0.882075
C174  C     C_R   0.190847 0.629714 0.536523 0.893433
C175  C     C_R   0.808808 0.370495 0.464421 0.862287
C176  C     C_R   0.803016 0.627754 0.482865 0.907196
C177  C     C_R   0.195900 0.372281 0.520104 0.882075
C178  C     C_R   0.076469 0.096533 0.931240 0.939577
C179  C     C_R   0.930568 0.895243 0.061805 0.908370
C180  C     C_R   0.923606 0.096447 0.068787 0.940474
H1    H     H_    0.718495 0.999827 0.557274 0.200000
H2    H     H_    0.347871 0.157386 0.592001 0.178127
H3    H     H_    0.019966 0.368279 0.229658 0.265803
H4    H     H_    0.789434 0.395288 0.778100 0.142390
H5    H     H_    0.779708 0.386630 0.680801 0.163343
H6    H     H_    0.841495 0.356970 0.674592 0.202025
H7    H     H_    0.333694 0.885720 0.097062 0.153261
H8    H     H_    0.342434 0.884311 0.195812 0.159597
H9    H     H_    0.288355 0.934954 0.196734 0.201610
H10   H     H_    0.231717 0.394668 0.176396 0.157550
H11   H     H_    0.225682 0.404402 0.286798 0.174988
H12   H     H_    0.169165 0.373925 0.274556 0.198974
H13   H     H_    0.419941 0.832123 0.389168 0.163486
H14   H     H_    0.673302 0.885176 0.898385 0.150386
H15   H     H_    0.664849 0.884518 0.799327 0.163156
H16   H     H_    0.720488 0.932936 0.797809 0.199300
H17   H     H_    0.289434 0.895288 0.778100 0.142391
H18   H     H_    0.279708 0.886630 0.680801 0.163343
H19   H     H_    0.341495 0.856970 0.674592 0.202026
H20   H     H_    0.833694 0.385720 0.097062 0.153261
H21   H     H_    0.842434 0.384311 0.195812 0.159597
H22   H     H_    0.788355 0.434954 0.196734 0.201610
H23   H     H_    0.731717 0.894668 0.176396 0.157550
H24   H     H_    0.579030 0.170152 0.614669 0.165729
H25   H     H_    0.725682 0.904402 0.286798 0.174988
H26   H     H_    0.669165 0.873924 0.274557 0.198974
H27   H     H_    0.173302 0.385176 0.898385 0.150386
H28   H     H_    0.164849 0.384518 0.799326 0.163156
H29   H     H_    0.220489 0.432936 0.797809 0.199301
H30   H     H_    0.067107 0.336579 0.409843 0.144344
H31   H     H_    0.923064 0.658585 0.614486 0.144572
H32   H     H_    0.995620 0.329355 0.409249 0.148958
H33   H     H_    0.998716 0.669740 0.604888 0.143888
H34   H     H_    0.567107 0.836579 0.409843 0.144344
H35   H     H_    0.423064 0.158585 0.614486 0.144572
H36   H     H_    0.495620 0.829355 0.409249 0.148958
H37   H     H_    0.281696 0.000744 0.442198 0.200423
H38   H     H_    0.498716 0.169740 0.604888 0.143888
H39   H     H_    0.791044 0.220767 0.842893 0.235396
H40   H     H_    0.219344 0.806344 0.151809 0.242634
H41   H     H_    0.209423 0.223591 0.156041 0.236997
H42   H     H_    0.788532 0.792808 0.838779 0.232788
H43   H     H_    0.291044 0.720767 0.842893 0.235396
H44   H     H_    0.719344 0.306344 0.151809 0.242634
H45   H     H_    0.709423 0.723591 0.156041 0.236997
H46   H     H_    0.288532 0.292808 0.838778 0.232788
H47   H     H_    0.620725 0.331896 0.018204 0.226676
H48   H     H_    0.218495 0.499827 0.557274 0.200000
H49   H     H_    0.360368 0.640692 0.002365 0.222302
H50   H     H_    0.386964 0.319963 0.976377 0.222862
H51   H     H_    0.641609 0.639179 0.995964 0.215921
H52   H     H_    0.120725 0.831896 0.018204 0.226676
H53   H     H_    0.860368 0.140692 0.002365 0.222302
H54   H     H_    0.886964 0.819963 0.976377 0.222862
H55   H     H_    0.141609 0.139179 0.995964 0.215921
H56   H     H_    0.609265 0.330440 0.781216 0.196485
H57   H     H_    0.385660 0.656591 0.225829 0.202583
H58   H     H_    0.393381 0.326904 0.217382 0.197836
H59   H     H_    0.781696 0.500745 0.442198 0.200423
H60   H     H_    0.612337 0.659625 0.776295 0.203294
H61   H     H_    0.109265 0.830440 0.781216 0.196485
H62   H     H_    0.885660 0.156591 0.225829 0.202583
H63   H     H_    0.893382 0.826903 0.217382 0.197836
H64   H     H_    0.112337 0.159625 0.776295 0.203294
H65   H     H_    0.656774 0.471307 0.051189 0.184103
H66   H     H_    0.717997 0.435693 0.960848 0.122487
H67   H     H_    0.700109 0.476049 0.149596 0.246132
H68   H     H_    0.763213 0.446240 0.054707 0.215561
H69   H     H_    0.764517 0.555454 0.966550 0.261962
H70   H     H_    0.142770 0.339115 0.424945 0.215236
H71   H     H_    0.762309 0.580307 0.070272 0.268214
H72   H     H_    0.701347 0.585347 0.062204 0.284132
H73   H     H_    0.440218 0.745308 0.847111 0.172960
H74   H     H_    0.390941 0.809113 0.920198 0.120212
H75   H     H_    0.412232 0.768224 0.729366 0.246416
H76   H     H_    0.367654 0.838576 0.800812 0.221026
H77   H     H_    0.447328 0.904360 0.794104 0.260882
H78   H     H_    0.455287 0.890958 0.683852 0.272404
H79   H     H_    0.492253 0.834473 0.720561 0.270961
H80   H     H_    0.362955 0.455244 0.922640 0.188379
H81   H     H_    0.847871 0.657386 0.592001 0.178127
H82   H     H_    0.299796 0.427893 0.016950 0.122691
H83   H     H_    0.318729 0.457154 0.825052 0.246795
H84   H     H_    0.254166 0.437477 0.924291 0.220267
H85   H     H_    0.263283 0.550988 0.997264 0.261366
H86   H     H_    0.264925 0.569506 0.892531 0.266346
H87   H     H_    0.327374 0.571114 0.896353 0.292560
H88   H     H_    0.562409 0.753365 0.143063 0.167063
H89   H     H_    0.614622 0.804313 0.052458 0.126711
H90   H     H_    0.591055 0.803370 0.249675 0.230766
H91   H     H_    0.643229 0.856970 0.159009 0.219306
H92   H     H_    0.919941 0.332123 0.389168 0.163486
H93   H     H_    0.573117 0.921681 0.139461 0.262464
H94   H     H_    0.561105 0.930409 0.252791 0.279037
H95   H     H_    0.519966 0.868279 0.229658 0.265803
H96   H     H_    0.156774 0.971308 0.051189 0.184104
H97   H     H_    0.217997 0.935693 0.960848 0.122487
H98   H     H_    0.200110 0.976049 0.149595 0.246132
H99   H     H_    0.263213 0.946240 0.054706 0.215561
H100  H     H_    0.264517 0.055454 0.966550 0.261962
H101  H     H_    0.262309 0.080307 0.070271 0.268213
H102  H     H_    0.201347 0.085347 0.062204 0.284132
H103  H     H_    0.079030 0.670152 0.614669 0.165728
H104  H     H_    0.940218 0.245308 0.847109 0.172960
H105  H     H_    0.890942 0.309112 0.920198 0.120212
H106  H     H_    0.912231 0.268225 0.729367 0.246416
H107  H     H_    0.867653 0.338578 0.800814 0.221025
H108  H     H_    0.947329 0.404360 0.794105 0.260882
H109  H     H_    0.955286 0.390959 0.683853 0.272404
H110  H     H_    0.992253 0.334473 0.720560 0.270961
H111  H     H_    0.862954 0.955245 0.922641 0.188379
H112  H     H_    0.799796 0.927893 0.016951 0.122691
H113  H     H_    0.818728 0.957155 0.825053 0.246795
H114  H     H_    0.642770 0.839115 0.424945 0.215236
H115  H     H_    0.754165 0.937477 0.924292 0.220266
H116  H     H_    0.763282 0.050988 0.997265 0.261366
H117  H     H_    0.764924 0.069506 0.892533 0.266346
H118  H     H_    0.827373 0.071114 0.896354 0.292560
H119  H     H_    0.062409 0.253365 0.143063 0.167063
H120  H     H_    0.114622 0.304313 0.052458 0.126711
H121  H     H_    0.091054 0.303370 0.249675 0.230766
H122  H     H_    0.143229 0.356970 0.159009 0.219306
H123  H     H_    0.073118 0.421681 0.139461 0.262464
H124  H     H_    0.061105 0.430409 0.252791 0.279037
O1    O     O_R   0.746490 0.236330 0.638080 -0.576603
O2    O     O_R   0.325830 0.813840 0.483730 -0.633214
O3    O     O_R   0.325830 0.186160 0.483730 -0.636035
O4    O     O_R   0.674170 0.813840 0.516270 -0.644262
O5    O     O_R   0.174170 0.686160 0.516270 -0.630133
O6    O     O_R   0.825830 0.313840 0.483730 -0.633214
O7    O     O_R   0.825830 0.686160 0.483730 -0.636035
O8    O     O_R   0.174170 0.313840 0.516270 -0.644262
O9    O     O_R   0.739960 0.127620 0.525000 -0.623421
O10   O     O_R   0.260040 0.872380 0.475000 -0.624887
O11   O     O_R   0.260040 0.127620 0.475000 -0.629870
O12   O     O_R   0.253510 0.763670 0.361920 -0.568546
O13   O     O_R   0.739960 0.872380 0.525000 -0.631536
O14   O     O_R   0.239960 0.627620 0.525000 -0.623421
O15   O     O_R   0.760040 0.372380 0.475000 -0.624887
O16   O     O_R   0.760040 0.627620 0.475000 -0.629870
O17   O     O_R   0.239960 0.372380 0.525000 -0.631536
O18   O     O_R   0.680700 0.294870 0.629350 -0.646927
O19   O     O_R   0.319300 0.705130 0.370650 -0.643660
O20   O     O_R   0.319300 0.294870 0.370650 -0.635282
O21   O     O_R   0.680700 0.705130 0.629350 -0.640082
O22   O     O_R   0.180700 0.794870 0.629350 -0.646927
O23   O     O_R   0.253510 0.236330 0.361920 -0.589529
O24   O     O_R   0.819300 0.205130 0.370650 -0.643660
O25   O     O_R   0.819300 0.794870 0.370650 -0.635282
O26   O     O_R   0.180700 0.205130 0.629350 -0.640082
O27   O     O_R   0.062020 0.072840 0.007170 -0.626278
O28   O     O_R   0.937980 0.927160 0.992830 -0.631936
O29   O     O_R   0.937980 0.072840 0.992830 -0.627444
O30   O     O_R   0.062020 0.927160 0.007170 -0.629462
O31   O     O_R   0.562020 0.572840 0.007170 -0.626278
O32   O     O_R   0.437980 0.427160 0.992830 -0.631936
O33   O     O_R   0.437980 0.572840 0.992830 -0.627444
O34   O     O_R   0.746490 0.763670 0.638080 -0.587812
O35   O     O_R   0.562020 0.427160 0.007170 -0.629462
O36   O     O_R   0.947860 0.073950 0.109290 -0.619378
O37   O     O_R   0.052140 0.926050 0.890710 -0.623028
O38   O     O_R   0.052140 0.073950 0.890710 -0.620496
O39   O     O_R   0.947860 0.926050 0.109290 -0.618414
O40   O     O_R   0.447860 0.573950 0.109290 -0.619378
O41   O     O_R   0.552140 0.426050 0.890710 -0.623028
O42   O     O_R   0.552140 0.573950 0.890710 -0.620496
O43   O     O_R   0.447860 0.426050 0.109290 -0.618414
O44   O     O_3   0.673607 0.368955 0.076152 -0.660932
O45   O     O_R   0.246490 0.736330 0.638080 -0.576603
O46   O     O_3   0.361801 0.711903 0.892019 -0.672329
O47   O     O_3   0.338776 0.353138 0.909673 -0.666109
O48   O     O_3   0.639145 0.717949 0.105220 -0.664256
O49   O     O_3   0.173607 0.868955 0.076151 -0.660932
O50   O     O_3   0.861801 0.211903 0.892019 -0.672329
O51   O     O_3   0.838776 0.853138 0.909673 -0.666109
O52   O     O_3   0.139145 0.217949 0.105220 -0.664255
O53   O     O_3   0.775510 0.289907 0.748165 -0.619694
O54   O     O_3   0.276405 0.824501 0.206937 -0.615857
O55   O     O_3   0.228180 0.297544 0.245152 -0.625319
O56   O     O_R   0.753510 0.263670 0.361920 -0.568546
O57   O     O_3   0.728642 0.822120 0.790107 -0.615759
O58   O     O_3   0.275510 0.789907 0.748165 -0.619694
O59   O     O_3   0.776405 0.324501 0.206937 -0.615858
O60   O     O_3   0.728180 0.797544 0.245153 -0.625319
O61   O     O_3   0.228642 0.322120 0.790107 -0.615759
O62   O     O_R   0.753510 0.736330 0.361920 -0.589529
O63   O     O_R   0.246490 0.263670 0.638080 -0.587812
O64   O     O_R   0.674170 0.186160 0.516270 -0.630133
Zn1   Zn    Zn3+2 0.792340 0.208750 0.507670 0.974613
Zn2   Zn    Zn3+2 0.494040 0.500000 0.919480 0.941678
Zn3   Zn    Zn3+2 0.005960 0.000000 0.080520 0.951342
Zn4   Zn    Zn3+2 0.994040 1.000000 0.919480 0.941678
Zn5   Zn    Zn3+2 0.207660 0.791250 0.492330 0.982064
Zn6   Zn    Zn3+2 0.207660 0.208750 0.492330 0.970642
Zn7   Zn    Zn3+2 0.792340 0.791250 0.507670 0.978069
Zn8   Zn    Zn3+2 0.292340 0.708750 0.507670 0.974613
Zn9   Zn    Zn3+2 0.707660 0.291250 0.492330 0.982063
Zn10  Zn    Zn3+2 0.707660 0.708750 0.492330 0.970642
Zn11  Zn    Zn3+2 0.292340 0.291250 0.507670 0.978069
Zn12  Zn    Zn3+2 0.505960 0.500000 0.080520 0.951341

loop_
_geom_bond_atom_site_label_1
_geom_bond_atom_site_label_2
_ccdc_geom_bond_type
C20   C170  A    
C28   C47   A    
C136  H58   S    
C177  O8    A    
C36   C42   A    
C75   H109  S    
C137  C149  S    
C91   H28   S    
C5    O43   A    
C124  C133  A    
C174  O5    A    
C79   C99   A    
C58   H67   S    
C148  O25   A    
C16   C35   A    
C31   C172  S    
C74   H106  S    
O6    Zn1   S    
C120  H51   S    
C37   C42   A    
C76   H111  S    
C131  C140  A    
C83   O53   S    
C103  H43   S    
C134  C143  A    
C124  C168  A    
C78   H117  S    
C89   H25   S    
C82   H124  S    
C75   H108  S    
C62   H78   S    
O23   Zn6   S    
O40   Zn12  S    
C119  C128  A    
C24   C51   A    
C96   C108  A    
C126  O45   A    
C65   H85   S    
C100  C109  A    
C8    C16   A    
C121  H52   S    
C13   H32   S    
C102  C111  A    
C79   C161  S    
C65   H86   S    
O15   Zn9   S    
C158  C167  A    
C71   H98   S    
C172  O11   A    
O63   Zn11  S    
C95   C109  A    
O56   Zn9   S    
C171  O10   A    
C101  C110  A    
C3    O30   A    
C135  H57   S    
C29   C45   A    
C103  C112  A    
C169  O64   A    
C142  C151  A    
C37   C175  S    
C57   H36   S    
C111  O51   S    
C22   C31   A    
C60   H74   S    
C76   O51   S    
C92   C116  A    
C13   C18   A    
C73   H104  S    
O32   Zn2   S    
O43   Zn12  S    
C27   C36   A    
C160  O61   S    
C63   O47   S    
C102  H42   S    
O31   Zn12  S    
C14   C57   A    
C118  C162  A    
C173  O4    A    
C2    C19   A    
C25   C55   A    
C81   H121  S    
C6    C127  S    
C126  C147  S    
C85   H11   S    
C105  H44   S    
C69   H93   S    
C9    C15   A    
C64   C65   S    
O16   Zn10  S    
C46   C53   A    
C4    O42   A    
C160  C168  A    
C35   H34   S    
C94   C102  A    
C46   H35   S    
C88   O59   S    
C178  O38   A    
C84   H7    S    
C118  H49   S    
C87   H18   S    
C88   H22   S    
O62   Zn10  S    
O1    Zn1   S    
C93   O12   A    
C11   C18   A    
O25   Zn7   S    
C123  C132  A    
O13   Zn7   S    
C7    O35   A    
C121  C130  A    
C25   C43   A    
C1    O18   A    
C64   H83   S    
O7    Zn7   S    
C99   C108  A    
C12   C68   A    
C115  C146  S    
C2    H31   S    
C90   C162  S    
C105  C113  A    
C148  C150  S    
C148  O62   A    
C133  C178  S    
C38   C174  S    
C86   O57   S    
C5    C128  S    
O38   Zn4   S    
C157  O59   S    
C26   C45   A    
C114  O48   S    
C67   H90   S    
C29   C38   A    
O29   Zn4   S    
O39   Zn3   S    
C152  C161  A    
C137  O24   A    
C66   C67   S    
C41   H48   S    
C61   H75   S    
C95   C103  A    
C141  C150  A    
C69   H95   S    
C153  O54   S    
C70   H96   S    
C120  C129  A    
C38   C41   A    
C152  O53   S    
C10   C20   A    
C1    O1    A    
O24   Zn1   S    
C71   H99   S    
C72   H100  S    
C151  C159  S    
C3    O37   A    
C123  H54   S    
C113  O44   S    
C170  H30   S    
C8    C12   A    
C10   C45   A    
C106  H45   S    
C84   H9    S    
C93   O19   A    
C93   C144  S    
C108  O50   S    
C145  C154  A    
C92   C163  S    
O36   Zn3   S    
C79   C113  A    
C59   H71   S    
C118  C127  A    
C7    O41   A    
C63   H82   S    
C122  C131  A    
C179  O28   A    
C29   C51   A    
C27   C47   A    
C132  C141  A    
C109  O49   S    
C159  O26   A    
C134  H56   S    
C34   C177  S    
C91   H27   S    
C131  C180  S    
C61   H76   S    
C121  C165  A    
C56   H65   S    
C85   O55   S    
C58   H68   S    
C104  O20   A    
C71   C72   S    
C53   H2    S    
C80   O52   S    
C149  C157  A    
C28   C37   A    
C138  C146  A    
O28   Zn4   S    
C56   C58   S    
C30   C39   A    
C14   C16   A    
O42   Zn2   S    
C61   C62   S    
C139  H61   S    
C98   C168  S    
C107  C116  A    
C76   H112  S    
C120  C164  A    
C77   H113  S    
C13   C50   A    
C78   H118  S    
C100  H40   S    
C4    O31   A    
C72   H101  S    
C15   C46   A    
C158  O60   S    
C117  C125  A    
C140  C149  A    
C27   C49   A    
C25   C33   A    
C54   C57   A    
C125  C134  A    
C96   C105  A    
C171  O2    A    
C98   C110  A    
C40   H37   S    
O3    Zn11  S    
C73   C74   S    
C11   C47   A    
O30   Zn3   S    
C8    C43   A    
C87   H19   S    
C91   H29   S    
C33   C169  S    
C55   C68   A    
C77   C78   S    
C5    O32   A    
C87   O58   S    
C11   C19   A    
C173  O13   A    
C127  C135  A    
C128  C136  A    
C97   C111  A    
O22   Zn5   S    
C31   C40   A    
C159  O63   A    
C80   H119  S    
O4    Zn10  S    
C146  C155  A    
O33   Zn2   S    
C59   H69   S    
C176  O7    A    
C83   H6    S    
C70   C71   S    
O45   Zn8   S    
O35   Zn12  S    
O19   Zn8   S    
C26   C48   A    
C67   H91   S    
C107  H46   S    
C91   O61   S    
C34   C41   A    
C75   H110  S    
C130  C139  A    
C95   C165  S    
C175  O15   A    
O26   Zn6   S    
C176  O16   A    
C155  O57   S    
C56   O44   S    
C49   H81   S    
O9    Zn1   S    
C115  O34   A    
C85   H10   S    
C23   C44   A    
C60   C61   S    
C9    C14   A    
C77   H115  S    
C84   O54   S    
C78   H116  S    
C89   H26   S    
C12   C15   A    
C116  O47   S    
C133  C142  A    
O12   Zn5   S    
C141  H63   S    
C7    C125  S    
C147  C156  A    
C62   H77   S    
C92   C101  A    
C48   C170  A    
C97   C106  A    
C143  C152  A    
C32   C171  S    
C99   H39   S    
C36   C176  S    
C84   H8    S    
O27   Zn3   S    
C87   H17   S    
C65   H87   S    
C94   C164  S    
C66   H88   S    
C101  H41   S    
C150  C158  A    
O37   Zn4   S    
C42   H59   S    
C64   H84   S    
C4    C129  S    
C154  O55   S    
C21   C30   A    
C153  C162  A    
C23   C32   A    
C88   H20   S    
C58   C59   S    
O64   Zn9   S    
C66   H89   S    
C156  C165  A    
C175  O6    A    
C55   H24   S    
C172  O3    A    
C60   H73   S    
C83   H4    S    
O5    Zn5   S    
C104  O23   A    
C98   C107  A    
C73   H105  S    
C122  H53   S    
C35   C52   A    
C112  O46   S    
C86   H14   S    
C122  C166  A    
C3    C130  S    
C90   C112  A    
C81   H122  S    
C81   C82   S    
C94   C114  A    
C169  O9    A    
C110  O52   S    
C178  O27   A    
C85   H12   S    
C69   H94   S    
C139  C147  A    
C33   C39   A    
C70   H97   S    
C106  C114  A    
C137  O56   A    
O2    Zn8   S    
C74   H107  S    
C66   O48   S    
C10   C17   A    
C18   C20   A    
C144  C153  A    
C119  H50   S    
C21   C43   A    
C124  H55   S    
C28   C50   A    
C26   C34   A    
C22   C44   A    
C129  C138  A    
C138  H60   S    
C88   H21   S    
C30   C173  S    
O14   Zn8   S    
C136  C145  A    
C86   H16   S    
C32   C40   A    
C54   H13   S    
C51   H103  S    
C177  O17   A    
O34   Zn7   S    
C174  O14   A    
O20   Zn11  S    
C90   C100  A    
C22   C53   A    
C17   C24   A    
C74   C75   S    
C154  C163  A    
C76   C77   S    
C119  C163  A    
C180  O36   A    
C117  C161  A    
C97   C167  S    
C56   H66   S    
C82   H3    S    
O10   Zn5   S    
C63   C64   S    
C156  O58   S    
C67   C69   S    
C60   O46   S    
C68   H38   S    
C1    C143  S    
C2    C49   A    
C86   H15   S    
C24   H33   S    
C126  O22   A    
O18   Zn9   S    
C39   H1    S    
C135  C144  A    
C89   H23   S    
C50   H92   S    
O11   Zn6   S    
C142  H64   S    
C89   O60   S    
C96   C166  S    
C72   H102  S    
C6    O40   A    
C82   H123  S    
C23   C54   A    
C179  O39   A    
O41   Zn2   S    
C117  H47   S    
C9    C44   A    
O8    Zn6   S    
C104  C145  S    
C80   C81   S    
C157  C166  A    
C155  C164  A    
C70   O49   S    
C151  C160  A    
C123  C167  A    
C6    O33   A    
C63   H80   S    
C115  O21   A    
O21   Zn10  S    
C62   H79   S    
C17   C19   A    
C140  H62   S    
O17   Zn11  S    
C48   H70   S    
C73   O50   S    
C80   H120  S    
C132  C179  S    
C180  O29   A    
C59   H72   S    
C83   H5    S    
C52   H114  S    
C21   C52   A    
