data_mof_unit_19152.cif
_audit_creation_date              2013-03-05T15:57:39-0500
_audit_creation_method            fapswitch 2.2
_symmetry_space_group_name_H-M    P1
_symmetry_Int_Tables_number       1
_space_group_crystal_system       triclinic
_cell_length_a                    19.171767
_cell_length_b                    17.989927
_cell_length_c                    12.650945
_cell_angle_alpha                 90.640206
_cell_angle_beta                  97.55646
_cell_angle_gamma                 89.231695
_cell_volume                      4324.81866025

loop_
_atom_site_label
_atom_site_type_symbol
_atom_site_description
_atom_site_fract_x
_atom_site_fract_y
_atom_site_fract_z
_atom_type_partial_charge
O1    O     O_R   0.448200 0.076800 0.373930 -0.619156
O2    O     O_R   0.448200 0.923200 0.373930 -0.617077
O3    O     O_R   0.948200 0.576800 0.373930 -0.618004
O4    O     O_R   0.948200 0.423200 0.373930 -0.614539
O5    O     O_R   0.414750 0.076790 0.542400 -0.610595
O6    O     O_R   0.414750 0.923210 0.542400 -0.629125
O7    O     O_R   0.914750 0.576790 0.542400 -0.618334
O8    O     O_R   0.914750 0.423210 0.542400 -0.625028
C1    C     C_R   0.404723 0.095580 0.441367 0.860586
C2    C     C_R   0.410488 0.898339 0.443947 0.834010
C3    C     C_R   0.905836 0.597428 0.441753 0.845818
C4    C     C_R   0.904674 0.404195 0.441923 0.848842
Zn1   Zn    Zn3+2 0.522330 0.000000 0.387520 0.948554
Zn2   Zn    Zn3+2 0.022330 0.500000 0.387520 0.947370
Zn3   Zn    Zn3+2 0.477660 0.000000 0.612480 0.937144
Zn4   Zn    Zn3+2 0.977660 0.500000 0.612480 0.938909
O9    O     O_R   0.585240 0.923200 0.457600 -0.614501
O10   O     O_R   0.585240 0.076800 0.457600 -0.607753
O11   O     O_R   0.085240 0.423200 0.457600 -0.608913
O12   O     O_R   0.085240 0.576800 0.457600 -0.613854
O13   O     O_R   0.551780 0.923190 0.626070 -0.639487
O14   O     O_R   0.551780 0.076810 0.626070 -0.636240
O15   O     O_R   0.051780 0.423190 0.626070 -0.636043
O16   O     O_R   0.051780 0.576810 0.626070 -0.628999
C5    C     C_R   0.586232 0.894510 0.552571 0.895880
C6    C     C_R   0.587246 0.103947 0.554400 0.917399
C7    C     C_R   0.087264 0.395216 0.553411 0.908745
C8    C     C_R   0.090147 0.600676 0.556813 0.904943
C9    C     C_R   0.664311 0.272331 0.702127 0.320109
C10   C     C_R   0.651627 0.711647 0.676738 0.316077
C11   C     C_R   0.246003 0.681850 0.723857 0.320668
C12   C     C_R   0.155753 0.216093 0.686021 0.321542
H1    H     H_    0.608231 0.177124 0.744531 0.200945
H2    H     H_    0.599269 0.808571 0.732351 0.200372
H3    H     H_    0.162975 0.609493 0.754883 0.183345
H4    H     H_    0.101678 0.313297 0.736325 0.200382
H5    H     H_    0.378664 0.732628 0.732573 0.210577
H6    H     H_    0.230004 0.084637 0.688490 0.192788
H7    H     H_    0.746168 0.394152 0.719626 0.196769
H8    H     H_    0.723076 0.578646 0.670094 0.190588
C13   C     C_R   0.624733 0.173059 0.579099 -0.113852
C14   C     C_R   0.620243 0.821592 0.570294 -0.121159
C15   C     C_R   0.145755 0.651489 0.594633 -0.099360
C16   C     C_R   0.123309 0.323467 0.574083 -0.113013
C17   C     C_R   0.321273 0.849829 0.304210 -0.172204
C18   C     C_R   0.336195 0.170702 0.299401 -0.190965
C19   C     C_R   0.829769 0.334545 0.300064 -0.192377
C20   C     C_R   0.845933 0.683533 0.305928 -0.189388
C21   C     C_R   0.258474 0.813068 0.276096 -0.112342
C22   C     C_R   0.276593 0.211172 0.258891 -0.120548
C23   C     C_R   0.769490 0.295351 0.262115 -0.112783
C24   C     C_R   0.789288 0.728375 0.265701 -0.119738
C25   C     C_R   0.228455 0.774161 0.352676 -0.198257
C26   C     C_R   0.223116 0.223796 0.321533 -0.206966
C27   C     C_R   0.720358 0.278812 0.329941 -0.205456
C28   C     C_R   0.732554 0.738191 0.322845 -0.188292
C29   C     C_R   0.263408 0.767526 0.458612 0.099417
C30   C     C_R   0.228454 0.195084 0.425862 0.109246
C31   C     C_R   0.730597 0.301417 0.438151 0.103523
C32   C     C_R   0.731303 0.701946 0.421335 0.111729
C33   C     C_R   0.331031 0.797924 0.482641 0.084809
C34   C     C_R   0.281239 0.141861 0.456629 0.098411
C35   C     C_R   0.785289 0.351477 0.471274 0.108945
C36   C     C_R   0.782546 0.646877 0.450799 0.099773
C37   C     C_R   0.690349 0.273941 0.516184 0.041030
C38   C     C_R   0.685106 0.722033 0.496287 0.043863
C39   C     C_R   0.234365 0.730721 0.540881 0.034373
C40   C     C_R   0.186629 0.220658 0.503591 0.038872
C41   C     C_R   0.697518 0.305148 0.620893 0.051125
C42   C     C_R   0.686270 0.681953 0.592809 0.048570
C43   C     C_R   0.274684 0.720739 0.643213 0.021596
C44   C     C_R   0.189585 0.183859 0.603059 0.044900
C45   C     C_R   0.344338 0.744400 0.659667 -0.171098
C46   C     C_R   0.229096 0.117842 0.617682 -0.185005
C47   C     C_R   0.740720 0.365982 0.643079 -0.186625
C48   C     C_R   0.724650 0.615215 0.603350 -0.184859
C49   C     C_R   0.372310 0.781392 0.580282 -0.209343
C50   C     C_R   0.273309 0.096570 0.543796 -0.215684
C51   C     C_R   0.782980 0.388402 0.569627 -0.223602
C52   C     C_R   0.770568 0.597351 0.530479 -0.222957
C53   C     C_R   0.649391 0.210910 0.496314 -0.255969
C54   C     C_R   0.644621 0.786393 0.483637 -0.260678
C55   C     C_R   0.167675 0.699724 0.522205 -0.263822
C56   C     C_R   0.149520 0.287476 0.489657 -0.258045
C57   C     C_R   0.630944 0.204380 0.681388 -0.260136
C58   C     C_R   0.622558 0.783664 0.666707 -0.268892
C59   C     C_R   0.182490 0.645000 0.697039 -0.263072
C60   C     C_R   0.125478 0.287311 0.671939 -0.253762
C61   C     C_R   0.356190 0.844757 0.408393 -0.104541
C62   C     C_R   0.339832 0.136211 0.399241 -0.126603
C63   C     C_R   0.839192 0.363032 0.404590 -0.126499
C64   C     C_R   0.843826 0.642866 0.399640 -0.119205
H9    H     H_    0.638896 0.188257 0.417272 0.167773
H10   H     H_    0.633351 0.811114 0.406793 0.164574
H11   H     H_    0.133279 0.707128 0.448637 0.148132
H12   H     H_    0.143347 0.314268 0.413921 0.168147
H13   H     H_    0.340679 0.885156 0.245961 0.158631
H14   H     H_    0.378979 0.165563 0.251667 0.170060
H15   H     H_    0.868420 0.343815 0.246546 0.168180
H16   H     H_    0.891169 0.680225 0.262951 0.164715
H17   H     H_    0.673796 0.250120 0.295205 0.138566
H18   H     H_    0.690196 0.773277 0.287254 0.132614
H19   H     H_    0.178453 0.749540 0.325160 0.129345
H20   H     H_    0.177495 0.254599 0.286230 0.137079
H21   H     H_    0.231229 0.817547 0.195782 0.164479
H22   H     H_    0.272767 0.234806 0.179982 0.171444
H23   H     H_    0.761350 0.276423 0.179926 0.177530
H24   H     H_    0.790262 0.757457 0.191447 0.160056
H25   H     H_    0.427293 0.796187 0.595735 0.173355
H26   H     H_    0.300789 0.044291 0.554427 0.166806
H27   H     H_    0.812422 0.435876 0.593080 0.169146
H28   H     H_    0.797429 0.545109 0.535944 0.149627
C65   C     C_R   0.643163 0.006281 0.125041 -0.320676
C66   C     C_R   0.143524 0.498553 0.125148 -0.305545
H29   H     H_    0.670762 0.008223 0.927608 0.162442
H30   H     H_    0.171233 0.495062 0.927449 0.190634
H31   H     H_    0.698654 0.009691 0.116430 0.155557
H32   H     H_    0.199170 0.497541 0.116612 0.172431
N1    N     N_R   0.552340 0.000000 0.237260 -0.119476
N2    N     N_R   0.052340 0.500000 0.237260 -0.119400
C67   C     C_R   0.378269 0.990875 0.765423 0.023319
C68   C     C_R   0.878668 0.512026 0.767413 -0.001969
C69   C     C_R   0.351549 0.988961 0.862098 -0.197782
C70   C     C_R   0.851945 0.512465 0.863991 -0.211372
C71   C     C_R   0.397292 0.993994 0.956520 -0.167441
C72   C     C_R   0.897640 0.504552 0.957576 -0.175456
C73   C     C_R   0.470434 0.999446 0.954058 0.021125
C74   C     C_R   0.970758 0.498715 0.954315 0.017653
C75   C     C_R   0.494784 0.002143 0.852730 0.232906
C76   C     C_R   0.995006 0.496640 0.852625 0.241303
C77   C     C_R   0.520366 0.000766 0.047336 -0.003221
C78   C     C_R   0.020679 0.498022 0.047410 -0.007268
C79   C     C_R   0.592877 0.004463 0.036125 0.178868
C80   C     C_R   0.093273 0.497131 0.036133 0.168267
C81   C     C_R   0.615258 0.006181 0.936118 -0.242182
C82   C     C_R   0.115676 0.495325 0.936021 -0.233936
C83   C     C_R   0.566766 0.004580 0.845725 -0.202039
C84   C     C_R   0.067080 0.495135 0.845595 -0.213995
C85   C     C_R   0.501816 0.998243 0.151639 -0.062994
C86   C     C_R   0.001898 0.499336 0.151681 -0.073757
C87   C     C_R   0.622477 0.004531 0.225683 0.121354
C88   C     C_R   0.122611 0.499964 0.225817 0.117597
N3    N     N_R   0.448170 0.000000 0.762060 -0.131523
N4    N     N_R   0.948170 0.500000 0.762060 -0.125751
H33   H     H_    0.448077 0.995643 0.167413 0.128559
H34   H     H_    0.948119 0.499077 0.167599 0.133673
H35   H     H_    0.343233 0.982775 0.692867 0.127356
H36   H     H_    0.843984 0.524365 0.697187 0.113158
H37   H     H_    0.374156 0.991773 0.029554 0.140526
H38   H     H_    0.874505 0.506357 0.030697 0.149003
H39   H     H_    0.295650 0.982415 0.863782 0.174669
H40   H     H_    0.796123 0.520858 0.866295 0.190337
H41   H     H_    0.587170 0.003785 0.771165 0.213101
H42   H     H_    0.087428 0.496640 0.771091 0.208800
N5    N     N_R   0.666053 0.305466 0.806370 0.196490
O17   O     O_R   0.646517 0.374480 0.816179 -0.364380
O18   O     O_R   0.674344 0.263697 0.890533 -0.399133
N6    N     N_R   0.648396 0.671640 0.773611 0.195361
O19   O     O_R   0.625461 0.603794 0.769550 -0.368536
O20   O     O_R   0.655616 0.706916 0.864684 -0.384657
N7    N     N_R   0.281502 0.676928 0.831094 0.203172
O21   O     O_R   0.307480 0.736314 0.880225 -0.391608
O22   O     O_R   0.277343 0.616638 0.885729 -0.398593
N8    N     N_R   0.153614 0.178986 0.785526 0.197207
O23   O     O_R   0.131350 0.111003 0.786064 -0.403083
O24   O     O_R   0.161229 0.216925 0.874397 -0.392742
C89   C     C_R   0.678984 0.010468 0.316286 0.172092
C90   C     C_R   0.710121 0.946477 0.364156 -0.106890
C91   C     C_R   0.767275 0.951362 0.444749 -0.148032
C92   C     C_R   0.796382 0.020638 0.473656 -0.115544
C93   C     C_R   0.769673 0.084251 0.419373 -0.126935
C94   C     C_R   0.712235 0.078654 0.339224 -0.163053
H43   H     H_    0.691235 0.893186 0.336018 0.110283
H44   H     H_    0.789855 0.901405 0.482888 0.147410
H45   H     H_    0.840963 0.024681 0.535431 0.145725
H46   H     H_    0.794068 0.137539 0.438128 0.152953
H47   H     H_    0.694201 0.126743 0.292933 0.119880
C95   C     C_R   0.179194 0.495096 0.316275 0.169102
C96   C     C_R   0.210636 0.559498 0.362992 -0.104883
C97   C     C_R   0.270310 0.554059 0.439464 -0.133035
C98   C     C_R   0.299884 0.484511 0.467564 -0.105266
C99   C     C_R   0.271511 0.420574 0.416212 -0.131300
C100  C     C_R   0.212650 0.426371 0.338791 -0.156501
H48   H     H_    0.189600 0.613576 0.338624 0.128649
H49   H     H_    0.294712 0.603574 0.475479 0.153404
H50   H     H_    0.346039 0.480425 0.526567 0.154861
H51   H     H_    0.296060 0.366864 0.434362 0.155263
H52   H     H_    0.193975 0.377961 0.293343 0.117408

loop_
_geom_bond_atom_site_label_1
_geom_bond_atom_site_label_2
_geom_bond_distance
_ccdc_geom_bond_type
C94   H47   1.077475 S    
C30   C34   1.403953 A    
C93   C94   1.399246 A    
C11   N7    1.438669 S    
C39   C55   1.392190 A    
C54   H10   1.068344 S    
C27   C31   1.413151 A    
N5    O18   1.301442 A    
C15   C55   1.377670 A    
C91   C92   1.397528 A    
C67   N3    1.358584 A    
C4    C63   1.486154 S    
O10   C6    1.309358 A    
O3    C3    1.304480 A    
C68   N4    1.357415 A    
C95   C96   1.401672 A    
O14   C6    1.305257 A    
C12   C44   1.419120 A    
C35   C51   1.409481 A    
C98   C99   1.395734 A    
H4    C60   1.083397 S    
O7    C3    1.319067 A    
C15   C59   1.396147 A    
C22   C26   1.390729 A    
Zn1   O10   1.971208 S    
C66   C88   1.384441 A    
C26   H20   1.077651 S    
N8    O23   1.301135 A    
Zn4   N4    2.044980 S    
H30   C82   1.084676 S    
C56   H12   1.069249 S    
C37   C41   1.423522 A    
C69   C71   1.388670 A    
C39   C43   1.429693 A    
C92   C93   1.397428 A    
C70   H40   1.082949 S    
C12   C60   1.402875 A    
C12   N8    1.437027 S    
C19   H15   1.083092 S    
C81   C83   1.375946 A    
H2    C58   1.083340 S    
O2    Zn1   1.985286 S    
H1    C57   1.083569 S    
C99   C100  1.397167 A    
O13   C5    1.307175 A    
C10   C42   1.420253 A    
O6    Zn3   1.971083 S    
H3    C59   1.082756 S    
C3    C64   1.477311 S    
Zn3   O14   1.985273 S    
C85   H33   1.076591 S    
O15   C7    1.306120 A    
C2    C61   1.452317 S    
C33   C49   1.409041 A    
C14   C54   1.390171 A    
C91   H44   1.082700 S    
C67   H35   1.073512 S    
C14   C58   1.399570 A    
H7    C47   1.081364 S    
C10   C58   1.403907 A    
O11   C7    1.313352 A    
O4    C4    1.325200 A    
C9    C57   1.393577 A    
C95   C100  1.399884 A    
C40   C44   1.422598 A    
C9    N5    1.437697 S    
C84   H42   1.067187 S    
C11   C43   1.416503 A    
C18   H14   1.083062 S    
C32   C38   1.420832 A    
N2    C86   1.353570 A    
O8    Zn4   1.971083 S    
C65   C79   1.382260 A    
N6    O20   1.301323 A    
C36   C52   1.396101 A    
C29   C39   1.417522 A    
C23   H23   1.082711 S    
C74   C78   1.416595 A    
N7    O22   1.301552 A    
C33   C61   1.404463 A    
N7    O21   1.301443 A    
C9    C41   1.416225 A    
C92   H45   1.082259 S    
C90   H43   1.069909 S    
C20   H16   1.083146 S    
C69   H39   1.082702 S    
C87   C89   1.473985 S    
C11   C59   1.394722 A    
C40   C56   1.389596 A    
Zn2   O12   1.971208 S    
O1    C1    1.307596 A    
C44   C46   1.400873 A    
C86   H34   1.076279 S    
C89   C90   1.396577 A    
C43   C45   1.395686 A    
C25   C29   1.422896 A    
C80   C82   1.389730 A    
O12   C8    1.314039 A    
C16   C56   1.389058 A    
C28   C32   1.415869 A    
O16   C8    1.295930 A    
C1    C62   1.475109 S    
C73   C75   1.422289 A    
O5    C1    1.314618 A    
C19   C23   1.389790 A    
C38   C54   1.384193 A    
C53   H9    1.070816 S    
C37   C53   1.389654 A    
C17   C21   1.384500 A    
O8    C4    1.302906 A    
O5    Zn3   1.962279 S    
C13   C53   1.392412 A    
C52   H28   1.064133 S    
C66   C80   1.382621 A    
C83   H41   1.067493 S    
C50   H26   1.072890 S    
N2    C88   1.373758 A    
C55   H11   1.076020 S    
C49   H25   1.082764 S    
C66   H32   1.086196 S    
O3    Zn2   1.961290 S    
C71   H37   1.077536 S    
C75   N3    1.358755 A    
C78   C80   1.417454 A    
C90   C91   1.398086 A    
Zn4   O15   1.961279 S    
Zn2   N2    2.057234 S    
C13   C57   1.396860 A    
C42   C48   1.398125 A    
N6    O19   1.301057 A    
N1    C87   1.375197 A    
Zn3   N3    2.044980 S    
O1    Zn1   1.961290 S    
C36   C64   1.414562 A    
C68   C70   1.385509 A    
C76   C84   1.396150 A    
C22   H22   1.082642 S    
C76   N4    1.360942 A    
C97   C98   1.396844 A    
C82   C84   1.377087 A    
C70   C72   1.384583 A    
C96   H48   1.080570 S    
C26   C30   1.413371 A    
C65   H31   1.086196 S    
C30   C40   1.417390 A    
C10   N6    1.436893 S    
H5    C45   1.081483 S    
O7    Zn4   1.962279 S    
C72   C74   1.410293 A    
C17   C61   1.400937 A    
C19   C63   1.403005 A    
Zn2   O11   1.962404 S    
C34   C50   1.403753 A    
C48   C52   1.388304 A    
C77   C79   1.418325 A    
C74   C76   1.424174 A    
C5    C14   1.463355 S    
O6    C2    1.311468 A    
C21   H21   1.082960 S    
C98   H50   1.082293 S    
C29   C33   1.408516 A    
C89   C94   1.399885 A    
C18   C62   1.406566 A    
C51   H27   1.048468 S    
C96   C97   1.400856 A    
C78   C86   1.412192 A    
Zn1   N1    2.057234 S    
C93   H46   1.082506 S    
C18   C22   1.389385 A    
C8    C15   1.443383 S    
C31   C35   1.409761 A    
Zn1   O9    1.962404 S    
C32   C36   1.404056 A    
N1    C85   1.355228 A    
N8    O24   1.301372 A    
O9    C5    1.310684 A    
C17   H13   1.083631 S    
C100  H52   1.077150 S    
C31   C37   1.426790 A    
C72   H38   1.077208 S    
C88   C95   1.472154 S    
Zn3   O13   1.961279 S    
H29   C81   1.084691 S    
C25   H19   1.075408 S    
C21   C25   1.390077 A    
C34   C62   1.417421 A    
C27   H17   1.077271 S    
C46   C50   1.389369 A    
H6    C46   1.080348 S    
C41   C47   1.385212 A    
C23   C27   1.392067 A    
C99   H51   1.082670 S    
C65   C87   1.383252 A    
O4    Zn2   1.985286 S    
C73   C77   1.418575 A    
C67   C69   1.387655 A    
C77   C85   1.412420 A    
C97   H49   1.079808 S    
C28   H18   1.075659 S    
C68   H36   1.061042 S    
H8    C48   1.079966 S    
C20   C24   1.389045 A    
C75   C83   1.395753 A    
C38   C42   1.422515 A    
C24   H24   1.082752 S    
Zn4   O16   1.985273 S    
C20   C64   1.405398 A    
C35   C63   1.435895 A    
N5    O17   1.301317 A    
C71   C73   1.411457 A    
C79   C81   1.389146 A    
C45   C49   1.380307 A    
C16   C60   1.400399 A    
C7    C16   1.465632 S    
C47   C51   1.377576 A    
C24   C28   1.391289 A    
C6    C13   1.454723 S    
O2    C2    1.301283 A    
