data_mof_unit_28515.cif
_audit_creation_date              2012-12-11T16:20:21-0500
_audit_creation_method            fapswitch 2.2
_symmetry_space_group_name_H-M    P1
_symmetry_Int_Tables_number       1
_space_group_crystal_system       triclinic
_cell_length_a                    6.91568
_cell_length_b                    34.281222
_cell_length_c                    38.420193
_cell_angle_alpha                 99.60543
_cell_angle_beta                  89.793547
_cell_angle_gamma                 90.394304
_cell_volume                      8980.64029195

loop_
_atom_site_label
_atom_site_type_symbol
_atom_type_description
_atom_site_fract_x
_atom_site_fract_y
_atom_site_fract_z
_atom_type_partial_charge
O1    O     O_R   0.494320 0.461440 0.460990 -0.539836
O2    O     O_R   0.821450 0.462560 0.532500 -0.542200
O3    O     O_R   0.994330 0.538560 0.539010 -0.537052
C1    C     C_R   0.652034 0.453827 0.543722 0.708483
O4    O     O_R   0.823870 0.456770 0.460860 -0.542625
O5    O     O_R   0.996760 0.532730 0.466860 -0.538594
C2    C     C_R   0.654703 0.446007 0.447918 0.708475
O6    O     O_R   0.491880 0.467270 0.533140 -0.538457
O7    O     O_3   0.661650 0.524930 0.502050 -0.364633
V1    V     V_3+5 0.935500 0.495380 0.499620 1.420652
O8    O     O_R   0.326630 0.537440 0.467500 -0.541939
C3    C     C_R   0.158192 0.546029 0.456159 0.711152
O9    O     O_R   0.324210 0.543230 0.539140 -0.540417
C4    C     C_R   0.155478 0.553978 0.552084 0.735722
V2    V     V_3+5 0.435810 0.504620 0.500380 1.423790
O10   O     O_3   0.159790 0.475070 0.497950 -0.370500
C5    C     C_R   0.940615 0.826100 0.795559 0.574796
N1    N     N_R   0.044616 0.822864 0.825310 -0.556488
C6    C     C_R   0.164468 0.791176 0.825792 0.627410
C7    C     C_R   0.184915 0.761657 0.795647 -0.100850
C8    C     C_R   0.079394 0.764547 0.765082 0.008358
C9    C     C_R   0.955618 0.797066 0.764984 -0.005823
C10   C     C_R   0.312273 0.729992 0.795329 -0.177108
C11   C     C_R   0.336089 0.700808 0.765291 0.467355
C12   C     C_R   0.220894 0.702111 0.734648 -0.160096
C13   C     C_R   0.098035 0.735101 0.734533 -0.058626
C14   C     C_R   0.994566 0.739110 0.703735 -0.015319
C15   C     C_R   0.872155 0.771717 0.703935 -0.087468
C16   C     C_R   0.851965 0.800170 0.734219 -0.146147
C17   C     C_R   0.220673 0.672128 0.704095 0.751709
N2    N     N_R   0.124509 0.677439 0.674081 -0.564399
C18   C     C_R   0.016707 0.710540 0.673246 0.743730
O11   O     O_2   0.825311 0.857628 0.795262 -0.526262
O12   O     O_2   0.263160 0.788032 0.855420 -0.506661
H1    H     H_    0.397370 0.728412 0.818625 0.219929
O13   O     O_2   0.311319 0.637559 0.704259 -0.443994
O14   O     O_2   0.931643 0.715873 0.642879 -0.440615
H2    H     H_    0.790396 0.775267 0.680684 0.192741
H3    H     H_    0.755768 0.824779 0.733325 0.173978
C19   C     C_R   0.293478 0.644230 0.619763 0.446473
C20   C     C_R   0.300197 0.613527 0.590501 -0.295758
H4    H     H_    0.424003 0.611196 0.572984 0.165300
C21   C     C_R   0.146786 0.586261 0.583208 -0.111971
C22   C     C_R   0.985953 0.590040 0.605971 -0.172430
H5    H     H_    0.865682 0.569463 0.601166 0.142376
C23   C     C_R   0.980662 0.619829 0.635722 -0.053303
H6    H     H_    0.857516 0.621577 0.653355 0.199363
C24   C     C_R   0.133397 0.647121 0.642976 0.247166
C25   C     C_R   0.198217 0.874856 0.869279 -0.085340
H7    H     H_    0.336413 0.868446 0.856310 0.133342
C26   C     C_R   0.187365 0.904567 0.899030 -0.192713
H8    H     H_    0.318554 0.920297 0.908323 0.125874
C27   C     C_R   0.009591 0.914069 0.916303 -0.054793
C28   C     C_R   0.843019 0.892879 0.902960 -0.194403
H9    H     H_    0.703773 0.899287 0.915519 0.132809
C29   C     C_R   0.854397 0.862928 0.873291 -0.065733
H10   H     H_    0.724650 0.846831 0.863719 0.144623
C30   C     C_R   0.032144 0.853637 0.856120 0.363245
C31   C     C_R   0.909018 0.853325 0.174222 0.627147
O15   O     O_2   0.781739 0.883434 0.178521 -0.529772
N3    N     N_R   0.032212 0.848258 0.145931 -0.560331
C32   C     C_R   0.164870 0.818249 0.141520 0.685845
C33   C     C_R   0.187539 0.895701 0.112259 -0.090836
C34   C     C_R   0.179310 0.921120 0.087341 -0.186170
C35   C     C_R   0.839167 0.905754 0.078207 -0.209064
C36   C     C_R   0.848127 0.880011 0.102853 -0.036934
C37   C     C_R   0.022269 0.874764 0.120240 0.347929
C38   C     C_R   0.057557 0.798099 0.196423 -0.093976
C39   C     C_R   0.913201 0.827318 0.198843 0.032100
C40   C     C_R   0.776033 0.830374 0.225940 -0.114129
C41   C     C_R   0.191696 0.794192 0.167998 -0.198380
C42   C     C_R   0.004827 0.926559 0.070041 -0.052563
H11   H     H_    0.702537 0.909120 0.065377 0.139186
H12   H     H_    0.718914 0.864134 0.108324 0.190865
H13   H     H_    0.663499 0.852500 0.228247 0.162584
C43   C     C_R   0.148760 0.572971 0.429724 -0.057872
C44   C     C_R   0.927771 0.749286 0.274539 0.029737
C45   C     C_R   0.235577 0.722068 0.248906 0.056656
C46   C     C_R   0.086979 0.723368 0.274682 0.070280
C47   C     C_R   0.779013 0.747974 0.299776 -0.184490
C48   C     C_R   0.790678 0.723401 0.325095 -0.128388
C49   C     C_R   0.950167 0.698834 0.326258 -0.029458
C50   C     C_R   0.098119 0.698571 0.300986 -0.050718
C51   C     C_R   0.257392 0.673490 0.302110 -0.042470
C52   C     C_R   0.264636 0.648826 0.327977 0.593042
N4    N     N_R   0.119700 0.649629 0.352594 -0.554997
C53   C     C_R   0.964619 0.674361 0.352197 0.589768
C54   C     C_R   0.292135 0.624360 0.400809 -0.078933
C55   C     C_R   0.302717 0.598876 0.425687 -0.198296
C56   C     C_R   0.985056 0.572852 0.408073 -0.194703
C57   C     C_R   0.976417 0.597697 0.382710 -0.074422
C58   C     C_R   0.129339 0.623878 0.378884 0.350995
O16   O     O_2   0.825436 0.675719 0.377073 -0.527409
C59   C     C_R   0.922537 0.775545 0.249394 0.059360
C60   C     C_R   0.066691 0.772969 0.222550 0.083923
C61   C     C_R   0.219414 0.745531 0.221646 -0.041285
C62   C     C_R   0.778997 0.804868 0.250435 -0.180685
H14   H     H_    0.430337 0.599814 0.442070 0.140627
H15   H     H_    0.411037 0.644529 0.398610 0.165161
H16   H     H_    0.672571 0.723633 0.343736 0.169206
H17   H     H_    0.648582 0.765036 0.300352 0.129212
H18   H     H_    0.668946 0.809807 0.270541 0.123031
O17   O     O_2   0.264098 0.811090 0.110966 -0.439177
C63   C     C_R   0.343205 0.766081 0.167185 0.473073
H19   H     H_    0.309555 0.936774 0.081877 0.128323
H20   H     H_    0.322998 0.892369 0.125486 0.144519
C64   C     C_R   0.396998 0.697509 0.251667 -0.166591
C65   C     C_R   0.406481 0.673586 0.277500 -0.119473
O18   O     O_2   0.414372 0.623808 0.328088 -0.518362
C66   C     C_R   0.351637 0.742248 0.193328 -0.233709
H21   H     H_    0.522154 0.696657 0.234822 0.142536
H22   H     H_    0.864639 0.553047 0.410330 0.137263
H23   H     H_    0.533181 0.655325 0.278249 0.177743
H24   H     H_    0.850521 0.596415 0.365868 0.161553
H25   H     H_    0.462815 0.720253 0.190387 0.189511
C67   C     C_R   0.748469 0.320290 0.646753 0.581357
O19   O     O_2   0.898307 0.317679 0.623901 -0.526100
N5    N     N_R   0.604949 0.347409 0.645089 -0.553730
C68   C     C_R   0.449293 0.349451 0.667611 0.593940
C69   C     C_R   0.783213 0.397589 0.617460 -0.076090
C70   C     C_R   0.795686 0.423041 0.592545 -0.199490
C71   C     C_R   0.474217 0.402983 0.571803 -0.201018
C72   C     C_R   0.463870 0.376778 0.596079 -0.082839
C73   C     C_R   0.617538 0.373984 0.619418 0.351091
C74   C     C_R   0.580167 0.295972 0.694812 -0.048638
C75   C     C_R   0.739894 0.294624 0.671860 -0.036482
C76   C     C_R   0.887619 0.267650 0.674317 -0.130141
C77   C     C_R   0.432851 0.323470 0.692337 -0.034991
C78   C     C_R   0.640670 0.426253 0.569627 -0.056404
H26   H     H_    0.352956 0.404600 0.554345 0.137595
H27   H     H_    0.335646 0.358596 0.596698 0.158747
H28   H     H_    0.013291 0.266170 0.657231 0.171321
C79   C     C_R   0.509723 0.072148 0.929000 -0.173734
C80   C     C_R   0.705578 0.216258 0.747530 0.039343
C81   C     C_R   0.394795 0.246274 0.768960 0.006190
C82   C     C_R   0.544001 0.218454 0.770868 0.064612
C83   C     C_R   0.849270 0.187725 0.750303 -0.183721
C84   C     C_R   0.836330 0.162721 0.775183 -0.123329
C85   C     C_R   0.680314 0.165021 0.798595 -0.034868
C86   C     C_R   0.532644 0.192736 0.796566 -0.107353
C87   C     C_R   0.375653 0.194955 0.820553 -0.054711
C88   C     C_R   0.371244 0.168986 0.845761 0.653856
N6    N     N_R   0.518350 0.142828 0.847385 -0.563599
C89   C     C_R   0.670993 0.140453 0.824462 0.609438
C90   C     C_R   0.394195 0.085511 0.872206 -0.058223
C91   C     C_R   0.391230 0.062500 0.899056 -0.241817
C92   C     C_R   0.629594 0.106277 0.931963 0.425906
C93   C     C_R   0.633680 0.128689 0.904502 -0.129526
C94   C     C_R   0.516533 0.118552 0.874675 0.285045
O20   O     O_2   0.813899 0.114384 0.826741 -0.511894
C95   C     C_R   0.718641 0.242449 0.722333 0.028744
C96   C     C_R   0.567838 0.269920 0.720176 0.065141
C97   C     C_R   0.405004 0.271727 0.743091 0.041184
C98   C     C_R   0.878117 0.242284 0.699020 -0.179638
H29   H     H_    0.296765 0.036829 0.896345 0.144256
H30   H     H_    0.301716 0.077587 0.849406 0.151003
H31   H     H_    0.951729 0.141727 0.776231 0.169328
H32   H     H_    0.975272 0.183686 0.733641 0.127801
H33   H     H_    0.000386 0.223093 0.699139 0.128933
O21   O     O_2   0.311503 0.376906 0.666531 -0.525100
C99   C     C_R   0.272091 0.324556 0.714567 -0.123763
H34   H     H_    0.925287 0.440777 0.591656 0.136051
H35   H     H_    0.902681 0.396395 0.635384 0.167763
H36   H     H_    0.154814 0.344953 0.712875 0.172637
C100  C     C_R   0.241392 0.248211 0.793602 -0.226677
C101  C     C_R   0.231184 0.223496 0.819056 0.219794
O22   O     O_2   0.222648 0.169950 0.868716 -0.461893
C102  C     C_R   0.257484 0.299183 0.739192 -0.173699
H37   H     H_    0.126371 0.269317 0.794549 0.129349
H38   H     H_    0.724370 0.154824 0.906499 0.197717
H39   H     H_    0.126216 0.301805 0.754472 0.132385
C103  C     C_R   0.477328 0.168464 0.207972 0.573341
N7    N     N_R   0.521653 0.177048 0.175221 -0.555041
C104  C     C_R   0.577717 0.214605 0.171391 0.625044
C105  C     C_R   0.596508 0.244731 0.201082 -0.116496
C106  C     C_R   0.552171 0.236428 0.234723 -0.010399
C107  C     C_R   0.489807 0.197985 0.238219 -0.009923
C108  C     C_R   0.660634 0.282703 0.197620 -0.174668
C109  C     C_R   0.683319 0.312836 0.226968 0.457247
C110  C     C_R   0.636031 0.305024 0.261526 -0.171910
C111  C     C_R   0.570537 0.266409 0.264900 -0.064719
C112  C     C_R   0.523476 0.257395 0.298486 0.001971
C113  C     C_R   0.460009 0.219062 0.301560 -0.138173
C114  C     C_R   0.443872 0.189733 0.271849 -0.141727
C115  C     C_R   0.649730 0.333666 0.292965 0.667007
N8    N     N_R   0.603369 0.324029 0.325236 -0.573248
C116  C     C_R   0.541266 0.286853 0.328417 0.570610
O23   O     O_2   0.424635 0.131341 0.211447 -0.520398
O24   O     O_2   0.614746 0.222911 0.138889 -0.495471
H40   H     H_    0.695615 0.288814 0.171591 0.226490
O25   O     O_2   0.705783 0.371045 0.291735 -0.447184
O26   O     O_2   0.497739 0.278347 0.360606 -0.518769
H41   H     H_    0.423088 0.211488 0.327041 0.173454
H42   H     H_    0.395378 0.160533 0.275370 0.174068
C117  C     C_R   0.798197 0.368592 0.369174 -0.074711
H43   H     H_    0.929063 0.357055 0.355830 0.123613
C118  C     C_R   0.811076 0.398210 0.399020 -0.187988
H44   H     H_    0.952701 0.409021 0.408071 0.127769
C119  C     C_R   0.642796 0.413913 0.416652 -0.059232
C120  C     C_R   0.461721 0.398943 0.403791 -0.191651
H45   H     H_    0.329070 0.410213 0.416629 0.130427
C121  C     C_R   0.449286 0.369265 0.374072 -0.070380
H46   H     H_    0.308642 0.358383 0.364498 0.120584
C122  C     C_R   0.617201 0.353961 0.356466 0.369955
C123  C     C_R   0.684337 0.137022 0.124181 -0.109297
H47   H     H_    0.816337 0.153268 0.132057 0.127660
C124  C     C_R   0.683260 0.107592 0.093833 0.181668
C125  C     C_R   0.510420 0.085896 0.083908 -0.051443
C126  C     C_R   0.344885 0.094506 0.105178 -0.259564
H48   H     H_    0.213223 0.077568 0.099108 0.160775
C127  C     C_R   0.347269 0.124429 0.134825 -0.080064
H49   H     H_    0.216521 0.130744 0.150272 0.140788
C128  C     C_R   0.517083 0.146011 0.144572 0.335427
O27   O     O_R   0.662230 0.032770 0.966890 -0.515304
O28   O     O_R   0.330090 0.043230 0.039150 -0.538880
O29   O     O_R   0.157350 0.967260 0.033130 -0.548159
C129  C     C_R   0.499530 0.054013 0.052197 0.761023
O30   O     O_R   0.332650 0.037450 0.967510 -0.525740
O31   O     O_R   0.159930 0.961430 0.960980 -0.548151
C130  C     C_R   0.501830 0.046305 0.956411 0.803461
O32   O     O_R   0.659640 0.038600 0.039040 -0.518320
O33   O     O_3   0.492510 0.975090 0.997960 -0.391620
V3    V     V_3+5 0.218600 0.004620 0.000380 1.524026
O34   O     O_R   0.830050 0.956730 0.960830 -0.549737
C131  C     C_R   0.998965 0.946048 0.947784 0.692429
O35   O     O_R   0.827490 0.962520 0.032470 -0.548573
C132  C     C_R   0.995907 0.953872 0.043813 0.697614
V4    V     V_3+5 0.718310 0.995320 0.999580 1.500454
O36   O     O_3   0.994270 0.024900 0.002040 -0.322901
S1    S     S_3+6 0.524053 0.666020 0.767130 0.085527
O37   O     O_2   0.651705 0.663980 0.735123 -0.295928
O38   O     O_2   0.645684 0.677882 0.799585 -0.314107
O39   O     O_3   0.426094 0.621228 0.768371 -0.445337
H50   H     H_    0.537416 0.602977 0.766718 0.388022
S2    S     S_3+6 0.535242 0.760056 0.135770 0.061794
O40   O     O_2   0.459531 0.739621 0.100770 -0.247059
O41   O     O_2   0.617223 0.799743 0.131808 -0.339691
O42   O     O_3   0.713923 0.732641 0.148731 -0.509927
H51   H     H_    0.825718 0.736598 0.133478 0.378296
S3    S     S_3+6 0.757952 0.124371 0.971004 0.007733
O43   O     O_2   0.622775 0.125624 0.001870 -0.361619
O44   O     O_2   0.924293 0.097447 0.974760 -0.329865
O45   O     O_3   0.843757 0.170207 0.970022 -0.476374
H52   H     H_    0.912011 0.177899 0.992782 0.387664
N9    N     N_3   0.074821 0.228726 0.844002 -0.571427
H53   H     H_    0.083196 0.257518 0.858144 0.245893
H54   H     H_    0.944531 0.226118 0.830104 0.232131
S4    S     S_3+6 0.774217 0.358895 0.218037 0.111298
O46   O     O_2   0.958550 0.369186 0.238235 -0.279610
O47   O     O_2   0.815614 0.356846 0.179326 -0.294419
O48   O     O_3   0.609060 0.394373 0.230332 -0.438765
H55   H     H_    0.674157 0.419359 0.227117 0.392544
S5    S     S_3+6 0.483893 0.679222 0.626383 0.041308
O49   O     O_2   0.404121 0.720175 0.628096 -0.315500
O50   O     O_2   0.582071 0.676823 0.660725 -0.295237
O51   O     O_3   0.647378 0.670435 0.593518 -0.476745
H56   H     H_    0.585922 0.679762 0.573179 0.345016
N10   N     N_3   0.857525 0.099925 0.073402 -0.630662
H57   H     H_    0.833093 0.107789 0.048748 0.310297
H58   H     H_    0.968803 0.118647 0.084541 0.222743

loop_
_geom_bond_atom_site_label_1
_geom_bond_atom_site_label_2
_ccdc_geom_bond_type
C103  C107  A    
C46   C50   A    
C41   C63   A    
C100  C101  A    
C9    C16   A    
S2    O41   D    
C20   H4    S    
C28   H9    S    
N10   H58   S    
C60   C61   A    
C56   H22   S    
C1    O6    A    
O34   C131  A    
C80   C83   A    
C90   C91   A    
C56   C57   A    
C35   C36   A    
C81   C82   A    
C92   S3    S    
S4    O46   D    
C127  H49   S    
O32   V4    S    
C87   C101  A    
C75   C76   A    
C121  C122  A    
C83   H32   S    
C77   C99   A    
C15   C16   A    
C11   S1    S    
O28   C129  A    
O5    C3    A    
C17   N2    A    
C108  H40   S    
C114  H42   S    
C70   H34   S    
N6    C89   A    
C36   H12   S    
C44   C59   A    
C12   C17   A    
C35   H11   S    
C67   O19   S    
S1    O39   S    
N1    C6    A    
C95   C98   A    
V3    O36   S    
C118  C119  A    
N5    C68   A    
C38   C60   A    
C108  C109  A    
C89   O20   S    
C69   H35   S    
C113  H41   S    
C88   O22   S    
C104  C105  A    
C90   H30   S    
O8    V2    S    
N1    C30   S    
C102  H39   S    
N4    C58   S    
C91   H29   S    
N2    C18   A    
C35   C42   A    
C45   C61   A    
C120  H45   S    
C25   C26   A    
C42   C132  S    
O45   H52   S    
C74   C77   A    
C93   H38   S    
S2    O40   D    
C106  C107  A    
C79   C92   A    
O33   V4    S    
O27   V4    S    
O7    V1    S    
C71   C78   A    
C62   H18   S    
C40   C62   A    
C82   C86   A    
C43   C55   A    
C112  C116  A    
C72   C73   A    
C27   C131  S    
C68   C77   A    
N3    C32   A    
C123  C124  A    
C36   C37   A    
C69   C70   A    
C123  C128  A    
C119  C120  A    
C67   C75   A    
O9    C4    A    
C129  O32   A    
C20   C21   A    
C104  O24   S    
C118  H44   S    
C87   C88   A    
C5    O11   S    
C54   H15   S    
O34   V4    S    
C76   C98   A    
O4    V1    S    
V4    O36   S    
C8    C13   A    
S4    O47   D    
C115  O25   S    
C105  C108  A    
C28   C29   A    
C63   S2    S    
C100  H37   S    
C106  C111  A    
C126  H48   S    
C33   C37   A    
C31   N3    A    
C79   C130  S    
C72   H27   S    
C121  H46   S    
C92   C93   A    
C124  C125  A    
O29   C132  A    
C54   C58   A    
O30   V3    S    
C11   C12   A    
O48   H55   S    
C67   N5    A    
O42   H51   S    
C125  C126  A    
C57   C58   A    
S5    O50   D    
N4    C53   A    
C68   O21   S    
C80   C82   A    
C117  C122  A    
C22   C23   A    
C59   C62   A    
C12   C13   A    
C111  C112  A    
C124  N10   S    
C61   C66   A    
C49   C50   A    
S3    O45   S    
C48   C49   A    
C25   C30   A    
C26   H8    S    
C45   C64   A    
C26   C27   A    
C65   H23   S    
O2    C1    A    
C21   C22   A    
C113  C114  A    
C74   C96   A    
C85   C89   A    
N3    C37   S    
O30   C130  A    
C50   C51   A    
C7    C10   A    
C15   H2    S    
C95   C96   A    
O51   H56   S    
C16   H3    S    
S3    O44   D    
C5    N1    A    
C81   C100  A    
C44   C46   A    
N8    C122  S    
C59   C60   A    
N5    C73   S    
C18   O14   S    
C51   C52   A    
C33   H20   S    
S1    O38   D    
C112  C113  A    
C76   H28   S    
C52   N4    A    
O3    C4    A    
C31   C39   A    
O1    V2    S    
C19   S5    S    
C120  C121  A    
C19   C20   A    
C127  C128  A    
O35   C132  A    
O6    V2    S    
O35   V4    S    
N2    C24   S    
N9    H54   S    
C3    C43   S    
C13   C14   A    
C74   C75   A    
N7    C128  S    
S2    O42   S    
C49   C53   A    
N8    C116  A    
C29   H10   S    
C64   C65   A    
O2    V1    S    
C40   H13   S    
C99   H36   S    
C98   H33   S    
C103  N7    A    
C96   C97   A    
O4    C2    A    
C32   O17   S    
O39   H50   S    
C44   C47   A    
C125  C129  S    
C19   C24   A    
C123  H47   S    
C23   H6    S    
C126  C127  A    
C34   H19   S    
C14   C18   A    
O1    C2    A    
C101  N9    S    
C64   H21   S    
C38   C39   A    
C22   H5    S    
C70   C78   A    
C47   C48   A    
C6    O12   S    
O28   V3    S    
O5    V1    S    
S5    O51   S    
C66   H25   S    
C85   C86   A    
S4    O48   S    
C27   C28   A    
C1    C78   S    
C48   H16   S    
C109  C110  A    
O31   C131  A    
C107  C114  A    
C83   C84   A    
C47   H17   S    
C10   H1    S    
C5    C9    A    
C81   C97   A    
C57   H24   S    
C17   O13   S    
C55   H14   S    
C116  O26   S    
C8    C9    A    
C6    C7    A    
O9    V2    S    
N10   H57   S    
O7    V2    S    
O29   V3    S    
S1    O37   D    
C97   C102  A    
C105  C106  A    
O27   C130  A    
C117  H43   S    
C63   C66   A    
C45   C46   A    
C84   H31   S    
C115  N8    A    
S5    O49   D    
V1    O10   S    
N6    C94   S    
C103  O23   S    
C38   C41   A    
C86   C87   A    
C80   C95   A    
C53   O16   S    
S3    O43   D    
C51   C65   A    
C29   C30   A    
C32   C41   A    
C93   C94   A    
C34   C42   A    
C2    C119  S    
C39   C40   A    
C52   O18   S    
C99   C102  A    
C84   C85   A    
C10   C11   A    
O31   V3    S    
C33   C34   A    
C23   C24   A    
C69   C73   A    
C31   O15   S    
C54   C55   A    
C7    C8    A    
C25   H7    S    
C110  C115  A    
C14   C15   A    
O3    V1    S    
C88   N6    A    
C109  S4    S    
C79   C91   A    
C71   C72   A    
N9    H53   S    
N7    C104  A    
O33   V3    S    
C71   H26   S    
C90   C94   A    
C110  C111  A    
V2    O10   S    
O8    C3    A    
C43   C56   A    
C4    C21   S    
C117  C118  A    
