data_mof_unit_38999.cif
_audit_creation_date              2013-03-05T15:53:03-0500
_audit_creation_method            fapswitch 2.2
_symmetry_space_group_name_H-M    P1
_symmetry_Int_Tables_number       1
_space_group_crystal_system       triclinic
_cell_length_a                    19.843735
_cell_length_b                    17.25329
_cell_length_c                    15.330672
_cell_angle_alpha                 89.986097
_cell_angle_beta                  52.773531
_cell_angle_gamma                 89.995873
_cell_volume                      4179.32601413

loop_
_atom_site_label
_atom_site_type_symbol
_atom_site_description
_atom_site_fract_x
_atom_site_fract_y
_atom_site_fract_z
_atom_type_partial_charge
C1    C     C_R   0.847528 0.680005 0.032025 0.495331
C2    C     C_R   0.152597 0.679929 0.967696 0.495742
C3    C     C_R   0.347413 0.179930 0.032235 0.493011
C4    C     C_R   0.651997 0.180366 0.968922 0.499654
N1    N     N_R   0.908660 0.628630 0.995840 -0.111492
N2    N     N_R   0.091340 0.628630 0.004160 -0.111289
N3    N     N_R   0.408660 0.128630 0.995840 -0.111668
N4    N     N_R   0.591340 0.128630 0.004160 -0.113133
C5    C     C_R   0.848575 0.332744 0.216049 -0.031559
C6    C     C_R   0.152516 0.333842 0.782939 -0.074863
C7    C     C_R   0.347478 0.833831 0.217064 -0.072604
C8    C     C_R   0.652157 0.833397 0.782764 -0.071141
H1    H     H_    0.827051 0.286659 0.191209 0.157730
H2    H     H_    0.176697 0.292513 0.809751 0.179713
H3    H     H_    0.323307 0.792504 0.190258 0.180825
H4    H     H_    0.675950 0.791327 0.809272 0.180354
N5    N     N_R   0.922310 0.368460 0.151950 -0.050221
N6    N     N_R   0.077690 0.368460 0.848050 -0.052275
N7    N     N_R   0.422310 0.868460 0.151950 -0.053003
N8    N     N_R   0.577690 0.868460 0.848050 -0.053659
C9    C     C_R   0.871819 0.384230 0.890496 0.561894
C10   C     C_R   0.127828 0.384154 0.109943 0.559725
C11   C     C_R   0.372173 0.884244 0.890035 0.564401
C12   C     C_R   0.628078 0.884209 0.109648 0.555625
N9    N     N_R   0.903470 0.421430 0.936420 -0.116534
N10   N     N_R   0.096530 0.421430 0.063580 -0.116523
N11   N     N_R   0.403470 0.921430 0.936420 -0.114417
N12   N     N_R   0.596530 0.921430 0.063580 -0.115185
C13   C     C_R   0.915783 0.608779 0.298189 0.328141
C14   C     C_R   0.084010 0.608771 0.701789 0.333510
C15   C     C_R   0.415823 0.108723 0.298315 0.329585
C16   C     C_R   0.587016 0.109027 0.700286 0.263967
N13   N     N_R   0.927500 0.575670 0.211370 -0.110410
N14   N     N_R   0.072500 0.575670 0.788630 -0.111150
N15   N     N_R   0.427500 0.075670 0.211370 -0.110249
N16   N     N_R   0.572500 0.075670 0.788630 -0.103215
C17   C     C_R   0.880020 0.298510 0.990046 -0.242529
C18   C     C_R   0.119567 0.298389 0.010603 -0.216451
C19   C     C_R   0.380349 0.798422 0.989463 -0.228345
C20   C     C_R   0.619885 0.798469 0.010175 -0.228181
H5    H     H_    0.890607 0.244058 0.015028 0.161941
H6    H     H_    0.109059 0.244001 0.985417 0.163555
H7    H     H_    0.390808 0.744014 0.014687 0.162013
H8    H     H_    0.609412 0.744065 0.984988 0.160268
N17   N     N_R   0.908660 0.365680 0.995820 -0.080500
N18   N     N_R   0.091340 0.365680 0.004180 -0.082279
N19   N     N_R   0.408660 0.865680 0.995820 -0.080478
N20   N     N_R   0.591340 0.865680 0.004180 -0.079673
C21   C     C_R   0.898188 0.697608 0.209645 -0.088995
C22   C     C_R   0.101667 0.697662 0.790039 -0.089106
C23   C     C_R   0.398242 0.197636 0.209967 -0.085591
C24   C     C_R   0.602838 0.197854 0.790798 -0.036284
H9    H     H_    0.898611 0.753564 0.178023 0.183992
H10   H     H_    0.101217 0.753719 0.821456 0.186455
H11   H     H_    0.398709 0.253700 0.178521 0.186120
H12   H     H_    0.603797 0.253935 0.821118 0.183967
N21   N     N_R   0.922310 0.631420 0.151980 -0.068840
N22   N     N_R   0.077690 0.631420 0.848020 -0.068886
N23   N     N_R   0.422310 0.131420 0.151980 -0.068650
N24   N     N_R   0.577690 0.131420 0.848020 -0.070438
C25   C     C_R   0.855907 0.422988 0.314681 -0.044941
C26   C     C_R   0.143816 0.423332 0.685152 -0.041890
C27   C     C_R   0.356144 0.923323 0.314830 -0.043888
C28   C     C_R   0.643864 0.923497 0.685345 -0.032696
H13   H     H_    0.839717 0.459809 0.381405 0.191918
H14   H     H_    0.159787 0.461729 0.619917 0.181067
H15   H     H_    0.340119 0.961732 0.380053 0.180870
H16   H     H_    0.660983 0.962749 0.620468 0.146981
N25   N     N_R   0.927500 0.426330 0.211360 -0.060217
N26   N     N_R   0.072500 0.426330 0.788640 -0.059312
N27   N     N_R   0.427500 0.926330 0.211360 -0.059738
N28   N     N_R   0.572500 0.926330 0.788640 -0.056523
C29   C     C_R   0.833276 0.585039 0.944884 0.511051
C30   C     C_R   0.166854 0.584967 0.054868 0.507235
C31   C     C_R   0.333255 0.085042 0.944913 0.495628
C32   C     C_R   0.666191 0.085390 0.056167 0.512992
N29   N     N_R   0.903470 0.570760 0.936440 -0.124743
N30   N     N_R   0.096530 0.570760 0.063560 -0.123953
N31   N     N_R   0.403470 0.070760 0.936440 -0.123452
N32   N     N_R   0.596530 0.070760 0.063560 -0.125876
C33   C     C_R   0.795866 0.652449 0.006174 -0.194396
C34   C     C_R   0.204345 0.652358 0.993417 -0.194673
C35   C     C_R   0.295720 0.152387 0.006410 -0.190728
C36   C     C_R   0.703375 0.152957 0.995288 -0.193401
C37   C     C_R   0.806557 0.363615 0.319159 -0.003319
C38   C     C_R   0.194550 0.364541 0.679189 0.009376
C39   C     C_R   0.305409 0.864531 0.320796 0.010407
C40   C     C_R   0.693880 0.864085 0.679041 0.010019
C41   C     C_R   0.854029 0.308516 0.926696 0.037561
C42   C     C_R   0.145351 0.308318 0.074228 0.040385
C43   C     C_R   0.354564 0.808408 0.925822 0.041479
C44   C     C_R   0.645798 0.808448 0.073645 0.044537
C45   C     C_R   0.892701 0.684682 0.302885 -0.056872
C46   C     C_R   0.107126 0.684746 0.696658 -0.059666
C47   C     C_R   0.392665 0.184689 0.303427 -0.060750
C48   C     C_R   0.609733 0.184605 0.697457 -0.067640
Ni1   Ni    Ni4+2 0.000000 0.630300 0.000000 0.253171
Ni2   Ni    Ni4+2 0.500000 0.130300 0.000000 0.255390
Ni3   Ni    Ni4+2 0.000000 0.369700 0.000000 0.224029
Ni4   Ni    Ni4+2 0.500000 0.869700 0.000000 0.221699
Ni5   Ni    Ni4+2 0.988090 0.497570 0.863760 0.281832
Ni6   Ni    Ni4+2 0.011910 0.497570 0.136240 0.283034
Ni7   Ni    Ni4+2 0.488090 0.997570 0.863760 0.281398
Ni8   Ni    Ni4+2 0.511910 0.997570 0.136240 0.284019
C49   C     C_R   0.849339 0.714812 0.489565 -0.056752
C50   C     C_R   0.148822 0.715661 0.510203 -0.061570
C51   C     C_R   0.350896 0.215584 0.489883 -0.060146
C52   C     C_R   0.682382 0.202038 0.503441 -0.014375
C53   C     C_R   0.869751 0.740048 0.389166 0.163200
C54   C     C_R   0.129259 0.740330 0.610432 0.156092
C55   C     C_R   0.370475 0.240265 0.389643 0.153383
C56   C     C_R   0.640265 0.235968 0.606269 0.168692
C57   C     C_R   0.355956 0.319056 0.381719 -0.148231
C58   C     C_R   0.636900 0.317199 0.614445 -0.133141
C59   C     C_R   0.854203 0.818393 0.381250 -0.160993
C60   C     C_R   0.143820 0.819115 0.618291 -0.146323
H17   H     H_    0.374501 0.343464 0.305098 0.152076
H18   H     H_    0.602910 0.345361 0.693540 0.146547
H19   H     H_    0.872255 0.842518 0.304727 0.139630
H20   H     H_    0.125271 0.843522 0.694900 0.151777
C61   C     C_R   0.307568 0.365003 0.476673 -0.099519
C62   C     C_R   0.684861 0.361997 0.518377 -0.091882
C63   C     C_R   0.804167 0.863734 0.476142 -0.075496
C64   C     C_R   0.192277 0.865042 0.523290 -0.095677
H21   H     H_    0.291380 0.422953 0.469666 0.200969
H22   H     H_    0.687457 0.424138 0.524585 0.194843
H23   H     H_    0.784741 0.920149 0.468524 0.164164
H24   H     H_    0.208495 0.922981 0.530247 0.201180
C65   C     C_R   0.271832 0.332406 0.580417 0.030521
C66   C     C_R   0.735613 0.325102 0.415542 0.001892
C67   C     C_R   0.770040 0.831551 0.579794 0.038330
C68   C     C_R   0.228050 0.832433 0.419565 0.031473
C69   C     C_R   0.801762 0.759782 0.582199 -0.025888
C70   C     C_R   0.196221 0.760688 0.417663 -0.026451
C71   C     C_R   0.303592 0.260631 0.582371 -0.028399
C72   C     C_R   0.726422 0.245266 0.409891 -0.009928
C73   C     C_3   0.766672 0.689529 0.656219 0.735451
C74   C     C_3   0.227447 0.691277 0.342826 0.735503
C75   C     C_3   0.272305 0.191218 0.657270 0.737041
C76   C     C_3   0.789461 0.180040 0.346673 0.784344
C77   C     C_3   0.820918 0.639965 0.553650 0.061815
C78   C     C_3   0.172736 0.641537 0.445419 0.073768
C79   C     C_3   0.326903 0.141456 0.554721 0.073137
C80   C     C_3   0.740630 0.133103 0.452478 -0.055750
H25   H     H_    0.872689 0.609254 0.548027 0.182700
H26   H     H_    0.118505 0.613968 0.453589 0.181863
H27   H     H_    0.381097 0.113808 0.546553 0.185370
H28   H     H_    0.709023 0.080415 0.451073 0.141812
C81   C     C_2   0.772468 0.193795 0.981164 -0.201780
C82   C     C_2   0.225965 0.192859 0.021426 -0.188223
C83   C     C_2   0.274053 0.692870 0.978464 -0.184743
C84   C     C_2   0.726363 0.693038 0.020810 -0.186767
H29   H     H_    0.778177 0.186501 0.046672 0.174673
H30   H     H_    0.219327 0.184752 0.956905 0.169986
H31   H     H_    0.280697 0.684697 0.042975 0.172449
H32   H     H_    0.720007 0.685091 0.956005 0.174408
C85   C     C_2   0.316561 0.748313 0.902913 -0.114866
C86   C     C_2   0.683731 0.748306 0.096534 -0.117760
C87   C     C_2   0.815671 0.248438 0.904544 -0.099997
C88   C     C_2   0.183381 0.248200 0.097081 -0.090158
H33   H     H_    0.309841 0.757080 0.838376 0.197434
H34   H     H_    0.690296 0.756893 0.161236 0.196521
H35   H     H_    0.809389 0.256567 0.839509 0.203782
H36   H     H_    0.190089 0.256905 0.161634 0.197151
O1    O     O_3   0.851737 0.753705 0.062571 -0.766089
H37   H     H_    0.829613 0.790094 0.035562 0.332941
O2    O     O_3   0.148547 0.753559 0.936779 -0.762220
H38   H     H_    0.170641 0.790003 0.963754 0.334373
O3    O     O_3   0.351422 0.253543 0.063197 -0.762610
H39   H     H_    0.329263 0.289997 0.036303 0.331707
O4    O     O_3   0.647259 0.254269 0.939369 -0.760538
H40   H     H_    0.669773 0.290498 0.966008 0.332103
O5    O     O_3   0.793117 0.686415 0.722751 -0.732402
H41   H     H_    0.776917 0.634326 0.757238 0.354824
O6    O     O_3   0.198853 0.691961 0.278659 -0.730632
H42   H     H_    0.212016 0.639988 0.244229 0.357307
O7    O     O_3   0.300971 0.191821 0.721359 -0.736802
H43   H     H_    0.287838 0.139818 0.755735 0.354487
O8    O     O_3   0.783036 0.148574 0.267614 -0.748091
H44   H     H_    0.818950 0.101379 0.239237 0.342680
O9    O     O_3   0.678800 0.676395 0.716062 -0.733260
H45   H     H_    0.660006 0.697428 0.673700 0.337002
O10   O     O_3   0.314958 0.675222 0.280516 -0.734129
H46   H     H_    0.335713 0.693574 0.321789 0.337150
O11   O     O_3   0.184769 0.175251 0.719667 -0.733063
H47   H     H_    0.164007 0.193623 0.678402 0.338591
O12   O     O_3   0.874165 0.196908 0.302986 -0.720162
H48   H     H_    0.874282 0.231817 0.354340 0.342104
N33   N     N_R   0.770092 0.588525 0.538232 0.240435
O13   O     O_R   0.751283 0.520032 0.582532 -0.370461
O14   O     O_R   0.731085 0.614249 0.499759 -0.426605
N34   N     N_R   0.223061 0.586334 0.456676 0.242262
O15   O     O_R   0.241422 0.520194 0.406469 -0.366299
O16   O     O_R   0.263187 0.607367 0.495572 -0.429924
N35   N     N_R   0.276476 0.086346 0.543549 0.242032
O17   O     O_R   0.257990 0.020213 0.593874 -0.367533
O18   O     O_R   0.236428 0.107442 0.504561 -0.423797
N36   N     N_R   0.790054 0.117999 0.493236 0.245009
O19   O     O_R   0.837617 0.056610 0.459191 -0.377543
O20   O     O_R   0.798167 0.170141 0.547728 -0.376645
O21   O     O_3   0.882721 0.407388 0.797093 -0.677608
H49   H     H_    0.917852 0.454613 0.771346 0.391304
O22   O     O_3   0.116841 0.407486 0.203329 -0.677673
H50   H     H_    0.082036 0.454903 0.228623 0.391378
O23   O     O_3   0.383346 0.907622 0.796515 -0.682525
H51   H     H_    0.418273 0.954998 0.771140 0.389328
O24   O     O_3   0.616995 0.907355 0.203151 -0.684712
H52   H     H_    0.581544 0.954367 0.229054 0.392513
N37   N     N_R   0.963135 0.584164 0.335966 0.203102
O25   O     O_R   0.952636 0.515281 0.376591 -0.411969
O26   O     O_R   0.018256 0.630474 0.328365 -0.378437
N38   N     N_R   0.036108 0.584198 0.664818 0.202953
O27   O     O_R   0.046815 0.515559 0.623482 -0.410791
O28   O     O_R   0.979947 0.630172 0.674416 -0.377710
N39   N     N_R   0.463617 0.084161 0.335446 0.204613
O29   O     O_R   0.452824 0.015544 0.376924 -0.408390
O30   O     O_R   0.519737 0.130149 0.325914 -0.374811
N40   N     N_R   0.545678 0.084677 0.653642 0.221276
O31   O     O_R   0.550115 0.013420 0.623495 -0.421813
O32   O     O_R   0.502764 0.134345 0.641097 -0.352545
O33   O     O_3   0.806424 0.541036 0.896648 -0.725124
H53   H     H_    0.749080 0.558408 0.924619 0.325754
O34   O     O_3   0.193880 0.540806 0.102791 -0.727598
H54   H     H_    0.251277 0.558127 0.074655 0.326837
O35   O     O_3   0.306347 0.040962 0.896804 -0.730750
H55   H     H_    0.248952 0.058257 0.924895 0.328998
O36   O     O_3   0.692402 0.041801 0.105535 -0.712017
H56   H     H_    0.748969 0.060132 0.079603 0.335944

loop_
_geom_bond_atom_site_label_1
_geom_bond_atom_site_label_2
_geom_bond_distance
_ccdc_geom_bond_type
N6    N26   1.396458 A    
C86   H34   1.085940 S    
O22   H50   0.986265 S    
N5    N25   1.396784 A    
O1    H37   0.988996 S    
N3    Ni2   1.852033 S    
C54   C60   1.409937 A    
C18   N18   1.318304 A    
N30   Ni6   1.841622 S    
O21   H49   0.986232 S    
C78   H26   1.112186 S    
N7    N27   1.396784 A    
O34   H54   0.989040 S    
C69   C73   1.511683 S    
C80   H28   1.112045 S    
N9    Ni5   1.876868 S    
C32   C36   1.393153 A    
C56   C58   1.405097 A    
O11   H47   0.992805 S    
N26   Ni5   1.819092 S    
C9    C41   1.379043 A    
O23   H51   0.986685 S    
C79   H27   1.112110 S    
C48   C56   1.442712 S    
C7    N7    1.328466 A    
C22   H10   1.078202 S    
N3    N31   1.396675 A    
C82   C88   1.336239 D    
C10   O22   1.371818 S    
N32   Ni8   1.841622 S    
N16   Ni7   1.900863 S    
C1    N1    1.323198 A    
C83   C85   1.336247 D    
N15   N23   1.370330 A    
C4    O4    1.375185 S    
C52   C72   1.363801 A    
C3    N3    1.323414 A    
C29   O33   1.372674 S    
C28   H16   1.074333 S    
C49   C77   1.509958 S    
N14   N22   1.370651 A    
N5    Ni3   1.859698 S    
N25   Ni6   1.818879 S    
N2    N30   1.396350 A    
C73   O9    1.413481 S    
C1    C33   1.387727 A    
C88   H36   1.085883 S    
N17   Ni3   1.853303 S    
O9    H45   0.992697 S    
C76   O8    1.402600 S    
C21   N21   1.342806 A    
C26   N26   1.343858 A    
C44   C86   1.444211 S    
O3    H39   0.988999 S    
C85   H33   1.085884 S    
C29   C33   1.393940 A    
N33   O14   1.302396 A    
C5    H1    1.075490 S    
C81   H29   1.083896 S    
C24   N24   1.342503 A    
C5    C37   1.372322 A    
C65   C71   1.397968 A    
C7    H3    1.070527 S    
C72   C76   1.517894 S    
C24   C48   1.371836 A    
C6    C38   1.378612 A    
C84   H32   1.083255 S    
C13   N13   1.333357 A    
C7    C39   1.378583 A    
N27   Ni8   1.818879 S    
C4    C36   1.387421 A    
C51   C71   1.373202 A    
C32   N32   1.340855 A    
C41   C87   1.442974 S    
N36   O19   1.299667 A    
C11   N11   1.355591 A    
C11   C43   1.379428 A    
C20   H8    1.081981 S    
C34   C83   1.439082 S    
C4    N4    1.323096 A    
C64   H24   1.075100 S    
C35   C82   1.439102 S    
C63   C67   1.410533 A    
C36   C81   1.436671 S    
C79   N35   1.463673 S    
C11   O23   1.372060 S    
C32   O36   1.372900 S    
C17   H5    1.081939 S    
N31   Ni7   1.841828 S    
C2    N2    1.323328 A    
N22   Ni1   1.860022 S    
C75   C79   1.523882 S    
C30   C34   1.394443 A    
C8    H4    1.070914 S    
C12   C44   1.379256 A    
C19   C43   1.359167 A    
C64   C68   1.408432 A    
C50   C78   1.509117 S    
C27   H15   1.075014 S    
O24   H52   0.986189 S    
N20   Ni4   1.853288 S    
C84   C86   1.335960 D    
N14   Ni5   1.900863 S    
C59   C63   1.402464 A    
C14   N14   1.335104 A    
N13   Ni6   1.901091 S    
C22   N22   1.345573 A    
N2    Ni1   1.852026 S    
C76   C80   1.524320 S    
C31   O35   1.372699 S    
C77   N33   1.466089 S    
N37   O25   1.298626 A    
N15   Ni8   1.901091 S    
C6    H2    1.070565 S    
O2    H38   0.988999 S    
C26   H14   1.075040 S    
C22   C46   1.386854 A    
C19   H7    1.081990 S    
N16   N24   1.370651 A    
O5    H41   0.992331 S    
C19   N19   1.318363 A    
C30   O34   1.372701 S    
C46   C54   1.468675 S    
N19   Ni4   1.853303 S    
C52   C56   1.390170 A    
N34   O16   1.302269 A    
C39   C68   1.463998 S    
C62   H22   1.080357 S    
C71   C75   1.508338 S    
N39   O29   1.298696 A    
O10   H46   0.992814 S    
C61   H21   1.075196 S    
O33   H53   0.989036 S    
C75   O7    1.401894 S    
C9    O21   1.371777 S    
C37   C66   1.445516 S    
C26   C38   1.392606 A    
N12   Ni8   1.877076 S    
C63   H23   1.078890 S    
O36   H56   0.989011 S    
N8    Ni4   1.859709 S    
C1    O1    1.375063 S    
C8    C40   1.378814 A    
N21   Ni1   1.860032 S    
C8    N8    1.327410 A    
O35   H55   0.989041 S    
C10   C42   1.379337 A    
C80   N36   1.470256 S    
C55   C57   1.409953 A    
C20   C44   1.358790 A    
N4    Ni2   1.852026 S    
C74   O10   1.413433 S    
C81   C87   1.335933 D    
O4    H40   0.988960 S    
C58   H18   1.082616 S    
C25   C37   1.389908 A    
C38   C65   1.463814 S    
C57   H17   1.081359 S    
C66   C72   1.399023 A    
C5    N5    1.321515 A    
C16   C48   1.371800 A    
C27   N27   1.343966 A    
C59   H19   1.081267 S    
C73   C77   1.521549 S    
C30   N30   1.341745 A    
C87   H35   1.086085 S    
C2    C34   1.387813 A    
C23   N23   1.345466 A    
N6    Ni3   1.859709 S    
C17   N17   1.317150 A    
N9    N17   1.370442 A    
C52   C80   1.506182 S    
C49   C69   1.374174 A    
C50   C54   1.404086 A    
N11   N19   1.370442 A    
C20   N20   1.317886 A    
C9    N9    1.355511 A    
N12   N20   1.370762 A    
N13   N21   1.370330 A    
C60   C64   1.406696 A    
C27   C39   1.392686 A    
C3    C35   1.387919 A    
C76   O12   1.412951 S    
C51   C55   1.403982 A    
C3    O3    1.375031 S    
N38   O28   1.301659 A    
C12   N12   1.355653 A    
C61   C65   1.408457 A    
C67   C69   1.399578 A    
C70   C74   1.508266 S    
N7    Ni4   1.859698 S    
C16   N16   1.332722 A    
C78   N34   1.463723 S    
C13   N37   1.434195 S    
N28   Ni7   1.819092 S    
C77   H25   1.111953 S    
O8    H44   0.992540 S    
C33   C84   1.438209 S    
C18   C42   1.358860 A    
C12   O24   1.371669 S    
N24   Ni2   1.860022 S    
C83   H31   1.083070 S    
C17   C41   1.358314 A    
N40   O32   1.301710 A    
C25   N25   1.344563 A    
N34   O15   1.299404 A    
N11   Ni7   1.876868 S    
N18   Ni3   1.853288 S    
N39   O30   1.301630 A    
C73   O5    1.402240 S    
O12   H48   0.992481 S    
C14   C46   1.375216 A    
O6    H42   0.992115 S    
C47   C55   1.468575 S    
C31   N31   1.341617 A    
N10   Ni6   1.877076 S    
C51   C79   1.509067 S    
C13   C45   1.374776 A    
C31   C35   1.394449 A    
N40   O31   1.297633 A    
C49   C53   1.402891 A    
C6    N6    1.328417 A    
C21   H9    1.077953 S    
C15   N15   1.335008 A    
C74   C78   1.523919 S    
N37   O26   1.301628 A    
C28   C40   1.388874 A    
N29   Ni5   1.841828 S    
N1    Ni1   1.852033 S    
C23   H11   1.078189 S    
C28   N28   1.342469 A    
C25   H13   1.075097 S    
C42   C88   1.444881 S    
N33   O13   1.300009 A    
C14   N38   1.434100 S    
C43   C85   1.444921 S    
C15   C47   1.375335 A    
C53   C59   1.407913 A    
C10   N10   1.355869 A    
N35   O17   1.299583 A    
C58   C62   1.405666 A    
C18   H6    1.081998 S    
C60   H20   1.081370 S    
C50   C70   1.373299 A    
C15   N39   1.433941 S    
C57   C61   1.406670 A    
N38   O27   1.298690 A    
C68   C70   1.398002 A    
O7    H43   0.992105 S    
C82   H30   1.083082 S    
C23   C47   1.386744 A    
C74   O6    1.401842 S    
N4    N32   1.396350 A    
N23   Ni2   1.860032 S    
C29   N29   1.341430 A    
N8    N28   1.396458 A    
N36   O20   1.302395 A    
C40   C67   1.460204 S    
C21   C45   1.384346 A    
C75   O11   1.413418 S    
N10   N18   1.370762 A    
N1    N29   1.396675 A    
C2    O2    1.375029 S    
C62   C66   1.408646 A    
C16   N40   1.438971 S    
C24   H12   1.078683 S    
C45   C53   1.463301 S    
N35   O18   1.302250 A    
