data_mof_unit_17377.cif
_audit_creation_date              2012-12-11T15:55:42-0500
_audit_creation_method            fapswitch 2.2
_symmetry_space_group_name_H-M    P1
_symmetry_Int_Tables_number       1
_space_group_crystal_system       triclinic
_cell_length_a                    6.95488
_cell_length_b                    14.518429
_cell_length_c                    16.131261
_cell_angle_alpha                 89.750132
_cell_angle_beta                  90.037589
_cell_angle_gamma                 89.915551
_cell_volume                      1628.8192273

loop_
_atom_site_label
_atom_site_type_symbol
_atom_type_description
_atom_site_fract_x
_atom_site_fract_y
_atom_site_fract_z
_atom_type_partial_charge
O1    O     O_R   0.505680 0.583900 0.413320 -0.540152
O2    O     O_R   0.176010 0.594950 0.586080 -0.526178
O3    O     O_R   0.005680 0.416100 0.586680 -0.539475
C1    C     C_R   0.345629 0.615407 0.616033 0.698836
O4    O     O_R   0.175960 0.594930 0.413930 -0.544014
O5    O     O_R   0.005640 0.416080 0.413300 -0.530191
C2    C     C_R   0.344705 0.617367 0.385448 0.712204
O6    O     O_R   0.505720 0.583920 0.586700 -0.526890
O7    O     O_3   0.339190 0.441320 0.500000 -0.362079
V1    V     V_3+5 0.064350 0.510890 0.500000 1.515714
O8    O     O_R   0.675920 0.405050 0.413920 -0.523455
C3    C     C_R   0.845496 0.384141 0.383887 0.687757
O9    O     O_R   0.675960 0.405070 0.586070 -0.545287
C4    C     C_R   0.844720 0.383352 0.615023 0.716562
V2    V     V_3+5 0.564340 0.489110 0.500000 1.514391
O10   O     O_3   0.839370 0.558680 0.500000 -0.356157
C5    C     C_R   0.999850 0.247932 0.686553 0.084686
C6    C     C_R   0.852419 0.313491 0.682060 -0.115476
C7    C     C_R   0.705164 0.307364 0.741903 -0.146471
H1    H     H_    0.585679 0.355120 0.740151 0.128618
C8    C     C_R   0.717543 0.243596 0.808025 -0.113890
H2    H     H_    0.606578 0.243721 0.855020 0.114514
C9    C     C_R   0.876567 0.183637 0.815656 -0.105323
C10   C     C_R   0.010732 0.184204 0.750946 0.141166
C11   C     C_3   0.225521 0.186909 0.751884 -0.216259
C12   C     C_3   0.212968 0.257661 0.681549 -0.447793
H3    H     H_    0.283772 0.215005 0.810703 0.104798
H4    H     H_    0.270094 0.233589 0.620987 0.185970
H5    H     H_    0.261078 0.327565 0.700028 0.165451
C13   C     C_R   0.027185 0.249593 0.194579 -0.190058
H6    H     H_    0.149480 0.249470 0.152898 0.125669
C14   C     C_R   0.019089 0.315091 0.258393 0.019341
C15   C     C_R   0.859465 0.316874 0.313790 -0.121086
C16   C     C_R   0.710683 0.252761 0.301199 -0.113184
H7    H     H_    0.587714 0.251249 0.342280 0.163786
C17   C     C_R   0.719474 0.188614 0.236532 -0.143925
H8    H     H_    0.602590 0.140069 0.229327 0.133836
C18   C     C_R   0.878724 0.185729 0.182970 -0.073791
C19   C     C_R   0.200095 0.736460 0.705778 -0.193564
H9    H     H_    0.069965 0.731277 0.669385 0.189586
C20   C     C_R   0.200164 0.792679 0.776131 -0.009529
C21   C     C_R   0.371702 0.806821 0.821594 -0.130342
C22   C     C_R   0.524769 0.747174 0.805796 -0.128625
H10   H     H_    0.643510 0.745409 0.847591 0.137797
C23   C     C_R   0.520660 0.683605 0.740803 0.024043
C24   C     C_R   0.359156 0.680893 0.686715 -0.137665
C25   C     C_R   0.208593 0.694502 0.258595 -0.143631
H11   H     H_    0.083923 0.649991 0.261740 0.138431
C26   C     C_R   0.223676 0.757722 0.193117 -0.092185
H12   H     H_    0.110228 0.759929 0.147146 0.167446
C27   C     C_R   0.383704 0.816519 0.186030 -0.126732
C28   C     C_R   0.530141 0.810628 0.247467 0.012464
C29   C     C_R   0.514826 0.745640 0.311907 -0.177877
H13   H     H_    0.627312 0.741753 0.358400 0.132045
C30   C     C_R   0.355386 0.686881 0.317907 -0.082669
O11   O     O_R   0.229200 0.915950 0.913350 -0.527082
O12   O     O_R   0.559090 0.905000 0.086080 -0.527793
O13   O     O_R   0.729280 0.083880 0.086680 -0.543695
C31   C     C_R   0.391191 0.884102 0.116099 0.691293
O14   O     O_R   0.558920 0.904980 0.913920 -0.542093
O15   O     O_R   0.729110 0.083860 0.913300 -0.532223
C32   C     C_R   0.388352 0.879381 0.887640 0.730977
O16   O     O_R   0.229360 0.915970 0.086730 -0.524659
O17   O     O_3   0.395680 0.058580 0.000030 -0.386677
V3    V     V_3+5 0.670570 0.989070 0.999990 1.506251
O18   O     O_R   0.058820 0.094950 0.913870 -0.551514
C33   C     C_R   0.889687 0.117104 0.885298 0.727772
O19   O     O_R   0.058990 0.094970 0.086020 -0.546700
C34   C     C_R   0.889849 0.116908 0.114919 0.703571
V4    V     V_3+5 0.170560 0.010930 0.999930 1.484424
O20   O     O_3   0.895590 0.941310 0.999960 -0.360121
C35   C     C_2   0.013945 0.814787 0.813273 0.792013
O21   O     O_2   0.894879 0.860967 0.775874 -0.543174
O22   O     O_R   0.977977 0.780804 0.893053 -0.663842
H14   H     H_    0.858303 0.806579 0.919246 0.301436
C36   C     C_2   0.680651 0.616593 0.737572 0.724138
O23   O     O_2   0.797480 0.619673 0.681190 -0.552977
O24   O     O_R   0.702728 0.552622 0.801848 -0.668205
H15   H     H_    0.818762 0.511275 0.793713 0.285706
C37   C     C_2   0.694985 0.874535 0.250306 0.725402
O25   O     O_2   0.823705 0.868750 0.199095 -0.557882
O26   O     O_R   0.706596 0.939039 0.314128 -0.662812
H16   H     H_    0.826169 0.978680 0.310058 0.293618
C38   C     C_2   0.316460 0.097303 0.725824 0.818191
O27   O     O_2   0.489647 0.094038 0.713435 -0.545194
O28   O     O_R   0.204080 0.018387 0.715554 -0.648134
H17   H     H_    0.282346 0.963736 0.695950 0.298989
C39   C     C_2   0.176499 0.382915 0.261727 0.727671
O29   O     O_2   0.304862 0.374201 0.312910 -0.556168
O30   O     O_R   0.181634 0.454805 0.203955 -0.668169
H18   H     H_    0.298174 0.495839 0.211326 0.286503

loop_
_geom_bond_atom_site_label_1
_geom_bond_atom_site_label_2
_ccdc_geom_bond_type
C20   C21   A    
C4    C6    S    
C7    H1    S    
C2    C30   S    
C1    O6    A    
C25   C26   A    
C1    C24   S    
C29   H13   S    
C23   C36   S    
C5    C12   S    
C17   H8    S    
C7    C8    A    
C36   O24   S    
C16   H7    S    
O5    C3    A    
C13   H6    S    
O12   C31   A    
V2    O10   S    
C14   C39   S    
C13   C18   A    
O14   C32   A    
C6    C7    A    
C9    C33   S    
O8    V2    S    
C38   O27   D    
O19   C34   A    
C26   C27   A    
C11   C38   S    
C9    C10   A    
V4    O20   S    
O1    V2    S    
O17   V4    S    
O7    V1    S    
C21   C32   S    
O18   C33   A    
C18   C34   S    
O9    C4    A    
C15   C16   A    
C29   C30   A    
C5    C10   A    
O22   H14   S    
C27   C28   A    
C10   C11   S    
C19   C20   A    
C19   H9    S    
O4    C2    A    
O28   H17   S    
C37   O25   D    
C11   C12   S    
C23   C24   A    
C28   C37   S    
O2    C1    A    
C22   H10   S    
O15   C33   A    
O13   V3    S    
C25   H11   S    
O16   V4    S    
C5    C6    A    
C36   O23   D    
C22   C23   A    
O3    C4    A    
C19   C24   A    
C35   O22   S    
C39   O30   S    
O14   V3    S    
C26   H12   S    
O6    V2    S    
O11   V4    S    
C8    C9    A    
O11   C32   A    
C27   C31   S    
C21   C22   A    
O2    V1    S    
C28   C29   A    
C25   C30   A    
O1    C2    A    
C31   O16   A    
O12   V3    S    
C35   O21   D    
O5    V1    S    
O8    C3    A    
O13   C34   A    
C11   H3    S    
C12   H4    S    
O17   V3    S    
O9    V2    S    
O7    V2    S    
O4    V1    S    
O3    V1    S    
V3    O20   S    
C14   C15   A    
C13   C14   A    
O24   H15   S    
O30   H18   S    
O18   V4    S    
C17   C18   A    
C37   O26   S    
C16   C17   A    
O15   V3    S    
C39   O29   D    
C12   H5    S    
O19   V4    S    
O26   H16   S    
C38   O28   S    
V1    O10   S    
C3    C15   S    
C8    H2    S    
C20   C35   S    
