data_mof_unit_54762.cif
_audit_creation_date              2012-12-10T17:52:18-0500
_audit_creation_method            fapswitch 2.2
_symmetry_space_group_name_H-M    P1
_symmetry_Int_Tables_number       1
_space_group_crystal_system       triclinic
_cell_length_a                    19.019953
_cell_length_b                    10.740631
_cell_length_c                    9.936779
_cell_angle_alpha                 90.823317
_cell_angle_beta                  91.831385
_cell_angle_gamma                 93.327507
_cell_volume                      2025.22251839

loop_
_atom_site_label
_atom_site_type_symbol
_atom_type_description
_atom_site_fract_x
_atom_site_fract_y
_atom_site_fract_z
_atom_type_partial_charge
C1    C     C_R   0.506832 0.261496 0.500183 0.918485
C2    C     C_R   0.856281 0.579274 0.518599 0.038184
C3    C     C_R   0.555383 0.127063 0.743401 -0.157801
C4    C     C_R   0.365403 0.502100 0.498468 0.887203
C5    C     C_R   0.548936 0.071196 0.868285 -0.143293
C6    C     C_R   0.511656 0.956823 0.877177 -0.144565
C7    C     C_R   0.488047 0.892254 0.759960 -0.116138
C8    C     C_R   0.501572 0.942129 0.631069 0.089389
C9    C     C_R   0.525227 0.067495 0.625174 0.073423
C10   C     C_R   0.515406 0.129391 0.501807 -0.136795
C11   C     C_R   0.500987 0.062378 0.381899 -0.158151
C12   C     C_R   0.290048 0.519001 0.497410 -0.027057
C13   C     C_R   0.492144 0.935126 0.384227 -0.211894
C14   C     C_R   0.492708 0.873677 0.507300 -0.119945
C15   C     C_R   0.422505 0.301105 0.123850 -0.029709
C16   C     C_R   0.495851 0.739822 0.501712 0.876706
C17   C     C_R   0.404239 0.194531 0.044386 -0.220744
C18   C     C_R   0.397250 0.205210 0.905668 -0.023604
C19   C     C_R   0.420229 0.316416 0.847662 -0.250273
C20   C     C_R   0.460043 0.409199 0.922329 0.130463
C21   C     C_R   0.460407 0.406193 0.066635 0.035741
C22   C     C_R   0.540348 0.583664 0.076860 -0.114505
C23   C     C_R   0.932631 0.600849 0.519506 0.300422
C24   C     C_R   0.542529 0.581806 0.934459 0.218805
C25   C     C_R   0.634747 0.501208 0.502113 0.853387
C26   C     C_R   0.253421 0.499667 0.616072 -0.176665
C27   C     C_R   0.183734 0.528979 0.622110 -0.145681
C28   C     C_R   0.149229 0.577073 0.509119 0.082777
C29   C     C_R   0.185566 0.595027 0.389549 -0.142671
C30   C     C_R   0.255797 0.566357 0.383829 -0.198119
C31   C     C_2   0.369986 0.314440 0.226309 0.519713
C32   C     C_2   0.361910 0.104443 0.820500 0.432751
C33   C     C_3   0.598221 0.666767 0.874681 -0.869957
C34   C     C_R   0.074278 0.598867 0.514419 0.291865
C35   C     C_3   0.723354 0.386449 0.717747 -0.906292
C36   C     C_R   0.825419 0.505401 0.618521 -0.152800
C37   C     C_R   0.753215 0.473684 0.613538 0.190790
C38   C     C_R   0.711339 0.519795 0.507293 -0.042116
C39   C     C_R   0.742787 0.592920 0.407165 -0.236741
C40   C     C_R   0.814747 0.622110 0.412484 -0.164815
H1    H     H_    0.278851 0.463240 0.705109 0.150525
H2    H     H_    0.156861 0.512517 0.715199 0.153595
H3    H     H_    0.159934 0.631490 0.300842 0.154939
H4    H     H_    0.283627 0.584325 0.292080 0.147723
H5    H     H_    0.858005 0.469082 0.698557 0.153645
H6    H     H_    0.711407 0.629715 0.325624 0.161012
H7    H     H_    0.837847 0.678417 0.333886 0.158031
H8    H     H_    0.495455 0.108079 0.286007 0.178854
H9    H     H_    0.333657 0.388064 0.215714 0.045190
H10   H     H_    0.357305 0.115241 0.712148 0.074012
H11   H     H_    0.594912 0.669736 0.764790 0.299285
H12   H     H_    0.583764 0.216990 0.740832 0.163812
H13   H     H_    0.594770 0.763050 0.914207 0.217525
H14   H     H_    0.650935 0.635118 0.904580 0.219599
H15   H     H_    0.688846 0.436278 0.785522 0.263344
H16   H     H_    0.693145 0.306800 0.666723 0.227889
H17   H     H_    0.765507 0.347661 0.781688 0.235369
H18   H     H_    0.569909 0.119356 0.958603 0.144024
H19   H     H_    0.501926 0.917044 0.974825 0.140674
H20   H     H_    0.456946 0.806352 0.773283 0.187854
H21   H     H_    0.484070 0.885115 0.288965 0.168034
H22   H     H_    0.573734 0.650791 0.135448 0.148363
H23   H     H_    0.380840 0.111725 0.090575 0.213962
H24   H     H_    0.406828 0.326902 0.743869 0.207418
N1    N     N_R   0.036050 0.619907 0.400317 -0.172473
N2    N     N_R   0.966298 0.620927 0.402836 -0.168992
N3    N     N_R   0.971089 0.585130 0.634351 -0.175303
N4    N     N_R   0.040664 0.584344 0.631838 -0.174693
N5    N     N_R   0.499340 0.498800 0.142780 -0.133467
N6    N     N_R   0.499320 0.498720 0.857170 -0.116185
O1    O     O_R   0.500000 0.316780 0.614690 -0.649694
O2    O     O_2   0.337790 0.008256 0.869773 -0.574940
O3    O     O_R   0.499990 0.316750 0.385360 -0.594407
O4    O     O_R   0.398140 0.500000 0.614700 -0.639089
O5    O     O_R   0.398130 0.499970 0.385370 -0.633590
O6    O     O_R   0.500010 0.683250 0.614640 -0.642007
O7    O     O_R   0.500000 0.683220 0.385310 -0.622116
O8    O     O_R   0.601870 0.500030 0.614630 -0.622292
O9    O     O_R   0.601860 0.500000 0.385300 -0.619107
O10   O     O_2   0.361473 0.236949 0.314066 -0.598664
Zn1   Zn    Zn3+2 0.500000 0.500020 0.653130 0.922806
Zn2   Zn    Zn3+2 0.500000 0.499980 0.346870 0.949761

loop_
_geom_bond_atom_site_label_1
_geom_bond_atom_site_label_2
_ccdc_geom_bond_type
C40   H7    S    
O3    Zn2   S    
C19   C20   A    
C27   H2    S    
C30   H4    S    
C24   N6    A    
C7    C8    A    
C32   O2    D    
C26   C27   A    
C29   C30   A    
C5    H18   S    
C23   N2    A    
C36   C37   A    
C35   C37   S    
C18   C19   A    
C5    C6    A    
C16   O7    A    
C23   N3    A    
N6    Zn1   S    
C4    O5    A    
N5    Zn2   S    
C8    C9    A    
C4    C12   S    
C9    C10   A    
C22   N5    A    
C4    O4    A    
C28   C34   S    
C25   O9    A    
C13   C14   A    
C29   H3    S    
C20   N6    A    
C11   H8    S    
C31   H9    S    
C34   N1    A    
C33   H13   S    
C35   H15   S    
C25   O8    A    
C31   O10   D    
C34   N4    A    
C39   C40   A    
N3    N4    A    
C21   N5    A    
C37   C38   A    
C3    C9    A    
C25   C38   S    
C22   H22   S    
C19   H24   S    
C17   C18   A    
C36   H5    S    
C1    O1    A    
C32   H10   S    
C39   H6    S    
C22   C24   A    
C18   C32   S    
O4    Zn1   S    
C7    H20   S    
C2    C23   S    
C2    C36   A    
C33   H14   S    
C15   C17   A    
C28   C29   A    
C8    C14   A    
C12   C30   A    
C35   H16   S    
C16   O6    A    
C6    H19   S    
C1    C10   S    
C3    C5    A    
O6    Zn1   S    
O9    Zn2   S    
C3    H12   S    
O5    Zn2   S    
C15   C31   S    
C6    C7    A    
C33   H11   S    
C24   C33   S    
C35   H17   S    
C1    O3    A    
C17   H23   S    
C11   C13   A    
O8    Zn1   S    
C38   C39   A    
O7    Zn2   S    
C14   C16   S    
C10   C11   A    
C2    C40   A    
C15   C21   A    
C13   H21   S    
C20   C21   A    
N1    N2    A    
C12   C26   A    
C27   C28   A    
C26   H1    S    
O1    Zn1   S    
