data_mof_unit_15799.cif
_audit_creation_date              2012-12-11T17:02:20-0500
_audit_creation_method            fapswitch 2.2
_symmetry_space_group_name_H-M    P1
_symmetry_Int_Tables_number       1
_space_group_crystal_system       triclinic
_cell_length_a                    21.743294
_cell_length_b                    7.085338
_cell_length_c                    14.981309
_cell_angle_alpha                 90.00038
_cell_angle_beta                  106.588362
_cell_angle_gamma                 89.999142
_cell_volume                      2211.94171636

loop_
_atom_site_label
_atom_site_type_symbol
_atom_type_description
_atom_site_fract_x
_atom_site_fract_y
_atom_site_fract_z
_atom_type_partial_charge
O1    O     O_R   0.585850 0.505770 0.002130 -0.543049
O2    O     O_R   0.414150 0.005770 0.997870 -0.543058
O3    O     O_R   0.467530 0.173560 0.861970 -0.540804
O4    O     O_R   0.532470 0.673560 0.138030 -0.540813
C1    C     C_R   0.453708 0.344219 0.825652 0.669828
C2    C     C_R   0.546295 0.844219 0.174347 0.669820
O5    O     O_R   0.588690 0.175900 0.993250 -0.542655
O6    O     O_R   0.411310 0.675900 0.006750 -0.542665
O7    O     O_R   0.536170 0.007950 0.130090 -0.545181
O8    O     O_R   0.463830 0.507950 0.869910 -0.545202
C3    C     C_R   0.614306 0.344372 0.994631 0.679505
C4    C     C_R   0.385695 0.844374 0.005372 0.679470
O9    O     O_3   0.482630 0.339970 0.044740 -0.381000
O10   O     O_3   0.517370 0.839970 0.955260 -0.381001
V1    V     V_3+5 0.503220 0.064200 0.991700 1.366175
V2    V     V_3+5 0.496780 0.564200 0.008300 1.366142
C5    C     C_R   0.279710 0.004907 0.964570 0.088369
C6    C     C_R   0.720290 0.504906 0.035436 0.088377
C7    C     C_R   0.317325 0.852571 0.005399 -0.107240
C8    C     C_R   0.682677 0.352566 0.994610 -0.107285
C9    C     C_R   0.287676 0.712211 0.044939 -0.196514
C10   C     C_R   0.712327 0.212206 0.955070 -0.196550
H1    H     H_    0.314939 0.591225 0.078794 0.131678
H2    H     H_    0.685066 0.091218 0.921216 0.131702
C11   C     C_R   0.222474 0.728844 0.042630 -0.131319
C12   C     C_R   0.777528 0.228843 0.957375 -0.131326
H3    H     H_    0.201839 0.619532 0.075616 0.117927
H4    H     H_    0.798164 0.119531 0.924389 0.117932
C13   C     C_R   0.184494 0.884760 0.999703 -0.099690
C14   C     C_R   0.815507 0.384763 0.000299 -0.099695
C15   C     C_R   0.214043 0.022075 0.955642 0.053455
C16   C     C_R   0.785956 0.522077 0.044360 0.053461
C17   C     C_3   0.224677 0.234379 0.972068 -0.169938
C18   C     C_3   0.775319 0.734381 0.027934 -0.169952
C19   C     C_3   0.295968 0.203255 0.985443 -0.420970
C20   C     C_3   0.704029 0.703253 0.014564 -0.420958
H5    H     H_    0.214277 0.279157 0.037463 0.128053
H6    H     H_    0.785716 0.779158 0.962538 0.128051
H7    H     H_    0.325261 0.225593 0.058615 0.169492
H8    H     H_    0.674732 0.725589 0.941393 0.169502
C21   C     C_R   0.927960 0.885398 0.723145 -0.062041
C22   C     C_R   0.072045 0.385394 0.276854 -0.062038
C23   C     C_R   0.574767 0.850814 0.275682 -0.025000
C24   C     C_R   0.425237 0.350819 0.724317 -0.025017
C25   C     C_R   0.942114 0.917220 0.566967 0.051869
C26   C     C_R   0.057889 0.417210 0.433032 0.051864
C27   C     C_R   0.967111 0.893613 0.664411 -0.205187
C28   C     C_R   0.032893 0.393590 0.335589 -0.205185
C29   C     C_R   0.862045 0.878728 0.685654 -0.227876
C30   C     C_R   0.137962 0.378735 0.314346 -0.227890
C31   C     C_R   0.833471 0.890190 0.588597 0.079572
C32   C     C_R   0.166533 0.390181 0.411404 0.079578
C33   C     C_R   0.873501 0.931825 0.530531 0.084240
C34   C     C_R   0.126502 0.431819 0.469468 0.084242
C35   C     C_R   0.765770 0.869790 0.548497 0.047617
C36   C     C_R   0.234234 0.369765 0.451505 0.047604
C37   C     C_R   0.737191 0.911685 0.452811 0.052244
C38   C     C_R   0.262812 0.411666 0.547190 0.052235
C39   C     C_R   0.776849 0.988719 0.402618 -0.192466
C40   C     C_R   0.223153 0.488700 0.597383 -0.192465
C41   C     C_R   0.843248 0.999733 0.440775 -0.215446
C42   C     C_R   0.156754 0.499724 0.559225 -0.215444
C43   C     C_R   0.726276 0.804361 0.601452 -0.240439
C44   C     C_R   0.273726 0.304308 0.398552 -0.240428
C45   C     C_R   0.660250 0.786724 0.564282 -0.023618
C46   C     C_R   0.339754 0.286704 0.435722 -0.023650
C47   C     C_R   0.631439 0.818866 0.468859 0.089971
C48   C     C_R   0.368567 0.318877 0.531141 0.089979
C49   C     C_R   0.669878 0.879113 0.411428 0.068293
C50   C     C_R   0.330125 0.379101 0.588573 0.068288
C51   C     C_R   0.565582 0.782077 0.428974 -0.160991
C52   C     C_R   0.434429 0.282138 0.571022 -0.160975
C53   C     C_R   0.537964 0.796255 0.333535 -0.163108
C54   C     C_R   0.462047 0.296316 0.666463 -0.163226
C55   C     C_R   0.639956 0.894850 0.314076 -0.207560
C56   C     C_R   0.360046 0.394822 0.685924 -0.207561
H9    H     H_    0.487876 0.760264 0.304416 0.103132
H10   H     H_    0.512139 0.260363 0.695581 0.103212
H11   H     H_    0.017423 0.885115 0.697535 0.085461
H12   H     H_    0.982581 0.385073 0.302464 0.085465
H13   H     H_    0.834323 0.875441 0.734900 0.097987
H14   H     H_    0.165688 0.375464 0.265105 0.097993
H15   H     H_    0.745607 0.762946 0.673208 0.128957
H16   H     H_    0.254393 0.262843 0.326802 0.128985
H17   H     H_    0.535347 0.734374 0.470681 0.128429
H18   H     H_    0.464666 0.234475 0.529311 0.128418
O11   O     O_R   0.036080 0.231270 0.130120 -0.540073
O12   O     O_R   0.963920 0.731270 0.869880 -0.540071
O13   O     O_R   0.911300 0.558970 0.006750 -0.554661
O14   O     O_R   0.088700 0.058970 0.993250 -0.554659
C57   C     C_R   0.884671 0.391423 0.001895 0.685451
C58   C     C_R   0.115329 0.891422 0.998105 0.685451
O15   O     O_R   0.032450 0.561140 0.138040 -0.546485
O16   O     O_R   0.967550 0.061140 0.861960 -0.546484
O17   O     O_R   0.085870 0.728910 0.002130 -0.530575
O18   O     O_R   0.914130 0.228910 0.997870 -0.530574
C59   C     C_R   0.044369 0.392377 0.175144 0.693341
C60   C     C_R   0.955635 0.892377 0.824855 0.693339
O19   O     O_3   0.017320 0.394650 0.955270 -0.382885
O20   O     O_3   0.982680 0.894650 0.044730 -0.382887
V3    V     V_3+5 0.996780 0.670490 0.008300 1.369852
V4    V     V_3+5 0.003220 0.170490 0.991700 1.369853
C61   C     C_R   0.623691 0.734128 0.629637 0.101986
C62   C     C_R   0.583011 0.866746 0.653354 -0.151870
C63   C     C_R   0.557385 0.830005 0.727008 -0.113879
C64   C     C_R   0.572674 0.662233 0.777134 -0.114144
C65   C     C_R   0.611545 0.527446 0.752291 -0.159109
C66   C     C_R   0.636987 0.562820 0.678517 -0.122897
H19   H     H_    0.573340 0.000897 0.617356 0.109305
H20   H     H_    0.527204 0.933237 0.747100 0.127066
H21   H     H_    0.555652 0.638569 0.836558 0.164307
H22   H     H_    0.622891 0.397263 0.791218 0.106601
H23   H     H_    0.668895 0.460249 0.661623 0.112173
C67   C     C_R   0.376313 0.234113 0.370367 0.101967
C68   C     C_R   0.416894 0.366859 0.346516 -0.151837
C69   C     C_R   0.442495 0.330101 0.272837 -0.113948
C70   C     C_R   0.427280 0.162178 0.222822 -0.114115
C71   C     C_R   0.388504 0.027274 0.247793 -0.159013
C72   C     C_R   0.363091 0.062662 0.321598 -0.122901
H24   H     H_    0.426498 0.501124 0.382419 0.109275
H25   H     H_    0.472598 0.433432 0.252640 0.127049
H26   H     H_    0.444283 0.138481 0.163383 0.164274
H27   H     H_    0.377208 0.896986 0.208941 0.106509
H28   H     H_    0.331254 0.959993 0.338594 0.112167
C73   C     C_R   0.988869 0.917353 0.507875 0.123262
C74   C     C_R   0.055000 0.957064 0.547968 -0.133251
C75   C     C_R   0.098970 0.949563 0.495917 -0.121534
C76   C     C_R   0.078975 0.895929 0.402965 -0.057867
C77   C     C_R   0.015003 0.849506 0.362254 -0.123424
C78   C     C_R   0.970310 0.862473 0.413204 -0.154082
H29   H     H_    0.073927 0.000065 0.619307 0.087277
H30   H     H_    0.148894 0.983971 0.528269 0.119951
H31   H     H_    0.113256 0.886239 0.363083 0.113036
H32   H     H_    0.000367 0.797184 0.291536 0.114343
H33   H     H_    0.922123 0.817327 0.378513 0.116585
C79   C     C_R   0.011133 0.417347 0.492122 0.123267
C80   C     C_R   0.945003 0.457058 0.452028 -0.133255
C81   C     C_R   0.901033 0.449566 0.504078 -0.121538
C82   C     C_R   0.921027 0.395942 0.597031 -0.057865
C83   C     C_R   0.985000 0.349520 0.637743 -0.123426
C84   C     C_R   0.029693 0.362477 0.586793 -0.154084
H34   H     H_    0.926076 0.500051 0.380688 0.087278
H35   H     H_    0.851109 0.483973 0.471725 0.119953
H36   H     H_    0.886747 0.386262 0.636912 0.113035
H37   H     H_    0.999636 0.297210 0.708463 0.114338
H38   H     H_    0.077880 0.317331 0.621485 0.116584
H39   H     H_    0.757119 0.045186 0.334009 0.132827
H40   H     H_    0.242883 0.545163 0.665994 0.132828
C85   C     C_R   0.194401 0.368482 0.891160 0.128315
C86   C     C_R   0.231295 0.505969 0.860229 -0.097742
C87   C     C_R   0.202228 0.657446 0.805375 -0.134397
C88   C     C_R   0.136257 0.676667 0.780008 -0.134483
C89   C     C_R   0.098653 0.541087 0.806686 -0.105850
C90   C     C_R   0.127399 0.384666 0.859310 -0.139527
H41   H     H_    0.282851 0.511409 0.883458 0.105331
H42   H     H_    0.231315 0.764921 0.785725 0.107599
H43   H     H_    0.115318 0.798661 0.740716 0.094077
H44   H     H_    0.047339 0.560385 0.788674 0.129399
H45   H     H_    0.097358 0.281204 0.878271 0.150098
C91   C     C_R   0.805596 0.868483 0.108841 0.128317
C92   C     C_R   0.768704 0.005970 0.139777 -0.097732
C93   C     C_R   0.797771 0.157451 0.194627 -0.134389
C94   C     C_R   0.863742 0.176674 0.219988 -0.134484
C95   C     C_R   0.901345 0.041092 0.193305 -0.105846
C96   C     C_R   0.872599 0.884668 0.140684 -0.139537
H46   H     H_    0.717148 0.011408 0.116553 0.105326
H47   H     H_    0.768685 0.264927 0.214279 0.107598
H48   H     H_    0.884680 0.298672 0.259274 0.094075
H49   H     H_    0.952658 0.060393 0.211310 0.129407
H50   H     H_    0.902639 0.781208 0.121719 0.150107
H51   H     H_    0.318927 0.252510 0.932719 0.163654
H52   H     H_    0.681072 0.752508 0.067290 0.163653
H53   H     H_    0.870414 0.069618 0.400449 0.150410
H54   H     H_    0.129587 0.569609 0.599551 0.150408
H55   H     H_    0.666810 0.929441 0.265827 0.092490
H56   H     H_    0.333188 0.429370 0.734174 0.092491

loop_
_geom_bond_atom_site_label_1
_geom_bond_atom_site_label_2
_ccdc_geom_bond_type
C23   C53   A    
C46   C48   A    
C63   H20   S    
C43   C45   A    
C74   C75   A    
O18   V4    S    
C19   H51   S    
C65   H22   S    
C94   C95   A    
O1    C3    A    
C27   H11   S    
C80   H34   S    
O2    C4    A    
C76   C77   A    
C2    O7    A    
C67   C68   A    
C85   C86   A    
C72   H28   S    
O5    C3    A    
C95   C96   A    
C7    C9    A    
C77   C78   A    
C81   H35   S    
C62   H19   S    
C37   C39   A    
C64   C65   A    
O16   C60   A    
C38   C40   A    
C68   C69   A    
C42   H54   S    
C69   C70   A    
C40   C42   A    
C29   H13   S    
C89   H44   S    
C24   C56   A    
C75   H30   S    
C44   H16   S    
C5    C7    A    
C57   O18   A    
C71   C72   A    
C33   C41   A    
C73   C78   A    
O14   V4    S    
C78   H33   S    
C25   C73   S    
C29   C31   A    
C35   C43   A    
C30   C32   A    
C65   C66   A    
C15   C17   S    
C61   C66   A    
O13   C57   A    
C6    C8    A    
C92   H46   S    
C48   C52   A    
O5    V1    S    
C87   C88   A    
C25   C33   A    
O6    V2    S    
C85   C90   A    
C51   H17   S    
C23   C55   A    
C95   H49   S    
C21   C29   A    
C62   C63   A    
C32   C34   A    
O12   V3    S    
C64   H21   S    
C25   C27   A    
C11   C13   A    
C26   C28   A    
C3    C8    S    
C20   H52   S    
C39   C41   A    
C69   H25   S    
C55   H55   S    
C20   H8    S    
C41   H53   S    
C83   C84   A    
C52   C54   A    
C22   C59   S    
O15   V3    S    
C51   C53   A    
C38   C50   A    
C34   C42   A    
C31   C35   A    
C45   C47   A    
C91   C96   A    
C58   O17   A    
C17   H5    S    
C93   H47   S    
C43   H15   S    
C31   C33   A    
C44   C46   A    
C66   H23   S    
O4    V2    S    
C19   H7    S    
C70   H26   S    
C79   C84   A    
O11   V4    S    
C82   H36   S    
O14   C58   A    
O10   V1    S    
C56   H56   S    
O6    C4    A    
C26   C34   A    
O20   V4    S    
C21   C27   A    
O1    V2    S    
C22   C28   A    
C87   H42   S    
C24   C54   A    
O2    V1    S    
C84   H38   S    
C22   C30   A    
C39   H39   S    
O4    C2    A    
O19   V3    S    
C1    C24   S    
C8    C10   A    
C12   C14   A    
C2    C23   S    
C9    H1    S    
C50   C56   A    
C73   C74   A    
C5    C15   A    
C10   H2    S    
C6    C16   A    
C45   C61   S    
C75   C76   A    
O15   C59   A    
O3    V1    S    
C30   H14   S    
C93   C94   A    
C80   C81   A    
C96   H50   S    
C9    C11   A    
C88   H43   S    
C46   C67   S    
O13   V3    S    
C18   H6    S    
C67   C72   A    
C14   C57   S    
O3    C1    A    
C83   H37   S    
C52   H18   S    
C82   C83   A    
C11   H3    S    
C5    C19   S    
C63   C64   A    
C54   H10   S    
C12   H4    S    
C86   C87   A    
C86   H41   S    
C37   C49   A    
C91   C92   A    
C28   H12   S    
C35   C37   A    
C94   H48   S    
O7    V1    S    
C1    O8    A    
C13   C15   A    
C17   C85   S    
C76   H31   S    
C14   C16   A    
C36   C44   A    
C92   C93   A    
C74   H29   S    
C4    C7    S    
O20   V3    S    
C17   C19   S    
C18   C20   S    
C36   C38   A    
C49   C55   A    
C47   C51   A    
C71   H27   S    
C81   C82   A    
C26   C79   S    
C77   H32   S    
O17   V3    S    
C90   H45   S    
O19   V4    S    
C88   C89   A    
O16   V4    S    
C48   C50   A    
C68   H24   S    
C10   C12   A    
O9    V2    S    
C61   C62   A    
C53   H9    S    
C21   C60   S    
C79   C80   A    
O8    V2    S    
C40   H40   S    
C47   C49   A    
C89   C90   A    
C70   C71   A    
C6    C20   S    
C13   C58   S    
O12   C60   A    
C32   C36   A    
C16   C18   S    
O11   C59   A    
C18   C91   S    
