data_mof_unit_25347.cif
_audit_creation_date              2012-12-10T18:52:57-0500
_audit_creation_method            fapswitch 2.2
_symmetry_space_group_name_H-M    P1
_symmetry_Int_Tables_number       1
_space_group_crystal_system       triclinic
_cell_length_a                    9.929369
_cell_length_b                    10.645182
_cell_length_c                    16.596356
_cell_angle_alpha                 91.884432
_cell_angle_beta                  85.925313
_cell_angle_gamma                 91.191917
_cell_volume                      1748.55330138

loop_
_atom_site_label
_atom_site_type_symbol
_atom_type_description
_atom_site_fract_x
_atom_site_fract_y
_atom_site_fract_z
_atom_type_partial_charge
C1    C     C_R   0.501000 0.739741 0.500888 0.890294
C2    C     C_R   0.499103 0.260250 0.499910 0.846984
C3    C     C_R   0.608994 0.935812 0.461279 -0.135558
C4    C     C_R   0.394305 0.064381 0.543387 -0.114153
C5    C     C_R   0.606776 0.064452 0.459768 -0.158791
C6    C     C_R   0.395519 0.935571 0.543986 -0.129499
C7    C     C_R   0.498834 0.127710 0.500281 -0.031270
C8    C     C_R   0.502528 0.872319 0.502549 -0.012006
C9    C     C_R   0.929945 0.422929 0.448518 -0.216542
C10   C     C_R   0.070476 0.580699 0.549065 -0.228830
C11   C     C_R   0.072078 0.416044 0.450954 0.517117
C12   C     C_R   0.927549 0.576861 0.553439 0.444837
C13   C     C_R   0.481593 0.497834 0.652963 0.922816
C14   C     C_R   0.518202 0.497671 0.346308 0.902309
C15   C     C_R   0.469085 0.457594 0.735120 -0.078220
C16   C     C_R   0.529879 0.469088 0.259450 -0.109304
C17   C     C_R   0.494137 0.539806 0.799970 0.278125
C18   C     C_R   0.423097 0.489062 0.210022 0.305350
C19   C     C_R   0.489771 0.492789 0.877145 -0.173611
C20   C     C_R   0.432689 0.442954 0.130609 -0.174075
C21   C     C_R   0.459384 0.364948 0.889536 0.109052
C22   C     C_R   0.547867 0.378393 0.099294 0.118274
C23   C     C_R   0.427558 0.284907 0.825341 -0.109512
C24   C     C_R   0.655755 0.363583 0.147082 -0.138107
C25   C     C_R   0.433659 0.331104 0.747889 -0.221474
C26   C     C_R   0.646534 0.407560 0.226797 -0.223862
C27   C     C_2   0.458367 0.318301 0.970830 -0.206039
C28   C     C_2   0.564985 0.345142 0.013282 -0.189797
H1    H     H_    0.730056 0.390540 0.263357 0.187765
H2    H     H_    0.412966 0.267872 0.697539 0.144592
H3    H     H_    0.661925 0.368402 0.982010 0.179039
H4    H     H_    0.362110 0.288866 0.000199 0.174183
H5    H     H_    0.401795 0.186876 0.834888 0.168234
H6    H     H_    0.746872 0.317651 0.122726 0.162940
H7    H     H_    0.351920 0.462257 0.092512 0.166334
H8    H     H_    0.509472 0.555883 0.927721 0.174452
H9    H     H_    0.691407 0.885995 0.428994 0.168437
H10   H     H_    0.313574 0.114370 0.577130 0.178709
H11   H     H_    0.688087 0.114382 0.426601 0.172819
H12   H     H_    0.314269 0.885493 0.577094 0.170115
H13   H     H_    0.874985 0.359721 0.409869 0.197550
H14   H     H_    0.125114 0.641859 0.589042 0.198421
N1    N     N_R   0.142790 0.500030 0.500020 -0.160147
N2    N     N_R   0.857210 0.499970 0.499980 -0.166459
O1    O     O_R   0.385380 0.683250 0.500010 -0.624753
O2    O     O_R   0.614620 0.316750 0.499990 -0.630381
O3    O     O_R   0.614710 0.683220 0.500000 -0.576508
O4    O     O_R   0.385290 0.316780 0.500000 -0.554216
O5    O     O_R   0.371780 0.500040 0.615800 -0.637418
O6    O     O_R   0.628220 0.499960 0.384200 -0.643963
O7    O     O_R   0.601110 0.500010 0.615800 -0.524667
O8    O     O_R   0.398890 0.499990 0.384200 -0.515783
Zn1   Zn    Zn3+2 0.346870 0.500020 0.500000 1.045935
Zn2   Zn    Zn3+2 0.653130 0.499980 0.500000 1.035736
Br1   Br    Br    0.528964 0.715929 0.786267 -0.407220
Br2   Br    Br    0.265201 0.583633 0.244676 -0.445005
S1    S     S_3+6 0.140496 0.276645 0.402983 0.061087
O9    O     O_2   0.042969 0.221181 0.345642 -0.315165
O10   O     O_2   0.155567 0.183355 0.467482 -0.315405
O11   O     O_3   0.288647 0.295479 0.349653 -0.519684
H15   H     H_    0.320316 0.209192 0.336138 0.370000
S2    S     S_3+6 0.852398 0.656520 0.640684 0.079270
O12   O     O_2   0.735254 0.734762 0.623105 -0.212941
O13   O     O_2   0.806719 0.560941 0.702011 -0.295136
O14   O     O_3   0.966072 0.754005 0.682141 -0.541774
H16   H     H_    0.006761 0.704554 0.723422 0.366497

loop_
_geom_bond_atom_site_label_1
_geom_bond_atom_site_label_2
_ccdc_geom_bond_type
C19   C21   A    
S2    O13   D    
C11   N1    A    
S2    O12   D    
C10   H14   S    
C1    C8    S    
C12   S2    S    
C17   Br1   S    
C9    H13   S    
C2    C7    S    
C18   Br2   S    
C3    C5    A    
O7    Zn2   S    
S1    O11   S    
O2    Zn2   S    
C13   C15   S    
C21   C27   S    
O1    Zn1   S    
C12   N2    A    
C22   C28   S    
C2    O2    A    
C13   O5    A    
C9    C11   A    
C1    O1    A    
S1    O9    D    
O6    Zn2   S    
C10   C12   A    
C26   H1    S    
C4    C7    A    
O5    Zn1   S    
C15   C17   A    
C22   C24   A    
C16   C18   A    
C17   C19   A    
C4    H10   S    
C3    C8    A    
C6    H12   S    
C19   H8    S    
C5    H11   S    
C21   C23   A    
C16   C26   A    
O4    Zn1   S    
C14   C16   S    
S1    O10   D    
C15   C25   A    
C14   O6    A    
N2    Zn2   S    
C27   C28   D    
C23   C25   A    
O8    Zn1   S    
C3    H9    S    
C18   C20   A    
C4    C6    A    
O14   H16   S    
C10   N1    A    
C25   H2    S    
C5    C7    A    
O3    Zn2   S    
C1    O3    A    
C9    N2    A    
C6    C8    A    
S2    O14   S    
C2    O4    A    
C27   H4    S    
C13   O7    A    
C20   H7    S    
C11   S1    S    
N1    Zn1   S    
C28   H3    S    
C14   O8    A    
C24   C26   A    
C20   C22   A    
O11   H15   S    
C23   H5    S    
C24   H6    S    
