data_mof_unit_41139.cif
_audit_creation_date              2012-12-11T21:14:51-0500
_audit_creation_method            fapswitch 2.2
_symmetry_space_group_name_H-M    P1
_symmetry_Int_Tables_number       1
_space_group_crystal_system       triclinic
_cell_length_a                    8.599087
_cell_length_b                    18.857585
_cell_length_c                    27.031871
_cell_angle_alpha                 100.926202
_cell_angle_beta                  92.462355
_cell_angle_gamma                 88.010347
_cell_volume                      4298.41994244

loop_
_atom_site_label
_atom_site_type_symbol
_atom_type_description
_atom_site_fract_x
_atom_site_fract_y
_atom_site_fract_z
_atom_type_partial_charge
Ba1   Ba    Ba6+2 0.160810 0.465630 0.521640 1.591194
Ba2   Ba    Ba6+2 0.649380 0.534380 0.478400 1.585501
C1    C     C_3   0.397279 0.266733 0.692040 -0.248951
C2    C     C_3   0.437797 0.292038 0.643796 0.350807
C3    C     C_3   0.452001 0.295646 0.362877 0.346242
C4    C     C_3   0.421614 0.223199 0.323837 -0.169061
C5    C     C_3   0.896104 0.733506 0.363345 0.356357
C6    C     C_3   0.848943 0.809013 0.352076 -0.036358
C7    C     C_3   0.391444 0.700382 0.352679 0.391616
C8    C     C_3   0.391529 0.735088 0.305438 -0.207664
C9    C     C_R   0.983037 0.046686 0.473205 -0.002514
C10   C     C_R   0.068588 0.093610 0.450568 0.010073
C11   C     C_R   0.213220 0.070271 0.430670 -0.068794
C12   C     C_3   0.957404 0.272077 0.643558 0.377537
C13   C     C_R   0.274696 0.000928 0.432941 0.066119
C14   C     C_R   0.189196 0.953204 0.455645 0.031529
C15   C     C_R   0.042446 0.976061 0.475527 0.004160
C16   C     C_R   0.245695 0.882686 0.457868 -0.127362
C17   C     C_R   0.155769 0.832769 0.476051 -0.042753
C18   C     C_R   0.011122 0.856396 0.497808 -0.001691
C19   C     C_R   0.955562 0.928495 0.497861 0.001431
C20   C     C_R   0.206094 0.759659 0.472753 -0.012427
C21   C     C_R   0.111263 0.712153 0.490699 -0.260968
C22   C     C_R   0.974849 0.734240 0.516065 0.078464
C23   C     C_3   0.982008 0.210779 0.674583 -0.043850
C24   C     C_R   0.923458 0.808469 0.520080 -0.063424
C25   C     C_R   0.838504 0.070578 0.493670 0.000635
C26   C     C_R   0.781485 0.142399 0.493059 0.004035
C27   C     C_R   0.872022 0.191102 0.472616 -0.053835
C28   C     C_R   0.010818 0.164035 0.449014 -0.052831
C29   C     C_R   0.788042 0.836471 0.545350 -0.044063
C30   C     C_R   0.725297 0.906485 0.542814 0.035855
C31   C     C_R   0.811392 0.952695 0.519019 -0.023057
C32   C     C_R   0.753811 0.023717 0.516793 0.007154
C33   C     C_R   0.578794 0.932559 0.563058 0.071955
C34   C     C_3   0.801169 0.656129 0.638892 0.300893
C35   C     C_R   0.525983 0.002827 0.560819 -0.092718
C36   C     C_R   0.611177 0.048247 0.538028 0.013000
C37   C     C_R   0.638961 0.166842 0.516071 -0.032146
C38   C     C_R   0.553676 0.118133 0.536702 -0.108920
C39   C     C_R   0.589658 0.240150 0.520101 -0.005062
C40   C     C_R   0.685003 0.288540 0.503154 -0.287912
C41   C     C_R   0.825379 0.266002 0.479689 0.054403
C42   C     C_R   0.363917 0.477318 0.181426 0.581333
C43   C     C_R   0.179856 0.573427 0.175593 0.571883
C44   C     C_2   0.057775 0.542195 0.271999 0.015137
C45   C     C_3   0.820572 0.687693 0.696154 -0.204871
C46   C     C_3   0.040760 0.573052 0.328116 -0.031222
C47   C     C_1   0.288976 0.508204 0.341487 0.044257
C48   C     C_2   0.329809 0.516732 0.296016 -0.141007
C49   C     C_2   0.206573 0.527232 0.256046 0.204966
C50   C     C_R   0.325567 0.520614 0.101862 -0.079139
C51   C     C_R   0.411108 0.478627 0.132015 -0.032761
C52   C     C_R   0.540930 0.438402 0.112046 -0.066508
C53   C     C_R   0.202663 0.565140 0.123411 -0.026584
C54   C     C_2   0.160160 0.541862 0.362189 -0.219800
C55   C     C_2   0.623226 0.455105 0.633199 -0.269689
C56   C     C_3   0.985789 0.353201 0.356094 0.301063
C57   C     C_R   0.525248 0.470619 0.978607 0.023982
C58   C     C_R   0.312119 0.560317 0.968976 0.016919
C59   C     C_R   0.437273 0.513320 0.948268 0.029212
C60   C     C_R   0.643837 0.423123 0.955775 -0.106802
C61   C     C_R   0.676830 0.417887 0.905547 -0.064213
C62   C     C_R   0.594077 0.459981 0.875397 -0.015860
C63   C     C_R   0.476093 0.508530 0.896712 -0.085150
C64   C     C_R   0.397305 0.551710 0.866104 -0.053719
C65   C     C_R   0.439610 0.546956 0.815163 0.599096
C66   C     C_R   0.626499 0.452795 0.824095 0.570623
C67   C     C_3   0.997907 0.306664 0.303127 -0.335074
C68   C     C_2   0.728504 0.462890 0.722509 -0.094552
C69   C     C_3   0.741474 0.424968 0.668319 -0.075671
C70   C     C_1   0.505756 0.498749 0.652017 0.079603
C71   C     C_2   0.465826 0.501031 0.699639 -0.106007
C72   C     C_2   0.587148 0.488260 0.739671 0.165449
C73   C     C_R   0.492039 0.475670 0.030351 0.020126
C74   C     C_R   0.362813 0.518536 0.050458 0.046138
C75   C     C_R   0.268178 0.558008 0.019657 0.021249
C76   C     C_R   0.582725 0.438077 0.062822 -0.103358
C77   C     C_R   0.102000 0.598013 0.091979 -0.068589
C78   C     C_3   0.313389 0.697937 0.626527 0.316249
C79   C     C_R   0.241023 0.608008 0.937936 0.054957
C80   C     C_R   0.281198 0.600591 0.887271 -0.057117
C81   C     C_R   0.128530 0.590102 0.040631 -0.109228
C82   C     C_3   0.323034 0.773220 0.661782 -0.177797
H1    H     H_    0.771534 0.743505 0.703623 0.096988
H2    H     H_    0.883331 0.282955 0.289538 0.100906
H3    H     H_    0.191505 0.679826 0.624471 0.053246
H4    H     H_    0.268915 0.815908 0.642891 0.067411
H5    H     H_    0.565353 0.286662 0.638443 -0.045482
H6    H     H_    0.372096 0.181144 0.342013 0.062614
H7    H     H_    0.386155 0.207057 0.684772 0.125611
H8    H     H_    0.924234 0.737403 0.404478 0.000333
H9    H     H_    0.270083 0.685746 0.358246 -0.103969
H10   H     H_    0.269148 0.747946 0.294035 0.103794
H11   H     H_    0.155486 0.658669 0.490683 0.018662
H12   H     H_    0.078433 0.197787 0.430500 0.111019
H13   H     H_    0.733070 0.803207 0.567149 0.095477
H14   H     H_    0.415007 0.022088 0.576751 0.072007
H15   H     H_    0.451852 0.516305 0.287701 0.143162
H16   H     H_    0.612754 0.407531 0.134728 0.113725
H17   H     H_    0.828834 0.460265 0.747708 0.141638
H18   H     H_    0.768872 0.380132 0.890436 0.120948
H19   H     H_    0.996909 0.626675 0.106490 0.109826
H20   H     H_    0.678751 0.664393 0.626991 0.063120
N1    N     N_R   0.248411 0.524920 0.203415 -0.426287
N2    N     N_R   0.551845 0.496800 0.793614 -0.417338
O1    O     O_2   0.106080 0.324280 0.466820 -0.467011
O2    O     O_3   0.414554 0.649101 0.645648 -0.641017
O3    O     O_3   0.044909 0.333754 0.664010 -0.592161
O4    O     O_2   0.704230 0.675760 0.533200 -0.476902
O5    O     O_3   0.951180 0.586390 0.529420 -0.498466
O6    O     O_3   0.434080 0.629720 0.443130 -0.483269
O7    O     O_3   0.899143 0.692552 0.612946 -0.660173
O8    O     O_3   0.351080 0.462080 0.440130 -0.503795
O9    O     O_3   0.839200 0.593040 0.416790 -0.470367
O10   O     O_2   0.711251 0.548114 0.327408 -0.503804
O11   O     O_3   0.773138 0.685615 0.348457 -0.591258
O12   O     O_3   0.859130 0.413620 0.470620 -0.496168
O13   O     O_3   0.459240 0.537930 0.559910 -0.490910
O14   O     O_2   0.583120 0.462390 0.379940 -0.470201
O15   O     O_3   0.391962 0.354431 0.340458 -0.627951
O16   O     O_2   0.529152 0.758563 0.487785 -0.475912
O17   O     O_3   0.449956 0.749768 0.394166 -0.608804
O18   O     O_2   0.425102 0.433247 0.204420 -0.598626
O19   O     O_2   0.720024 0.405524 0.806316 -0.633442
O20   O     O_2   0.100831 0.624701 0.196287 -0.606063
O21   O     O_2   0.377713 0.588824 0.790424 -0.605632
O22   O     O_3   0.376230 0.370290 0.556910 -0.476965
O23   O     O_2   0.267335 0.243698 0.511275 -0.490259
O24   O     O_3   0.927963 0.307601 0.386454 -0.646934
O25   O     O_3   0.358262 0.249092 0.603272 -0.615835
O26   O     O_2   0.227190 0.537650 0.620070 -0.479162
O27   O     O_3   0.971110 0.406970 0.583250 -0.480939
O28   O     O_2   0.053945 0.473486 0.675228 -0.485261
P1    P     P_3+3 0.929380 0.335110 0.452880 0.948239
P2    P     P_3+3 0.398530 0.559060 0.613740 0.974029
P3    P     P_3+3 0.951015 0.411304 0.647817 0.940026
P4    P     P_3+3 0.880940 0.664900 0.547160 0.950093
P5    P     P_3+3 0.840572 0.598440 0.353463 0.941316
P6    P     P_3+3 0.401109 0.276333 0.547305 0.916955
P7    P     P_3+3 0.403421 0.444553 0.375513 0.945039
P8    P     P_3+3 0.401594 0.723492 0.450036 0.941192
H21   H     H_    0.399142 0.349678 0.647408 0.059220
H22   H     H_    0.756703 0.655660 0.718715 0.091112
C83   C     C_3   0.990786 0.692622 0.714446 -0.346555
H23   H     H_    0.058927 0.641536 0.701696 0.157064
H24   H     H_    0.037925 0.736622 0.698857 0.125797
H25   H     H_    0.001827 0.707419 0.756214 0.117763
H26   H     H_    0.099136 0.375731 0.369493 0.016153
C84   C     C_3   0.879284 0.416705 0.350814 -0.267102
H27   H     H_    0.936293 0.448402 0.327158 0.019745
H28   H     H_    0.770920 0.400213 0.328976 0.131614
H29   H     H_    0.859474 0.451124 0.387941 0.165092
H30   H     H_    0.080862 0.260965 0.304272 0.105024
H31   H     H_    0.032395 0.339096 0.275331 0.089840
C85   C     C_3   0.362036 0.704187 0.574573 -0.286080
H32   H     H_    0.333834 0.654450 0.547124 0.096758
H33   H     H_    0.305583 0.752007 0.563202 0.020859
H34   H     H_    0.487803 0.711352 0.576090 0.144910
H35   H     H_    0.284660 0.292063 0.705125 0.153024
H36   H     H_    0.258978 0.774280 0.696221 0.096358
C86   C     C_3   0.487466 0.794270 0.681063 -0.375557
H37   H     H_    0.521719 0.762907 0.710723 0.149886
H38   H     H_    0.572158 0.783865 0.650661 0.108700
H39   H     H_    0.489157 0.852450 0.698486 0.104900
C87   C     C_3   0.519204 0.287494 0.733981 -0.468533
H40   H     H_    0.537052 0.346224 0.739454 0.174866
H41   H     H_    0.480316 0.274030 0.769698 0.150144
H42   H     H_    0.629320 0.257382 0.723902 0.142958
C88   C     C_3   0.621196 0.302214 0.376966 -0.231175
H43   H     H_    0.682730 0.303614 0.342636 0.119422
H44   H     H_    0.643364 0.351068 0.405723 0.101575
H45   H     H_    0.662882 0.254331 0.392580 0.042621
C89   C     C_3   0.370341 0.293199 0.410827 -0.288820
H46   H     H_    0.409290 0.338620 0.443051 0.126327
H47   H     H_    0.244971 0.301293 0.398663 0.134318
H48   H     H_    0.383779 0.238312 0.423216 0.061476
C90   C     C_3   0.560503 0.187986 0.293168 -0.437674
H49   H     H_    0.604996 0.225809 0.270692 0.143275
H50   H     H_    0.656038 0.171049 0.317835 0.127700
H51   H     H_    0.521745 0.138882 0.266762 0.126591
H52   H     H_    0.333258 0.234345 0.295330 0.134192
C91   C     C_3   0.865808 0.149474 0.655697 -0.457769
H53   H     H_    0.882415 0.125850 0.615238 0.123476
H54   H     H_    0.883644 0.104829 0.677100 0.132274
H55   H     H_    0.742975 0.170122 0.659291 0.128610
H56   H     H_    0.003162 0.714045 0.342087 -0.042323
C92   C     C_3   0.744512 0.852421 0.392847 -0.337451
H57   H     H_    0.768408 0.911514 0.400270 0.102624
H58   H     H_    0.620947 0.846461 0.379678 0.144084
H59   H     H_    0.757366 0.833106 0.429329 0.142211
C93   C     C_3   0.994119 0.850866 0.345121 -0.465054
H60   H     H_    0.042891 0.828593 0.307847 0.123190
H61   H     H_    0.966749 0.909164 0.346218 0.138571
H62   H     H_    0.084469 0.845141 0.374372 0.129248
H63   H     H_    0.781709 0.801565 0.315385 0.119694
H64   H     H_    0.465690 0.650342 0.347861 0.097838
C94   C     C_3   0.468172 0.686131 0.260913 -0.432509
H65   H     H_    0.593738 0.675727 0.269810 0.163989
H66   H     H_    0.408598 0.633829 0.251349 0.135956
H67   H     H_    0.459144 0.712734 0.227512 0.139012
C95   C     C_3   0.002248 0.243094 0.589201 -0.262606
H68   H     H_    0.893808 0.221712 0.568869 0.018671
H69   H     H_    0.046556 0.285785 0.570431 0.182845
H70   H     H_    0.091766 0.197745 0.585891 0.122692
H71   H     H_    0.454199 0.787197 0.313644 0.122628
H72   H     H_    0.279078 0.106458 0.413419 0.059907
C96   C     C_3   0.429306 0.978608 0.409519 -0.425392
H73   H     H_    0.412836 0.931993 0.378035 0.112610
H74   H     H_    0.481096 0.022568 0.394107 0.115724
H75   H     H_    0.513308 0.963498 0.438209 0.124281
H76   H     H_    0.358355 0.865881 0.443552 0.122250
C97   C     C_3   0.468389 0.889270 0.586058 -0.401493
H77   H     H_    0.503462 0.832476 0.582206 0.125690
H78   H     H_    0.457264 0.913256 0.626545 0.106246
H79   H     H_    0.351492 0.890680 0.567053 0.117955
H80   H     H_    0.442797 0.134099 0.553040 0.114795
H81   H     H_    0.830648 0.285991 0.643936 -0.034875
H82   H     H_    0.646206 0.344440 0.506644 0.067731
H83   H     H_    0.712391 0.387357 0.975149 0.066849
H84   H     H_    0.687784 0.407629 0.051698 0.066153
C98   C     C_3   0.915075 0.529387 0.236891 -0.294619
H85   H     H_    0.839241 0.490097 0.249087 0.113563
H86   H     H_    0.848773 0.580989 0.237137 0.136553
H87   H     H_    0.943969 0.505250 0.197605 0.103189
C99   C     C_3   0.133866 0.672574 0.956438 -0.416880
H88   H     H_    0.142265 0.715437 0.933591 0.112878
H89   H     H_    0.009936 0.656644 0.952317 0.114782
H90   H     H_    0.166165 0.699287 0.995553 0.125825
H91   H     H_    0.101631 0.186633 0.668948 0.103654
H92   H     H_    0.221775 0.635089 0.864167 0.119695
H93   H     H_    0.343845 0.505676 0.708486 0.150628
H94   H     H_    0.033855 0.606944 0.018064 0.081066
C100  C     C_3   0.131568 0.540218 0.416533 -0.245498
H95   H     H_    0.099233 0.484713 0.420368 0.101949
H96   H     H_    0.234686 0.563031 0.437033 0.147982
H97   H     H_    0.063702 0.577259 0.445764 0.113470
H98   H     H_    0.627503 0.434952 0.592956 0.084527
C101  C     C_3   0.969008 0.239372 0.731506 -0.343138
H99   H     H_    0.934302 0.195965 0.751325 0.111717
H100  H     H_    0.083949 0.258114 0.748024 0.115187
H101  H     H_    0.885267 0.285788 0.739173 0.156676
C102  C     C_3   0.842003 0.576258 0.629451 -0.233263
H102  H     H_    0.778245 0.547983 0.595240 0.075321
H103  H     H_    0.967021 0.567861 0.623373 0.179915
H104  H     H_    0.814430 0.554272 0.662654 0.021562

loop_
_geom_bond_atom_site_label_1
_geom_bond_atom_site_label_2
_ccdc_geom_bond_type
C12   O3    S    
C36   C38   A    
C80   H92   S    
C45   C83   S    
O27   P3    S    
C40   C41   A    
C1    H7    S    
C7    H9    S    
C38   H80   S    
C39   C40   A    
C5    O11   S    
C17   C18   A    
Ba1   O22   S    
C78   C82   S    
Ba1   O26   S    
C54   C100  S    
O28   P3    D    
C83   H23   S    
Ba2   O12   S    
C68   H17   S    
C5    C6    S    
C37   C39   A    
C51   C52   A    
C6    C92   S    
C10   C11   A    
O23   P6    D    
Ba2   O6    S    
C48   H15   S    
C35   C36   A    
C100  H96   S    
C4    H52   S    
C92   H59   S    
C45   H1    S    
C5    H56   S    
C26   C27   A    
C33   C35   A    
C101  H99   S    
C22   C24   A    
O2    P2    S    
C78   H3    S    
C91   H54   S    
Ba1   O13   S    
C3    C4    S    
C70   P2    S    
C72   N2    S    
C88   H43   S    
C8    H10   S    
C102  H102  S    
C9    C10   A    
C3    O15   S    
C23   C91   S    
O17   P8    S    
C34   C45   S    
O3    P3    S    
C16   C17   A    
C3    C89   S    
O6    P8    S    
C47   C48   D    
C89   H46   S    
C39   P6    S    
O1    P1    D    
O25   P6    S    
C42   C51   A    
Ba2   O4    S    
C81   H94   S    
C92   H58   S    
C43   N1    Am   
C14   C15   A    
C102  H103  S    
C95   H70   S    
C47   P7    S    
C68   C72   D    
C28   H12   S    
C21   C22   A    
C11   H72   S    
C78   C85   S    
C94   H65   S    
C93   H60   S    
Ba1   P2    S    
C7    C8    S    
O7    P4    S    
C55   H98   S    
C56   H26   S    
O26   P2    D    
O10   P5    D    
C64   C65   A    
C1    C87   S    
C24   C29   A    
C55   C70   D    
C4    C90   S    
C87   H41   S    
C77   H19   S    
O11   P5    S    
C57   C73   A    
C66   N2    Am   
C2    H21   S    
C61   H18   S    
Ba1   O27   S    
C34   O7    S    
C8    C94   S    
C82   H36   S    
C35   H14   S    
C83   H24   S    
C7    H64   S    
C79   C80   A    
C2    O25   S    
C86   H38   S    
C97   H78   S    
C25   C32   A    
C23   H91   S    
C44   C46   S    
Ba2   O5    S    
C57   C59   A    
C79   C99   S    
O14   P7    D    
C3    C88   S    
Ba2   P4    S    
C93   H62   S    
O15   P7    S    
O4    P4    D    
C17   C20   A    
C66   O19   D    
C74   C75   A    
C69   P3    S    
C40   H82   S    
C95   H68   S    
C91   H55   S    
C58   C75   A    
C56   C67   S    
Ba2   O14   S    
Ba1   Ba2   S    
C96   H73   S    
C26   C37   A    
C22   P4    S    
C98   H86   S    
C42   N1    Am   
C44   C49   D    
C84   H29   S    
C75   C81   A    
C15   C19   A    
C58   C59   A    
C100  H97   S    
C93   H61   S    
C16   H76   S    
C73   C74   A    
O8    P7    S    
C91   H53   S    
C60   C61   A    
C65   O21   D    
C64   C80   A    
C86   H39   S    
C53   C77   A    
Ba2   O9    S    
C12   C95   S    
C29   C30   A    
C59   C63   A    
C9    C25   A    
C43   O20   D    
C49   N1    S    
C102  H104  S    
C20   P8    S    
C94   H67   S    
C31   C32   A    
C48   C49   S    
C67   H31   S    
C55   C69   S    
C41   P1    S    
C33   C97   S    
C89   H48   S    
C68   C69   S    
C95   H69   S    
Ba1   O1    S    
C101  H100  S    
C96   H74   S    
O24   P1    S    
O9    P5    S    
C63   C64   A    
C99   H89   S    
C11   C13   A    
C1    H35   S    
C84   H28   S    
C100  H95   S    
O16   P8    D    
C1    C2    S    
C47   C54   D    
C71   C72   S    
C62   C66   A    
C37   C38   A    
C83   H25   S    
C82   C86   S    
C50   C51   A    
C86   H37   S    
C97   H79   S    
C46   C54   S    
C85   H32   S    
C57   C60   A    
C46   P5    S    
C10   C28   A    
C32   C36   A    
C34   C102  S    
C85   H34   S    
C12   H81   S    
C30   C33   A    
C13   C96   S    
C70   C71   D    
C50   C74   A    
C9    C15   A    
C98   H87   S    
C90   H50   S    
Ba2   O13   S    
C50   C53   A    
C65   N2    Am   
C2    H5    S    
C99   H90   S    
C78   O2    S    
C67   H30   S    
C84   H27   S    
C34   H20   S    
C30   C31   A    
C85   H33   S    
C8    H71   S    
C4    H6    S    
Ba1   O5    S    
O13   P2    S    
C77   C81   A    
Ba2   O8    S    
C87   H40   S    
C82   H4    S    
C18   C24   A    
C56   O24   S    
C96   H75   S    
C97   H77   S    
C5    H8    S    
C45   H22   S    
C62   C63   A    
C7    O17   S    
C58   C79   A    
C21   H11   S    
C6    H63   S    
C101  H101  S    
Ba1   O12   S    
C29   H13   S    
C12   C23   S    
O22   P6    S    
C44   C98   S    
C6    C93   S    
C73   C76   A    
C89   H47   S    
C90   H51   S    
O12   P1    S    
C76   H84   S    
C27   C28   A    
C61   C62   A    
C56   C84   S    
C19   C31   A    
C18   C19   A    
C43   C53   A    
C87   H42   S    
C14   C16   A    
C99   H88   S    
Ba1   O8    S    
C52   H16   S    
C42   O18   D    
C25   C26   A    
C23   C101  S    
C20   C21   A    
C92   H57   S    
C94   H66   S    
C88   H44   S    
Ba1   P1    S    
C98   H85   S    
C71   H93   S    
C27   C41   A    
C67   H2    S    
C13   C14   A    
O5    P4    S    
C60   H83   S    
C90   H49   S    
C52   C76   A    
C88   H45   S    
