data_mof_unit_47448.cif
_audit_creation_date              2012-12-10T17:17:28-0500
_audit_creation_method            fapswitch 2.2
_symmetry_space_group_name_H-M    P1
_symmetry_Int_Tables_number       1
_space_group_crystal_system       triclinic
_cell_length_a                    10.239395
_cell_length_b                    10.574322
_cell_length_c                    12.557653
_cell_angle_alpha                 91.24866
_cell_angle_beta                  110.025419
_cell_angle_gamma                 94.915156
_cell_volume                      1270.87283545

loop_
_atom_site_label
_atom_site_type_symbol
_atom_type_description
_atom_site_fract_x
_atom_site_fract_y
_atom_site_fract_z
_atom_type_partial_charge
C1    C     C_R   0.047915 0.733755 0.488476 0.793873
C2    C     C_R   0.418767 0.483080 0.981700 -0.120869
C3    C     C_R   0.360044 0.533185 0.874638 -0.040574
C4    C     C_R   0.561991 0.464400 0.017628 0.075232
C5    C     C_R   0.633747 0.466935 0.939118 0.119673
C6    C     C_R   0.575038 0.520510 0.835515 -0.300452
C7    C     C_R   0.446182 0.569740 0.811136 0.508202
C8    C     C_R   0.640930 0.465869 0.132009 -0.223152
C9    C     C_R   0.848086 0.432366 0.088101 -0.132891
C10   C     C_R   0.216645 0.548602 0.834513 -0.148146
C11   C     C_2   0.060594 0.867648 0.463031 0.301458
C12   C     C_R   0.137661 0.524956 0.712401 0.959288
C13   C     C_2   0.941606 0.923540 0.422000 -0.151212
C14   C     C_2   0.909933 0.129835 0.489795 0.014681
C15   C     C_2   0.943937 0.059771 0.413878 0.273221
C16   C     C_2   0.427282 0.523931 0.489551 -0.223011
C17   C     C_2   0.567963 0.488762 0.486672 0.535243
C18   C     C_R   0.946139 0.266043 0.501511 0.901380
C19   C     C_R   0.863563 0.481451 0.287474 0.871026
C20   C     C_R   0.772035 0.436519 0.972973 -0.099576
C21   C     C_R   0.784404 0.458251 0.167481 -0.063196
C22   C     C_R   0.148396 0.561215 0.913530 0.187231
C23   C     C_R   0.206683 0.515438 0.020839 -0.155759
C24   C     C_R   0.332946 0.461455 0.049850 0.418548
H1    H     H_    0.957543 0.417456 0.114996 0.176548
H2    H     H_    0.840122 0.870985 0.406118 0.160052
H3    H     H_    0.420348 0.616611 0.523923 0.203851
H4    H     H_    0.322077 0.354911 0.430710 0.220353
H5    H     H_    0.635906 0.537854 0.780827 0.189395
H6    H     H_    0.823914 0.426480 0.911757 0.181108
H7    H     H_    0.593552 0.487090 0.194148 0.216799
H8    H     H_    0.149927 0.514659 0.079279 0.179130
N1    N     N_2   0.313640 0.446500 0.454900 -0.175875
N2    N     N_2   0.686360 0.553430 0.545150 -0.013603
O1    O     O_R   0.936910 0.692950 0.509080 -0.577341
O2    O     O_R   0.138320 0.658600 0.480130 -0.595323
O3    O     O_R   0.002900 0.525670 0.675280 -0.564641
O4    O     O_R   0.204310 0.491320 0.646330 -0.574982
O5    O     O_R   0.861680 0.341400 0.519870 -0.540447
O6    O     O_R   0.063090 0.307050 0.490920 -0.584706
O7    O     O_R   0.795690 0.508680 0.353670 -0.596791
O8    O     O_R   0.997100 0.474330 0.324720 -0.598384
Zn1   Zn    Zn3+2 0.865520 0.522940 0.519330 1.097428
Zn2   Zn    Zn3+2 0.134480 0.477060 0.480670 1.031054
Br1   Br    Br    0.832155 0.055007 0.595982 -0.371674
O9    O     O_3   0.188612 0.936047 0.482355 -0.692401
H9    H     H_    0.262769 0.879608 0.516546 0.359388
O10   O     O_3   0.574704 0.384890 0.420973 -0.720619
H10   H     H_    0.483435 0.365782 0.359666 0.349606
Br2   Br    Br    0.690620 0.715171 0.613114 -0.398179
Br3   Br    Br    0.982918 0.647386 0.881664 -0.431842
O11   O     O_3   0.364509 0.385169 0.141005 -0.778671
H11   H     H_    0.421054 0.319230 0.127358 0.353028
O12   O     O_3   0.406311 0.660859 0.732317 -0.749020
H12   H     H_    0.488477 0.694353 0.713715 0.358667
Br4   Br    Br    0.001072 0.129702 0.293998 -0.412125

loop_
_geom_bond_atom_site_label_1
_geom_bond_atom_site_label_2
_ccdc_geom_bond_type
O3    Zn1   S    
C2    C4    A    
C18   O5    A    
C17   O10   S    
O4    Zn2   S    
C6    C7    A    
C16   N1    D    
O1    Zn1   S    
C14   C18   S    
C9    C20   A    
C1    C11   S    
C19   O8    A    
C4    C8    A    
C23   C24   A    
C23   H8    S    
C16   H3    S    
C14   C15   D    
C2    C3    A    
C9    H1    S    
C3    C10   A    
C20   H6    S    
C10   C22   A    
C2    C24   A    
C11   C13   D    
C9    C21   A    
C16   C17   S    
O8    Zn2   S    
C10   C12   S    
O10   H10   S    
C19   C21   S    
H4    N1    S    
C8    C21   A    
C14   Br1   S    
C3    C7    A    
C24   O11   S    
C13   C15   S    
C12   O4    A    
C5    C6    A    
C15   Br4   S    
C13   H2    S    
O2    Zn2   S    
N2    Br2   S    
C17   N2    D    
N2    Zn1   S    
O12   H12   S    
O6    Zn2   S    
C6    H5    S    
O11   H11   S    
C1    O1    A    
C12   O3    A    
C5    C20   A    
C18   O6    A    
C22   C23   A    
C22   Br3   S    
C11   O9    S    
O5    Zn1   S    
C7    O12   S    
O9    H9    S    
C8    H7    S    
O7    Zn1   S    
C19   O7    A    
C1    O2    A    
C4    C5    A    
N1    Zn2   S    
