data_mof_unit_55292.cif
_audit_creation_date              2012-12-11T14:14:00-0500
_audit_creation_method            fapswitch 2.2
_symmetry_space_group_name_H-M    P1
_symmetry_Int_Tables_number       1
_space_group_crystal_system       triclinic
_cell_length_a                    17.037969
_cell_length_b                    7.252575
_cell_length_c                    16.945102
_cell_angle_alpha                 89.998319
_cell_angle_beta                  99.535888
_cell_angle_gamma                 90.001633
_cell_volume                      2064.95847775

loop_
_atom_site_label
_atom_site_type_symbol
_atom_type_description
_atom_site_fract_x
_atom_site_fract_y
_atom_site_fract_z
_atom_type_partial_charge
O1    O     O_R   0.414560 0.494370 0.416770 -0.538146
O2    O     O_R   0.585440 0.994370 0.583230 -0.538169
O3    O     O_R   0.578370 0.819590 0.429320 -0.537557
O4    O     O_R   0.421630 0.319590 0.570680 -0.537582
C1    C     C_R   0.604519 0.655923 0.414091 0.755089
C2    C     C_R   0.395487 0.155914 0.585915 0.755122
O5    O     O_R   0.414740 0.823790 0.407360 -0.550990
O6    O     O_R   0.585260 0.323790 0.592640 -0.550988
O7    O     O_R   0.420650 0.998510 0.561120 -0.521993
O8    O     O_R   0.579350 0.498510 0.438880 -0.521881
C3    C     C_R   0.389569 0.654772 0.383654 0.643848
C4    C     C_R   0.610431 0.154771 0.616346 0.643976
O9    O     O_3   0.502130 0.662240 0.550470 -0.376193
O10   O     O_3   0.497870 0.162240 0.449530 -0.376116
V1    V     V_3+5 0.499600 0.935390 0.490640 1.501120
V2    V     V_3+5 0.500400 0.435390 0.509360 1.501118
C5    C     C_2   0.789038 0.268618 0.783172 -0.063266
C6    C     C_2   0.210960 0.768617 0.216830 -0.063226
C7    C     C_2   0.825115 0.112516 0.813551 -0.216972
C8    C     C_2   0.174883 0.612516 0.186450 -0.217054
H1    H     H_    0.809083 0.400655 0.809260 0.134743
H2    H     H_    0.190916 0.900656 0.190742 0.134782
H3    H     H_    0.809618 0.981644 0.784096 0.180156
H4    H     H_    0.190380 0.481643 0.215907 0.180199
C9    C     C_2   0.726011 0.273059 0.710602 -0.125345
C10   C     C_2   0.273986 0.773053 0.289401 -0.125323
C11   C     C_2   0.670863 0.139667 0.690622 0.215834
C12   C     C_2   0.329136 0.639672 0.309378 0.215829
H5    H     H_    0.723767 0.396069 0.673712 0.102596
H6    H     H_    0.276230 0.896055 0.326292 0.102616
C13   C     C_R   0.329786 0.151591 0.633456 -0.205387
C14   C     C_R   0.670222 0.651640 0.366555 -0.205417
C15   C     C_R   0.167200 0.113083 0.862430 -0.239686
C16   C     C_R   0.832803 0.613035 0.137581 -0.239887
C17   C     C_R   0.289683 0.973926 0.830816 0.392727
C18   C     C_R   0.710467 0.473420 0.169344 0.392875
C19   C     C_R   0.233711 0.995015 0.883036 0.265605
C20   C     C_R   0.766389 0.494628 0.117081 0.265722
C21   C     C_R   0.158151 0.213583 0.789665 -0.063251
C22   C     C_R   0.841778 0.713821 0.210267 -0.063316
C23   C     C_R   0.211995 0.183482 0.734145 -0.140344
C24   C     C_R   0.787969 0.683696 0.265821 -0.140378
C25   C     C_R   0.282181 0.077604 0.759034 -0.054461
C26   C     C_R   0.717882 0.577392 0.241037 -0.054508
C27   C     C_R   0.343039 0.073842 0.710280 0.337994
C28   C     C_R   0.657036 0.573525 0.289803 0.338096
C29   C     C_R   0.255920 0.235726 0.604101 0.260603
C30   C     C_R   0.744011 0.736224 0.395826 0.260724
C31   C     C_R   0.197290 0.250877 0.653612 -0.012177
C32   C     C_R   0.802615 0.751479 0.346292 -0.012133
O11   O     O_R   0.920750 0.773600 0.061260 -0.528333
O12   O     O_R   0.079250 0.273600 0.938740 -0.528388
O13   O     O_R   0.085340 0.439850 0.092570 -0.548152
O14   O     O_R   0.914660 0.939850 0.907430 -0.548157
C33   C     C_R   0.111201 0.608313 0.115503 0.745303
C34   C     C_R   0.888798 0.108313 0.884498 0.745454
O15   O     O_R   0.921720 0.444130 0.070790 -0.528964
O16   O     O_R   0.078280 0.944130 0.929210 -0.528950
O17   O     O_R   0.914480 0.269530 0.916840 -0.530614
O18   O     O_R   0.085520 0.769530 0.083160 -0.530597
C35   C     C_R   0.896441 0.611922 0.086588 0.728897
C36   C     C_R   0.103556 0.111930 0.913412 0.728987
O19   O     O_3   0.997840 0.601520 0.949550 -0.377175
O20   O     O_3   0.002160 0.101520 0.050450 -0.377125
V3    V     V_3+5 0.000400 0.328340 0.009360 1.510194
V4    V     V_3+5 0.999600 0.828340 0.990640 1.510278
C37   C     C_2   0.097236 0.361899 0.776205 0.799550
O21   O     O_2   0.026944 0.326129 0.775425 -0.554195
O22   O     O_R   0.120896 0.542889 0.764069 -0.646330
H7    H     H_    0.074488 0.632223 0.755690 0.311040
C38   C     C_2   0.902567 0.862429 0.223600 0.799740
O23   O     O_2   0.972895 0.826920 0.224469 -0.554081
O24   O     O_R   0.878745 0.043395 0.235513 -0.646318
H8    H     H_    0.925077 0.132946 0.243819 0.310983
O25   O     O_3   0.668988 0.990961 0.741499 -0.640678
H9    H     H_    0.620903 0.916118 0.722610 0.311089
O26   O     O_3   0.331014 0.490978 0.258499 -0.640679
H10   H     H_    0.379117 0.416185 0.277375 0.311061
O27   O     O_3   0.418148 0.005549 0.737896 -0.617713
H11   H     H_    0.434798 0.053902 0.792852 0.324214
O28   O     O_3   0.581991 0.504786 0.262254 -0.617665
H12   H     H_    0.565289 0.552847 0.207254 0.324166
O29   O     O_3   0.237756 0.301420 0.526365 -0.613947
H13   H     H_    0.275796 0.252487 0.493394 0.282224
O30   O     O_3   0.762122 0.802279 0.473506 -0.613964
H14   H     H_    0.724181 0.753128 0.506540 0.282243
O31   O     O_3   0.350495 0.845516 0.846768 -0.621166
H15   H     H_    0.346004 0.773603 0.895411 0.344780
O32   O     O_3   0.649789 0.344639 0.153518 -0.621124
H16   H     H_    0.654390 0.272453 0.104978 0.344796
C39   C     C_2   0.117065 0.312088 0.614489 0.887752
O33   O     O_2   0.108800 0.460134 0.579511 -0.506139
O34   O     O_R   0.051385 0.197270 0.615909 -0.645942
H17   H     H_    0.000050 0.252978 0.586858 0.327889
C40   C     C_2   0.882775 0.813267 0.385350 0.887699
O35   O     O_2   0.890888 0.961534 0.420157 -0.506324
O36   O     O_R   0.948572 0.698746 0.384069 -0.645795
H18   H     H_    0.999849 0.754854 0.413052 0.327848
O37   O     O_3   0.246783 0.899992 0.954884 -0.643369
H19   H     H_    0.222468 0.968142 0.995347 0.284681
O38   O     O_3   0.753359 0.399391 0.045289 -0.643307
H20   H     H_    0.777540 0.467648 0.004758 0.284696

loop_
_geom_bond_atom_site_label_1
_geom_bond_atom_site_label_2
_ccdc_geom_bond_type
C18   O32   S    
O16   C36   A    
O31   H15   S    
O38   H20   S    
C22   C38   S    
C14   C30   A    
O24   H8    S    
C40   O35   D    
O1    C3    A    
C7    C34   S    
O2    C4    A    
C2    O7    A    
O36   H18   S    
O3    V1    S    
C29   C31   A    
O26   H10   S    
O5    C3    A    
C15   C21   A    
C16   C22   A    
C17   C19   A    
C20   O38   S    
C32   C40   S    
C17   O31   S    
O16   V4    S    
C8    H4    S    
C15   C36   S    
C6    C10   S    
C29   O29   S    
C17   C25   A    
C1    C14   S    
C14   C28   A    
C30   C32   A    
C2    C13   S    
O19   V4    S    
O18   V4    S    
O6    V2    S    
C13   C29   A    
C33   O18   A    
C23   C25   A    
C24   C26   A    
C31   C39   S    
C8    C33   S    
C11   O25   S    
C23   C31   A    
C26   C28   A    
O28   H12   S    
O13   C33   A    
C9    H5    S    
O14   C34   A    
C4    C11   S    
C37   O21   D    
C21   C23   A    
C39   O33   D    
C38   O24   S    
O30   H14   S    
C16   C35   S    
C5    H1    S    
C37   O22   S    
O11   V4    S    
O4    V2    S    
C7    H3    S    
O25   H9    S    
O2    V1    S    
C39   O34   S    
C28   O28   S    
O29   H13   S    
O6    C4    A    
C27   O27   S    
O1    V2    S    
C12   O26   S    
C25   C27   A    
C24   C32   A    
O4    C2    A    
C10   H6    S    
C18   C26   A    
C18   C20   A    
C19   O37   S    
O13   V3    S    
C16   C20   A    
C21   C37   S    
C30   O30   S    
O15   V3    S    
C22   C24   A    
O3    C1    A    
C40   O36   S    
O15   C35   A    
O14   V4    S    
C9    C11   D    
O34   H17   S    
C10   C12   D    
C34   O17   A    
C5    C9    S    
O20   V3    S    
C6    H2    S    
O7    V1    S    
C1    O8    A    
O8    V2    S    
O37   H19   S    
O17   V3    S    
O11   C35   A    
C3    C12   S    
O5    V1    S    
C5    C7    D    
C6    C8    D    
O22   H7    S    
C15   C19   A    
O27   H11   S    
C38   O23   D    
C13   C27   A    
O9    V2    S    
O10   V1    S    
O12   C36   A    
O32   H16   S    
O12   V3    S    
