data_mof_unit_16742.cif
_audit_creation_date              2012-12-11T14:49:54-0500
_audit_creation_method            fapswitch 2.2
_symmetry_space_group_name_H-M    P1
_symmetry_Int_Tables_number       1
_space_group_crystal_system       triclinic
_cell_length_a                    17.320765
_cell_length_b                    16.698571
_cell_length_c                    19.434695
_cell_angle_alpha                 118.105365
_cell_angle_beta                  62.384396
_cell_angle_gamma                 100.87457
_cell_volume                      4390.26860426

loop_
_atom_site_label
_atom_site_type_symbol
_atom_type_description
_atom_site_fract_x
_atom_site_fract_y
_atom_site_fract_z
_atom_type_partial_charge
C1    C     C_R   0.036341 0.760660 0.014386 -0.133694
C2    C     C_R   0.249520 0.520635 0.824971 -0.141087
C3    C     C_R   0.188301 0.468842 0.070170 -0.097467
C4    C     C_R   0.764092 0.422324 0.164426 -0.115282
C5    C     C_R   0.987543 0.341398 0.759471 -0.143136
C6    C     C_R   0.266321 0.502827 0.032119 0.052130
C7    C     C_R   0.938886 0.265533 0.758757 0.072550
C8    C     C_R   0.252738 0.456870 0.744731 0.060486
C9    C     C_R   0.017593 0.222197 0.011450 0.047182
C10   C     C_R   0.848993 0.137067 0.706249 -0.206687
C11   C     C_R   0.901766 0.209549 0.696877 0.115483
C12   C     C_R   0.764178 0.442756 0.241656 -0.051604
C13   C     C_R   0.925213 0.223412 0.623779 -0.258079
C14   C     C_R   0.909031 0.157745 0.554538 0.145871
C15   C     C_R   0.866664 0.078561 0.559641 0.036592
C16   C     C_R   0.814966 0.521590 0.920730 -0.225544
C17   C     C_R   0.832079 0.070817 0.637486 0.082467
C18   C     C_R   0.942764 0.165624 0.477156 -0.203278
C19   C     C_R   0.944358 0.091006 0.402294 -0.206569
C20   C     C_R   0.912373 0.008304 0.404634 0.149494
C21   C     C_R   0.867911 0.003455 0.484538 0.048736
C22   C     C_R   0.833986 0.920669 0.487714 0.021830
C23   C     C_R   0.739887 0.479218 0.950288 -0.036904
C24   C     C_R   0.786688 0.917931 0.568868 -0.071811
C25   C     C_R   0.787743 0.993334 0.643031 -0.174539
C26   C     C_R   0.933585 0.928639 0.327966 -0.247248
C27   C     C_R   0.914975 0.844577 0.330717 0.136799
C28   C     C_R   0.951930 0.674445 0.248043 -0.060830
C29   C     C_R   0.858199 0.841427 0.409515 -0.247176
C30   C     C_R   0.409185 0.392629 0.653146 -0.108644
C31   C     C_R   0.329684 0.416789 0.662011 0.005024
C32   C     C_R   0.322425 0.407683 0.590029 -0.228613
C33   C     C_R   0.394498 0.388925 0.512735 0.142729
C34   C     C_R   0.961765 0.761220 0.253929 0.026428
C35   C     C_R   0.477215 0.381871 0.506898 0.003597
C36   C     C_R   0.485731 0.381399 0.575924 0.112297
C37   C     C_R   0.385206 0.387313 0.444325 -0.201143
C38   C     C_R   0.458343 0.387943 0.372960 -0.190363
C39   C     C_R   0.540801 0.389887 0.369852 0.131568
C40   C     C_R   0.748683 0.439059 0.993875 0.435790
C41   C     C_R   0.551212 0.382355 0.434339 0.039618
C42   C     C_R   0.635038 0.382382 0.429178 0.154063
C43   C     C_R   0.644242 0.376358 0.494410 -0.236067
C44   C     C_R   0.570635 0.377015 0.567449 -0.132321
C45   C     C_R   0.255899 0.549845 0.994826 -0.162227
C46   C     C_R   0.612017 0.406844 0.306838 -0.235742
C47   C     C_R   0.694943 0.413646 0.304488 0.114347
C48   C     C_R   0.707403 0.394773 0.361919 -0.271805
C49   C     C_R   0.660571 0.485428 0.948619 0.162511
C50   C     C_R   0.346408 0.492777 0.030216 0.120776
C51   C     C_R   0.431706 0.513304 0.104345 -0.191923
C52   C     C_R   0.024521 0.753739 0.173667 -0.126434
C53   C     C_R   0.350852 0.509525 0.105635 -0.177682
C54   C     C_R   0.420187 0.474655 0.952492 -0.250807
C55   C     C_R   0.500788 0.478481 0.950418 0.175932
C56   C     C_R   0.921070 0.262126 0.834646 -0.107723
C57   C     C_R   0.506303 0.499463 0.027453 0.176611
C58   C     C_R   0.586461 0.505457 0.026250 -0.213899
C59   C     C_R   0.656789 0.466422 0.872291 -0.163224
C60   C     C_R   0.575854 0.463281 0.873282 -0.196343
C61   C     C_R   0.833529 0.191200 0.164822 0.134324
C62   C     C_R   0.950407 0.866160 0.009222 0.126288
C63   C     C_R   0.874520 0.956005 0.988539 -0.211596
C64   C     C_R   0.841071 0.487600 0.240818 -0.009542
C65   C     C_R   0.911828 0.873353 0.962554 -0.167689
C66   C     C_R   0.952889 0.944200 0.081525 -0.268265
C67   C     C_R   0.168601 0.447976 0.752228 -0.114734
C68   C     C_R   0.914814 0.027252 0.108545 0.186712
C69   C     C_R   0.874468 0.032943 0.062111 0.175649
C70   C     C_R   0.833743 0.115210 0.090946 -0.273222
C71   C     C_R   0.874022 0.185936 0.210247 -0.156140
C72   C     C_R   0.914540 0.104353 0.182442 -0.218892
C73   C     C_R   0.953574 0.691710 0.943729 -0.120925
C74   C     C_R   0.980908 0.776372 0.987709 0.054647
C75   C     C_2   0.738129 0.837065 0.577573 0.536364
C76   C     C_2   0.408424 0.373200 0.721024 0.462374
C77   C     C_2   0.881293 0.501907 0.297764 0.410842
C78   C     C_R   0.043864 0.307092 0.056932 -0.081123
C79   C     C_R   0.967244 0.238690 0.980156 -0.120166
Cl1   Cl    Cl    0.688813 0.347206 0.010358 -0.731095
H1    H     H_    0.077632 0.810026 0.040143 0.092646
H2    H     H_    0.962825 0.280738 0.616524 0.116533
H3    H     H_    0.973742 0.226990 0.473029 0.131069
H4    H     H_    0.723651 0.373478 0.137216 0.178923
H5    H     H_    0.976799 0.095910 0.341556 0.125649
H6    H     H_    0.972322 0.932373 0.267118 0.111157
H7    H     H_    0.840741 0.776688 0.410847 0.099501
H8    H     H_    0.757257 0.990303 0.704640 0.176048
H9    H     H_    0.261284 0.423057 0.595388 0.121821
H10   H     H_    0.321349 0.391292 0.448404 0.130367
H11   H     H_    0.450203 0.392085 0.322662 0.140431
H12   H     H_    0.874408 0.220125 0.861973 0.121470
H13   H     H_    0.601093 0.420579 0.262735 0.140007
H14   H     H_    0.832238 0.551764 0.877246 0.123468
H15   H     H_    0.771859 0.391624 0.356238 0.113420
H16   H     H_    0.708321 0.376574 0.491449 0.138275
H17   H     H_    0.581892 0.380519 0.618930 0.176637
H18   H     H_    0.591447 0.522494 0.085310 0.135636
H19   H     H_    0.715497 0.451371 0.812478 0.128907
H20   H     H_    0.436069 0.528482 0.163135 0.133513
H21   H     H_    0.571742 0.447581 0.814250 0.150596
H22   H     H_    0.292529 0.523745 0.165626 0.131972
H23   H     H_    0.147269 0.403469 0.702837 0.100552
H24   H     H_    0.414588 0.460594 0.894530 0.133415
H25   H     H_    0.802088 0.120902 0.056634 0.136403
H26   H     H_    0.907610 0.654848 0.297733 0.098709
H27   H     H_    0.873665 0.245196 0.267269 0.124194
H28   H     H_    0.844389 0.959347 0.951934 0.135955
H29   H     H_    0.945015 0.101339 0.218913 0.124460
H30   H     H_    0.909491 0.814807 0.906343 0.120720
H31   H     H_    0.981220 0.939763 0.119036 0.115114
H32   H     H_    0.052248 0.808768 0.157025 0.093328
H33   H     H_    0.913355 0.677429 0.910659 0.093270
H34   H     H_    0.079417 0.320110 0.094152 0.112745
H35   H     H_    0.301625 0.593720 0.969339 0.106102
H36   H     H_    0.722570 0.784917 0.526029 -0.004377
H37   H     H_    0.354979 0.397670 0.785063 0.024188
H38   H     H_    0.841294 0.518039 0.365385 0.021833
H39   H     H_    0.932849 0.188673 0.945140 0.106329
H40   H     H_    0.304347 0.546642 0.840160 0.088697
H41   H     H_    0.172639 0.436553 0.111682 0.111083
H42   H     H_    0.001468 0.373755 0.718417 0.089290
H43   H     H_    0.826874 0.127512 0.763758 0.129878
N1    N     N_R   0.036080 0.671900 0.995420 -0.041438
N2    N     N_R   0.867430 0.509300 0.948100 -0.057066
N3    N     N_R   0.003360 0.617250 0.167070 -0.029622
N4    N     N_R   0.825450 0.461270 0.995400 -0.080665
N5    N     N_R   0.045340 0.665280 0.119770 -0.047251
N6    N     N_R   0.883740 0.497640 0.167070 -0.050017
N7    N     N_R   0.987050 0.628910 0.948110 -0.040309
N8    N     N_R   0.174550 0.538730 0.004600 -0.042772
N9    N     N_R   0.954660 0.334720 0.880230 -0.043113
N10   N     N_R   0.116260 0.502360 0.832930 -0.044479
N11   N     N_R   0.012950 0.371090 0.051890 -0.038657
N12   N     N_R   0.963920 0.328100 0.004580 -0.047623
N13   N     N_R   0.165290 0.545350 0.880240 -0.038877
N14   N     N_R   0.132570 0.490700 0.051900 -0.036392
N15   N     N_R   0.996640 0.382750 0.832930 -0.043228
N16   N     N_R   0.834710 0.454650 0.119760 -0.053240
Ni1   Ni    Ni4+2 0.104370 0.604370 0.000010 0.217150
Ni2   Ni    Ni4+2 0.895630 0.395630 0.999990 0.245041
Ni3   Ni    Ni4+2 0.991920 0.505780 0.891500 0.204045
Ni4   Ni    Ni4+2 0.008080 0.494220 0.108500 0.282426
O1    O     O_2   0.713117 0.828492 0.643661 -0.581341
O2    O     O_2   0.463763 0.323116 0.704669 -0.587804
O3    O     O_2   0.960480 0.497942 0.269712 -0.593526

loop_
_geom_bond_atom_site_label_1
_geom_bond_atom_site_label_2
_ccdc_geom_bond_type
C61   C70   A    
C66   C68   A    
C63   C65   A    
C48   H15   S    
C71   H27   S    
C27   C29   A    
C59   H19   S    
C41   C42   A    
C14   C18   A    
C35   C36   A    
C58   H18   S    
N13   Ni1   S    
C3    C6    A    
C52   N5    A    
C67   H23   S    
C5    N15   A    
C39   C41   A    
C7    C11   S    
C26   C27   A    
C50   C54   A    
C37   H10   S    
C1    C74   A    
C54   H24   S    
C22   C29   A    
C73   N7    A    
C9    C79   A    
C30   C31   A    
C12   C64   A    
C23   C49   S    
C52   H32   S    
C10   C17   A    
C1    H1    S    
C23   C40   A    
N3    Ni4   S    
C51   H20   S    
C73   H33   S    
C18   C19   A    
N4    Ni2   S    
N8    Ni1   S    
N11   Ni4   S    
C72   H29   S    
C63   C69   A    
C28   H26   S    
C68   C69   A    
C79   H39   S    
N10   N13   A    
C40   Cl1   S    
C3    N14   A    
C13   C14   A    
C66   H31   S    
C4    C12   A    
C16   N2    A    
N2    Ni3   S    
C75   O1    D    
C68   C72   A    
C61   C71   A    
N14   Ni4   S    
C28   C34   A    
C59   C60   A    
C21   C22   A    
C78   H34   S    
C7    C56   A    
C12   C47   S    
C35   C41   A    
C28   N3    A    
C43   H16   S    
C27   C34   S    
C50   C53   A    
C62   C66   A    
C6    C45   A    
N16   Ni2   S    
C24   C25   A    
C10   H43   S    
N15   Ni3   S    
C5    C7    A    
C2    H40   S    
C40   N4    A    
C38   H11   S    
C25   H8    S    
C33   C37   A    
C49   C58   A    
C51   C53   A    
C43   C44   A    
C37   C38   A    
N8    N14   A    
C30   C76   S    
C44   H17   S    
C45   H35   S    
C47   C48   A    
C4    H4    S    
N12   Ni2   S    
C53   H22   S    
C26   H6    S    
C18   H3    S    
N10   Ni3   S    
N1    N7    A    
C42   C48   A    
C6    C50   S    
C78   N11   A    
C56   N9    A    
C39   C46   A    
C51   C57   A    
C76   O2    D    
C77   H38   S    
C16   C23   A    
C55   C57   A    
C32   H9    S    
C22   C24   A    
C36   C44   A    
C42   C43   A    
C60   H21   S    
C73   C74   A    
N9    Ni2   S    
C15   C17   A    
C46   C47   A    
N3    N5    A    
C62   C65   A    
C67   N10   A    
C8    C31   S    
C34   C52   A    
N1    Ni1   S    
C31   C32   A    
C2    C8    A    
C19   H5    S    
C70   H25   S    
C54   C55   A    
C24   C75   S    
C45   N8    A    
N11   N12   A    
N6    Ni4   S    
C64   N6    A    
C79   N12   A    
C16   H14   S    
C76   H37   S    
C49   C59   A    
C30   C36   A    
C17   C25   A    
C32   C33   A    
C19   C20   A    
N5    Ni1   S    
C1    N1    A    
C71   C72   A    
C4    N16   A    
C11   C13   A    
C57   C58   A    
C38   C39   A    
C46   H13   S    
C20   C26   A    
C13   H2    S    
C33   C35   A    
C9    C78   A    
C69   C70   A    
N7    Ni3   S    
C2    N13   A    
C65   H30   S    
C29   H7    S    
C10   C11   A    
N6    N16   A    
C15   C21   A    
C20   C21   A    
C8    C67   A    
N2    N4    A    
C64   C77   S    
C14   C15   A    
C62   C74   S    
C75   H36   S    
C63   H28   S    
C55   C60   A    
C56   H12   S    
N9    N15   A    
C77   O3    D    
C5    H42   S    
C3    H41   S    
