data_mof_unit_40104.cif
_audit_creation_date              2013-03-05T15:42:19-0500
_audit_creation_method            fapswitch 2.2
_symmetry_space_group_name_H-M    P1
_symmetry_Int_Tables_number       1
_space_group_crystal_system       triclinic
_cell_length_a                    7.851492
_cell_length_b                    8.536019
_cell_length_c                    19.119883
_cell_angle_alpha                 92.31352
_cell_angle_beta                  85.513204
_cell_angle_gamma                 93.13137
_cell_volume                      1274.75053827

loop_
_atom_site_label
_atom_site_type_symbol
_atom_site_description
_atom_site_fract_x
_atom_site_fract_y
_atom_site_fract_z
_atom_type_partial_charge
O1    O     O_R   0.389250 0.738570 0.504600 -0.598566
O2    O     O_R   0.610750 0.261430 0.495400 -0.599889
O3    O     O_R   0.678400 0.711620 0.492580 -0.569706
O4    O     O_R   0.321600 0.288380 0.507420 -0.572718
C1    C     C_R   0.543940 0.794160 0.502720 0.905383
C2    C     C_R   0.456032 0.205837 0.497510 0.901272
O5    O     O_R   0.355380 0.513500 0.607880 -0.569417
O6    O     O_R   0.644620 0.486500 0.392120 -0.571673
O7    O     O_R   0.644530 0.486550 0.595850 -0.605117
O8    O     O_R   0.355470 0.513450 0.404150 -0.599971
C3    C     C_R   0.500221 0.494694 0.634472 0.915520
C4    C     C_R   0.499647 0.503514 0.365547 0.913893
Zn1   Zn    Zn3+2 0.306930 0.517990 0.508030 1.172863
Zn2   Zn    Zn3+2 0.693070 0.482010 0.491970 1.170711
C5    C     C_R   0.352477 0.486517 0.756268 0.323848
C6    C     C_R   0.649151 0.545919 0.246645 0.341013
C7    C     C_R   0.361068 0.460873 0.827084 -0.259970
C8    C     C_R   0.645855 0.534366 0.174211 -0.265650
H1    H     H_    0.250462 0.481837 0.863245 0.171864
H2    H     H_    0.763882 0.557219 0.142046 0.171313
C9    C     C_R   0.511998 0.414585 0.852145 0.006994
C10   C     C_R   0.494372 0.489314 0.143201 0.001880
C11   C     C_R   0.656643 0.386351 0.806249 0.166574
C12   C     C_R   0.339376 0.467157 0.185220 0.172419
C13   C     C_R   0.649565 0.416457 0.735374 -0.102360
C14   C     C_R   0.344722 0.473568 0.258087 -0.154908
H3    H     H_    0.761755 0.398290 0.699998 0.235014
H4    H     H_    0.227647 0.451929 0.290628 0.246932
C15   C     C_R   0.499862 0.468183 0.709793 -0.180852
C16   C     C_R   0.498825 0.507639 0.289196 -0.174954
N1    N     N_R   0.617846 0.537177 0.956918 -0.155133
N2    N     N_R   0.411281 0.344519 0.037379 -0.165477
N3    N     N_R   0.610281 0.558074 0.026134 -0.160752
N4    N     N_R   0.417447 0.324467 0.968073 -0.157258
C17   C     C_R   0.504337 0.463971 0.067353 0.298194
C18   C     C_R   0.520942 0.420743 0.927125 0.288768
C19   C     C_2   0.555493 0.958090 0.516182 0.060801
C20   C     C_2   0.444134 0.041904 0.484558 0.046957
N5    N     N_2   0.950330 0.457950 0.481240 0.035040
N6    N     N_2   0.049670 0.542050 0.518760 0.032732
N7    N     N_R   0.194409 0.533664 0.733267 0.213196
O9    O     O_R   0.100705 0.433859 0.697694 -0.382282
O10   O     O_R   0.127444 0.660374 0.760574 -0.366465
N8    N     N_R   0.804905 0.600500 0.275784 0.207092
O11   O     O_R   0.863634 0.744088 0.266151 -0.340230
O12   O     O_R   0.904242 0.499945 0.298466 -0.382169
C21   C     C_3   0.818871 0.325989 0.831290 -0.446601
C22   C     C_3   0.856569 0.164243 0.798361 -0.658864
H5    H     H_    0.747666 0.079110 0.811340 0.263859
H6    H     H_    0.879449 0.169173 0.740444 0.299420
H7    H     H_    0.973081 0.122126 0.819410 0.253587
H8    H     H_    0.927544 0.410493 0.818112 0.262933
H9    H     H_    0.811141 0.315283 0.889072 0.211859
C23   C     C_3   0.166195 0.447912 0.155088 -0.416620
C24   C     C_3   0.088618 0.280829 0.162137 -0.708355
H10   H     H_    0.173689 0.195736 0.133748 0.266755
H11   H     H_    0.069184 0.250361 0.218213 0.298137
H12   H     H_    0.962569 0.271327 0.139268 0.243763
H13   H     H_    0.079280 0.531628 0.182955 0.258580
H14   H     H_    0.171646 0.480407 0.099407 0.212206
N9    N     N_R   0.634123 0.016621 0.578648 0.202812
O13   O     O_R   0.782146 0.969878 0.592260 -0.257040
O14   O     O_R   0.547044 0.097178 0.626977 -0.416292
N10   N     N_R   0.364453 0.982881 0.422480 0.204226
O15   O     O_R   0.211464 0.021539 0.411502 -0.232689
O16   O     O_R   0.452256 0.906440 0.372933 -0.384622
N11   N     N_R   0.010725 0.314286 0.458580 0.315489
O17   O     O_R   0.973183 0.193709 0.497348 -0.267409
O18   O     O_R   0.054071 0.290795 0.392167 -0.327698
N12   N     N_R   0.986177 0.682029 0.544943 0.313080
O19   O     O_R   0.029275 0.809190 0.511296 -0.260078
O20   O     O_R   0.935086 0.694081 0.611175 -0.295193

loop_
_geom_bond_atom_site_label_1
_geom_bond_atom_site_label_2
_geom_bond_distance
_ccdc_geom_bond_type
C19   N9    1.445921 S    
O7    Zn2   1.992133 S    
N1    N3    1.325354 A    
C5    C15   1.414516 A    
C21   H8    1.107075 S    
C1    C19   1.411829 S    
C14   H4    1.080475 S    
C13   H3    1.081986 S    
N7    O10   1.300947 A    
N7    O9    1.301046 A    
C6    N8    1.430508 S    
N1    C18   1.353016 A    
N4    C18   1.352071 A    
C21   C22   1.528257 S    
O6    C4    1.299751 A    
C21   H9    1.108880 S    
C4    C16   1.462183 S    
N10   O15   1.297752 A    
C24   H10   1.110322 S    
C22   H6    1.110008 S    
Zn2   N5    2.035006 S    
C9    C18   1.439517 S    
C23   H14   1.107954 S    
C11   C13   1.395345 A    
O5    C3    1.301750 A    
C10   C17   1.454221 S    
O7    C3    1.306703 A    
N2    N4    1.326701 A    
C3    C15   1.466554 S    
C19   C20   1.352003 D    
O3    Zn2   1.969120 S    
N6    N12   1.380067 S    
O1    C1    1.277950 A    
C5    C7    1.387668 A    
O8    C4    1.306951 A    
C6    C8    1.386607 A    
C22   H5    1.110980 S    
N3    C17   1.354177 A    
C12   C14   1.395909 A    
C14   C16   1.400895 A    
C20   N10   1.444803 S    
C23   H13   1.107203 S    
C24   H11   1.110426 S    
C9    C11   1.405270 A    
C13   C15   1.407054 A    
N9    O13   1.297702 A    
O2    Zn2   1.958991 S    
C10   C12   1.412913 A    
O1    Zn1   1.958991 S    
C6    C16   1.410975 A    
C12   C23   1.516012 S    
N11   O17   1.299976 A    
N2    C17   1.356062 A    
O3    C1    1.298745 A    
O5    Zn1   1.977887 S    
N12   O19   1.299520 A    
C11   C21   1.517938 S    
N8    O11   1.300771 A    
C5    N7    1.431740 S    
C8    H2    1.084346 S    
O4    C2    1.298306 A    
C24   H12   1.110541 S    
N5    N6    1.274020 D    
N9    O14   1.302063 A    
C23   C24   1.526774 S    
Zn1   N6    2.035006 S    
N12   O20   1.299850 A    
O6    Zn2   1.977889 S    
C7    H1    1.085010 S    
C2    C20   1.410514 S    
C8    C10   1.398567 A    
N5    N11   1.380190 S    
C22   H7    1.110535 S    
C7    C9    1.394725 A    
O2    C2    1.278035 A    
O4    Zn1   1.969120 S    
N8    O12   1.299713 A    
N11   O18   1.299129 A    
O8    Zn1   1.992136 S    
N10   O16   1.302120 A    
