data_mof_unit_65965.cif
_audit_creation_date              2012-12-10T19:23:45-0500
_audit_creation_method            fapswitch 2.2
_symmetry_space_group_name_H-M    P1
_symmetry_Int_Tables_number       1
_space_group_crystal_system       triclinic
_cell_length_a                    44.416859
_cell_length_b                    38.900707
_cell_length_c                    21.609555
_cell_angle_alpha                 89.999904
_cell_angle_beta                  60.815965
_cell_angle_gamma                 90.000087
_cell_volume                      32598.2471934

loop_
_atom_site_label
_atom_site_type_symbol
_atom_type_description
_atom_site_fract_x
_atom_site_fract_y
_atom_site_fract_z
_atom_type_partial_charge
C1    C     C_R   0.067097 0.499984 0.433828 0.906233
C2    C     C_R   0.932903 0.499983 0.566176 0.906264
C3    C     C_R   0.567097 0.999983 0.433823 0.906283
C4    C     C_R   0.432903 0.999984 0.566174 0.906246
C5    C     C_R   0.999960 0.499148 0.814215 -0.033821
C6    C     C_R   0.000040 0.499148 0.185785 -0.033793
C7    C     C_R   0.499960 0.999148 0.814215 -0.033800
C8    C     C_R   0.500041 0.999148 0.185784 -0.033789
C9    C     C_R   0.015949 0.472432 0.765429 0.070430
C10   C     C_R   0.984046 0.472434 0.234575 0.070426
C11   C     C_R   0.515950 0.972432 0.765431 0.070431
C12   C     C_R   0.484057 0.972428 0.234562 0.070434
C13   C     C_R   0.014969 0.473143 0.702477 -0.163842
C14   C     C_R   0.985026 0.473145 0.297528 -0.163848
C15   C     C_R   0.514970 0.973142 0.702478 -0.163809
C16   C     C_R   0.485038 0.973138 0.297514 -0.163884
C17   C     C_R   0.998124 0.500011 0.688662 -0.076685
C18   C     C_R   0.001875 0.500010 0.311339 -0.076672
C19   C     C_R   0.498125 0.000010 0.688662 -0.076669
C20   C     C_R   0.501877 0.000010 0.311336 -0.076691
C21   C     C_R   0.981506 0.526489 0.738628 0.033997
C22   C     C_R   0.018499 0.526485 0.261368 0.033975
C23   C     C_R   0.481505 0.026487 0.738629 0.033979
C24   C     C_R   0.518490 0.026492 0.261375 0.034004
C25   C     C_R   0.068454 0.446046 0.756573 -0.172849
C26   C     C_R   0.931536 0.446059 0.243439 -0.172813
C27   C     C_R   0.568450 0.946055 0.756613 -0.172783
C28   C     C_R   0.431562 0.946042 0.243372 -0.172819
C29   C     C_R   0.086315 0.419164 0.766955 0.454991
C30   C     C_R   0.913669 0.419180 0.233065 0.454981
C31   C     C_R   0.586309 0.919178 0.767022 0.454958
C32   C     C_R   0.413708 0.919161 0.232962 0.454965
C33   C     C_R   0.069071 0.388917 0.799629 -0.187125
C34   C     C_R   0.930907 0.388928 0.200397 -0.187137
C35   C     C_R   0.569066 0.888929 0.799689 -0.187005
C36   C     C_R   0.430955 0.888914 0.200297 -0.187010
C37   C     C_R   0.033916 0.385529 0.822518 -0.234657
C38   C     C_R   0.966062 0.385535 0.177507 -0.234648
C39   C     C_R   0.533915 0.885533 0.822541 -0.234630
C40   C     C_R   0.466106 0.885524 0.177446 -0.234631
C41   C     C_R   0.015153 0.412500 0.813805 -0.025277
C42   C     C_R   0.984830 0.412502 0.186212 -0.025272
C43   C     C_R   0.515155 0.912498 0.813800 -0.025288
C44   C     C_R   0.484863 0.912493 0.186188 -0.025285
C45   C     C_R   0.999073 0.500030 0.621238 0.882403
C46   C     C_R   0.000927 0.500030 0.378763 0.882479
C47   C     C_R   0.499073 0.000030 0.621237 0.882497
C48   C     C_R   0.500927 0.000030 0.378762 0.882413
C49   C     C_R   0.033029 0.443173 0.779669 -0.058351
C50   C     C_R   0.966960 0.443178 0.220341 -0.058348
C51   C     C_R   0.533029 0.943174 0.779677 -0.058379
C52   C     C_R   0.466983 0.943167 0.220311 -0.058386
C53   C     C_R   0.376508 0.489373 0.072663 -0.169456
C54   C     C_R   0.623494 0.489489 0.927425 -0.169239
C55   C     C_R   0.876506 0.989432 0.072621 -0.169487
C56   C     C_R   0.123492 0.989417 0.927374 -0.169513
C57   C     C_R   0.340718 0.491539 0.108139 -0.105915
C58   C     C_R   0.659285 0.491653 0.891940 -0.105995
C59   C     C_R   0.840715 0.991600 0.108100 -0.105931
C60   C     C_R   0.159283 0.991582 0.891895 -0.105940
C61   C     C_R   0.323370 0.507036 0.175146 0.142512
C62   C     C_R   0.676636 0.507030 0.824813 0.142582
C63   C     C_R   0.823367 0.007038 0.175166 0.142549
C64   C     C_R   0.176632 0.007029 0.824839 0.142541
C65   C     C_R   0.342047 0.519383 0.207301 -0.140793
C66   C     C_R   0.657963 0.519258 0.792557 -0.140752
C67   C     C_R   0.842043 0.019323 0.207372 -0.140868
C68   C     C_R   0.157957 0.019327 0.792640 -0.140872
C69   C     C_R   0.377778 0.516571 0.172486 -0.147995
C70   C     C_R   0.622232 0.516452 0.827391 -0.148259
C71   C     C_R   0.877773 0.016512 0.172548 -0.147958
C72   C     C_R   0.122227 0.016518 0.827462 -0.147946
C73   C     C_R   0.395174 0.501755 0.104826 -0.019526
C74   C     C_R   0.604830 0.501756 0.895165 -0.019575
C75   C     C_R   0.895172 0.001755 0.104832 -0.019509
C76   C     C_R   0.104828 0.001751 0.895169 -0.019502
C77   C     C_R   0.268471 0.493778 0.281415 -0.182333
C78   C     C_R   0.731535 0.493627 0.718670 -0.182396
C79   C     C_R   0.768466 0.993712 0.281371 -0.182359
C80   C     C_R   0.231532 0.993712 0.718624 -0.182366
C81   C     C_R   0.232782 0.491865 0.318307 -0.160055
C82   C     C_R   0.767224 0.491715 0.681792 -0.160023
C83   C     C_R   0.732778 0.991801 0.318255 -0.160048
C84   C     C_R   0.267221 0.991800 0.681738 -0.160054
C85   C     C_R   0.213731 0.503921 0.287137 0.078371
C86   C     C_R   0.786274 0.503913 0.712852 0.078226
C87   C     C_R   0.713728 0.003929 0.287139 0.078343
C88   C     C_R   0.286271 0.003916 0.712863 0.078308
C89   C     C_R   0.955733 0.615749 0.713035 -0.211974
C90   C     C_R   0.044288 0.615735 0.286971 -0.211994
C91   C     C_R   0.455722 0.115741 0.713026 -0.211990
C92   C     C_R   0.544249 0.115757 0.286975 -0.211967
C93   C     C_R   0.230323 0.518835 0.219704 -0.175893
C94   C     C_R   0.769683 0.518966 0.780152 -0.175855
C95   C     C_R   0.730320 0.018914 0.219773 -0.175926
C96   C     C_R   0.269679 0.018888 0.780241 -0.175883
C97   C     C_R   0.266275 0.522110 0.182670 -0.037684
C98   C     C_R   0.733730 0.522240 0.817161 -0.037761
C99   C     C_R   0.766274 0.022188 0.182751 -0.037702
C100  C     C_R   0.233727 0.022162 0.817264 -0.037706
C101  C     C_R   0.285565 0.508464 0.213497 0.011861
C102  C     C_R   0.714441 0.508453 0.786456 0.011840
C103  C     C_R   0.785562 0.008468 0.213518 0.011857
C104  C     C_R   0.214438 0.008456 0.786487 0.011862
C105  C     C_R   0.158659 0.483139 0.298390 -0.104295
C106  C     C_R   0.841342 0.483166 0.701654 -0.104181
C107  C     C_R   0.658658 0.983188 0.298325 -0.104219
C108  C     C_R   0.341342 0.983146 0.701627 -0.104256
C109  C     C_R   0.122834 0.481831 0.335114 -0.214696
C110  C     C_R   0.877167 0.481858 0.664932 -0.214713
C111  C     C_R   0.622833 0.981875 0.335048 -0.214686
C112  C     C_R   0.377167 0.981838 0.664902 -0.214716
C113  C     C_R   0.104474 0.500039 0.398660 -0.092211
C114  C     C_R   0.895526 0.500038 0.601347 -0.092135
C115  C     C_R   0.604473 0.000039 0.398653 -0.092099
C116  C     C_R   0.395526 0.000038 0.601344 -0.092186
C117  C     C_R   0.122102 0.518703 0.426936 0.405103
C118  C     C_R   0.877898 0.518672 0.573033 0.405052
C119  C     C_R   0.622100 0.018661 0.426985 0.405057
C120  C     C_R   0.377897 0.018694 0.573059 0.405091
C121  C     C_R   0.157983 0.519302 0.390675 -0.152670
C122  C     C_R   0.842017 0.519269 0.609291 -0.152684
C123  C     C_R   0.657980 0.019263 0.390725 -0.152743
C124  C     C_R   0.342016 0.019292 0.609320 -0.152679
C125  C     C_R   0.176233 0.501939 0.326084 0.051525
C126  C     C_R   0.823770 0.501936 0.673917 0.051376
C127  C     C_R   0.676230 0.001947 0.326078 0.051459
C128  C     C_R   0.323768 0.001937 0.673921 0.051464
C129  C     C_R   1.000000 0.432712 0.000001 0.861560
C130  C     C_R   0.500000 0.932713 0.000000 0.861617
C131  C     C_R   0.974216 0.588744 0.721297 -0.120602
C132  C     C_R   0.025798 0.588736 0.278714 -0.120577
C133  C     C_R   0.474210 0.088739 0.721286 -0.120583
C134  C     C_R   0.525772 0.088749 0.278703 -0.120608
C135  C     C_R   0.000017 0.499438 0.879967 0.877068
C136  C     C_R   0.999983 0.499438 0.120033 0.877091
C137  C     C_R   0.500017 0.999439 0.879967 0.877086
C138  C     C_R   0.499983 0.999439 0.120032 0.877087
C139  C     C_R   1.000000 0.567226 1.000000 0.849718
C140  C     C_R   0.500000 0.067225 0.000000 0.849708
C141  C     C_R   0.500000 0.432664 0.000000 0.847016
C142  C     C_R   0.000000 0.932664 1.000000 0.846969
C143  C     C_R   0.432736 0.500044 0.067271 0.914648
C144  C     C_R   0.567265 0.500046 0.932727 0.914705
C145  C     C_R   0.932736 0.000043 0.067273 0.914880
C146  C     C_R   0.067264 0.000042 0.932728 0.914879
C147  C     C_R   0.500000 0.567034 1.000000 0.989806
C148  C     C_R   1.000000 0.067034 0.000000 0.990171
C149  C     C_R   0.526573 0.622811 0.004640 -0.069827
C150  C     C_R   0.473428 0.622812 0.995359 -0.069824
C151  C     C_R   0.026634 0.122811 0.004410 -0.069899
C152  C     C_R   0.973365 0.122811 0.995591 -0.069900
C153  C     C_R   0.525711 0.658684 0.005981 -0.092227
C154  C     C_R   0.474290 0.658684 0.994020 -0.092235
C155  C     C_R   0.025776 0.158685 0.005742 -0.092187
C156  C     C_R   0.974223 0.158685 0.994262 -0.092186
C157  C     C_R   0.500001 0.676425 0.000000 0.144278
C158  C     C_R   0.999999 0.176425 0.000003 0.144308
C159  C     C_R   0.500000 0.604596 0.999999 -0.204312
C160  C     C_R   1.000000 0.104596 0.000000 -0.204238
C161  C     C_R   0.525745 0.732040 0.941763 0.375947
C162  C     C_R   0.474257 0.732040 0.058238 0.375949
C163  C     C_R   0.025644 0.232041 0.941613 0.375985
C164  C     C_R   0.974355 0.232040 0.058396 0.375983
C165  C     C_R   0.962213 0.554819 0.728103 0.071277
C166  C     C_R   0.037799 0.554810 0.271888 0.071258
C167  C     C_R   0.462208 0.054814 0.728106 0.071272
C168  C     C_R   0.537778 0.054826 0.271905 0.071292
C169  C     C_R   0.025554 0.267805 0.942023 -0.210613
C170  C     C_R   0.974445 0.267804 0.057989 -0.210603
C171  C     C_R   0.525652 0.767804 0.942171 -0.210619
C172  C     C_R   0.474349 0.767803 0.057831 -0.210627
C173  C     C_R   1.000000 0.285778 0.000007 -0.028412
C174  C     C_R   0.500001 0.785779 0.000001 -0.028295
C175  C     C_R   0.500001 0.713978 0.000001 -0.112029
C176  C     C_R   0.999999 0.213978 0.000004 -0.112103
C177  C     C_R   0.030526 0.341402 0.981742 -0.150016
C178  C     C_R   0.969473 0.341402 0.018272 -0.150029
C179  C     C_R   0.530510 0.841407 0.981885 -0.150036
C180  C     C_R   0.469490 0.841407 0.018117 -0.150011
C181  C     C_R   0.030515 0.377120 0.981916 -0.159243
C182  C     C_R   0.969484 0.377119 0.018095 -0.159194
C183  C     C_R   0.530500 0.877124 0.982048 -0.159360
C184  C     C_R   0.469500 0.877123 0.017953 -0.159322
C185  C     C_R   1.000000 0.395184 0.000004 -0.060648
C186  C     C_R   0.500000 0.895187 0.000000 -0.060749
C187  C     C_R   1.000000 0.323390 0.000008 0.133621
C188  C     C_R   0.500000 0.823393 0.000001 0.133488
C189  C     C_R   0.499765 0.377057 0.944056 -0.183190
C190  C     C_R   0.500235 0.377058 0.055945 -0.183178
C191  C     C_R   0.999864 0.877057 0.943954 -0.183185
C192  C     C_R   0.000135 0.877057 0.056045 -0.183188
C193  C     C_R   0.499774 0.341363 0.944070 -0.169132
C194  C     C_R   0.500226 0.341363 0.055931 -0.169134
C195  C     C_R   0.999875 0.841363 0.943966 -0.169138
C196  C     C_R   0.000125 0.841362 0.056031 -0.169137
C197  C     C_R   0.500000 0.323361 0.000001 0.111696
C198  C     C_R   1.000000 0.823361 0.999998 0.111683
C199  C     C_R   0.931301 0.548257 0.727287 -0.196956
C200  C     C_R   0.068716 0.548240 0.272678 -0.197019
C201  C     C_R   0.431292 0.048247 0.727306 -0.196992
C202  C     C_R   0.568687 0.048269 0.272737 -0.196911
C203  C     C_R   0.500000 0.395128 0.000000 -0.034638
C204  C     C_R   1.000000 0.895127 1.000000 -0.034632
C205  C     C_R   0.477827 0.267784 0.061894 -0.173656
C206  C     C_R   0.522174 0.267784 0.938108 -0.173658
C207  C     C_R   0.977743 0.767784 0.061824 -0.173657
C208  C     C_R   0.022256 0.767784 0.938171 -0.173657
C209  C     C_R   0.977728 0.732091 0.061810 -0.173417
C210  C     C_R   0.022271 0.732092 0.938183 -0.173420
C211  C     C_R   0.477812 0.232091 0.061881 -0.173421
C212  C     C_R   0.522189 0.232091 0.938121 -0.173420
C213  C     C_R   1.000000 0.714090 0.999997 0.101207
C214  C     C_R   0.500000 0.214089 0.000001 0.101227
C215  C     C_R   0.500000 0.285788 0.000001 0.101068
C216  C     C_R   1.000000 0.785788 0.999998 0.101054
C217  C     C_R   0.031290 0.658518 0.969549 -0.167994
C218  C     C_R   0.968709 0.658518 0.030446 -0.167998
C219  C     C_R   0.531292 0.158518 0.969336 -0.168002
C220  C     C_R   0.468708 0.158518 0.030666 -0.168000
C221  C     C_R   0.031303 0.622825 0.969555 -0.179298
C222  C     C_R   0.968696 0.622824 0.030442 -0.179292
C223  C     C_R   0.531305 0.122825 0.969342 -0.179291
C224  C     C_R   0.468695 0.122825 0.030658 -0.179293
C225  C     C_R   1.000000 0.604757 0.999999 -0.042151
C226  C     C_R   0.500000 0.104757 0.000000 -0.042174
C227  C     C_R   1.000000 0.676518 0.999997 0.107959
C228  C     C_R   0.500000 0.176518 0.000001 0.107952
C229  C     C_R   0.912612 0.575463 0.719958 0.459127
C230  C     C_R   0.087412 0.575440 0.279999 0.459130
C231  C     C_R   0.412599 0.075449 0.719982 0.459134
C232  C     C_R   0.587369 0.075478 0.280077 0.459120
C233  C     C_R   0.924952 0.609141 0.712473 -0.145057
C234  C     C_R   0.075074 0.609120 0.287506 -0.145013
C235  C     C_R   0.424938 0.109128 0.712481 -0.145026
C236  C     C_R   0.575026 0.109154 0.287555 -0.145085
C237  C     C_R   0.982737 0.525713 0.801366 -0.223099
C238  C     C_R   0.017268 0.525710 0.198631 -0.223078
C239  C     C_R   0.482736 0.025713 0.801365 -0.223091
C240  C     C_R   0.517259 0.025717 0.198638 -0.223118
H1    H     H_    0.910593 0.630223 0.706731 0.174382
H2    H     H_    0.089440 0.630198 0.293243 0.174381
H3    H     H_    0.410575 0.130207 0.706742 0.174378
H4    H     H_    0.589380 0.130238 0.293306 0.174374
H5    H     H_    0.082858 0.367960 0.807608 0.178847
H6    H     H_    0.917116 0.367974 0.192425 0.178848
H7    H     H_    0.582850 0.867977 0.807690 0.178867
H8    H     H_    0.417175 0.867959 0.192295 0.178865
H9    H     H_    0.021363 0.361702 0.847868 0.214168
H10   H     H_    0.978609 0.361705 0.152162 0.214163
H11   H     H_    0.521363 0.861705 0.847887 0.214190
H12   H     H_    0.478662 0.861698 0.152100 0.214191
H13   H     H_    0.389554 0.477629 0.020629 0.152100
H14   H     H_    0.610446 0.477838 0.979549 0.152194
H15   H     H_    0.889552 0.977734 0.020543 0.152164
H16   H     H_    0.110445 0.977711 0.979445 0.152158
H17   H     H_    0.326521 0.481127 0.083477 0.130543
H18   H     H_    0.673479 0.481334 0.916688 0.130544
H19   H     H_    0.826519 0.981236 0.083395 0.130554
H20   H     H_    0.173479 0.981209 0.916594 0.130559
H21   H     H_    0.328931 0.531199 0.259265 0.146594
H22   H     H_    0.671084 0.530979 0.740499 0.146581
H23   H     H_    0.828924 0.031092 0.259382 0.146589
H24   H     H_    0.171076 0.031104 0.740637 0.146590
H25   H     H_    0.391830 0.526497 0.197868 0.163241
H26   H     H_    0.608185 0.526287 0.801923 0.163265
H27   H     H_    0.891823 0.026391 0.197973 0.163273
H28   H     H_    0.108177 0.026406 0.802044 0.163273
H29   H     H_    0.282886 0.483132 0.305415 0.149954
H30   H     H_    0.717120 0.482873 0.694766 0.149952
H31   H     H_    0.782879 0.983010 0.305327 0.149950
H32   H     H_    0.217118 0.983020 0.694662 0.149951
H33   H     H_    0.220003 0.480382 0.370624 0.153810
H34   H     H_    0.780006 0.480125 0.629575 0.153848
H35   H     H_    0.719996 0.980263 0.370522 0.153811
H36   H     H_    0.280002 0.980273 0.629462 0.153820
H37   H     H_    0.214944 0.528986 0.197405 0.209518
H38   H     H_    0.785064 0.529221 0.802355 0.209660
H39   H     H_    0.714941 0.029118 0.197521 0.209540
H40   H     H_    0.285058 0.029082 0.802501 0.209578
H41   H     H_    0.965157 0.641846 0.707540 0.164338
H42   H     H_    0.034866 0.641833 0.292482 0.164336
H43   H     H_    0.465145 0.141838 0.707519 0.164328
H44   H     H_    0.534823 0.141853 0.292463 0.164330
H45   H     H_    0.172697 0.469557 0.248529 0.153233
H46   H     H_    0.827303 0.469609 0.751544 0.153253
H47   H     H_    0.672697 0.969642 0.248420 0.153233
H48   H     H_    0.327304 0.969571 0.751496 0.153243
H49   H     H_    0.109386 0.467461 0.313054 0.159328
H50   H     H_    0.890617 0.467512 0.687021 0.159279
H51   H     H_    0.609384 0.967539 0.312945 0.159253
H52   H     H_    0.390616 0.967476 0.686969 0.159313
H53   H     H_    0.171667 0.533740 0.412126 0.173488
H54   H     H_    0.828331 0.533681 0.587809 0.173544
H55   H     H_    0.671664 0.033667 0.412222 0.173504
H56   H     H_    0.328331 0.033722 0.587861 0.173508
H57   H     H_    0.545643 0.673104 0.009774 0.190798
H58   H     H_    0.454358 0.673105 0.990226 0.190796
H59   H     H_    0.045757 0.173107 0.009350 0.190806
H60   H     H_    0.954242 0.173107 0.990655 0.190804
H61   H     H_    0.045119 0.281607 0.896630 0.180230
H62   H     H_    0.954880 0.281606 0.103383 0.180229
H63   H     H_    0.545295 0.781604 0.896886 0.180204
H64   H     H_    0.454707 0.781603 0.103116 0.180202
H65   H     H_    0.054243 0.327822 0.968144 0.157918
H66   H     H_    0.945756 0.327821 0.031872 0.157920
H67   H     H_    0.554213 0.827830 0.968412 0.157967
H68   H     H_    0.445788 0.827829 0.031590 0.157958
H69   H     H_    0.997916 0.594208 0.722185 0.154465
H70   H     H_    0.002093 0.594205 0.277847 0.154469
H71   H     H_    0.497913 0.094206 0.722160 0.154459
H72   H     H_    0.502075 0.094209 0.277803 0.154453
H73   H     H_    0.054325 0.390557 0.968095 0.181488
H74   H     H_    0.945674 0.390556 0.031915 0.181492
H75   H     H_    0.554297 0.890562 0.968340 0.181531
H76   H     H_    0.445704 0.890561 0.031660 0.181525
H77   H     H_    0.499490 0.390446 0.900392 0.161615
H78   H     H_    0.500509 0.390446 0.099608 0.161616
H79   H     H_    0.999670 0.890446 0.900208 0.161625
H80   H     H_    0.000330 0.890445 0.099791 0.161625
H81   H     H_    0.499211 0.327807 0.900859 0.137640
H82   H     H_    0.500788 0.327807 0.099143 0.137639
H83   H     H_    0.999393 0.827806 0.900671 0.137653
H84   H     H_    0.000607 0.827805 0.099326 0.137654
H85   H     H_    0.460333 0.281333 0.109960 0.139147
H86   H     H_    0.539667 0.281333 0.890042 0.139144
H87   H     H_    0.960186 0.781334 0.109835 0.139157
H88   H     H_    0.039813 0.781334 0.890160 0.139157
H89   H     H_    0.960582 0.718540 0.110154 0.139835
H90   H     H_    0.039417 0.718541 0.889839 0.139833
H91   H     H_    0.460732 0.218540 0.110276 0.139816
H92   H     H_    0.539269 0.218540 0.889726 0.139816
H93   H     H_    0.055678 0.672076 0.946511 0.140473
H94   H     H_    0.944322 0.672076 0.053483 0.140475
H95   H     H_    0.555683 0.172076 0.946125 0.140480
H96   H     H_    0.444318 0.172076 0.053877 0.140481
H97   H     H_    0.055785 0.609436 0.945920 0.166457
H98   H     H_    0.944215 0.609435 0.054077 0.166458
H99   H     H_    0.555788 0.109435 0.945532 0.166477
H100  H     H_    0.444212 0.109435 0.054468 0.166476
H101  H     H_    0.921601 0.522221 0.733276 0.144629
H102  H     H_    0.078414 0.522202 0.266673 0.144686
H103  H     H_    0.421593 0.022210 0.733306 0.144665
H104  H     H_    0.578389 0.022233 0.266754 0.144595
H105  H     H_    0.970173 0.545824 0.840515 0.147414
H106  H     H_    0.029835 0.545819 0.159478 0.147422
H107  H     H_    0.470171 0.045823 0.840515 0.147430
H108  H     H_    0.529819 0.045829 0.159492 0.147417
H109  H     H_    0.027668 0.452838 0.663959 0.164931
H110  H     H_    0.972323 0.452842 0.336050 0.164937
H111  H     H_    0.527670 0.952837 0.663959 0.164935
H112  H     H_    0.472343 0.952830 0.336027 0.164934
H113  H     H_    0.082172 0.469339 0.730532 0.181098
H114  H     H_    0.917822 0.469354 0.269475 0.181119
H115  H     H_    0.582167 0.969350 0.730583 0.181121
H116  H     H_    0.417841 0.969335 0.269402 0.181099
O1    O     O_R   0.050910 0.528730 0.449120 -0.569598
O2    O     O_R   0.949090 0.528730 0.550880 -0.569617
O3    O     O_R   0.550910 0.028730 0.449120 -0.569623
O4    O     O_R   0.449090 0.028730 0.550880 -0.569602
O5    O     O_R   0.449080 0.499920 0.102620 -0.631848
O6    O     O_R   0.550920 0.499920 0.897380 -0.631849
O7    O     O_R   0.949080 0.999920 0.102620 -0.631840
O8    O     O_R   0.050920 0.999920 0.897380 -0.631839
O9    O     O_R   0.449080 0.499990 0.999170 -0.600922
O10   O     O_R   0.550920 0.499990 0.000830 -0.601027
O11   O     O_R   0.949080 0.999990 0.999170 -0.601027
O12   O     O_R   0.050920 0.999990 0.000830 -0.601017
O13   O     O_R   0.500000 0.550830 0.051830 -0.598502
O14   O     O_R   0.500000 0.550830 0.948170 -0.598452
O15   O     O_R   1.000000 0.050830 0.051830 -0.598435
O16   O     O_R   0.000000 0.050830 0.948170 -0.598438
O17   O     O_R   0.050890 0.471250 0.449130 -0.628210
O18   O     O_R   0.949110 0.471250 0.550870 -0.628194
O19   O     O_R   0.550890 0.971250 0.449130 -0.628190
O20   O     O_R   0.449110 0.971250 0.550870 -0.628209
O21   O     O_R   1.000000 0.528730 0.591620 -0.596215
O22   O     O_R   0.000000 0.528730 0.408380 -0.596215
O23   O     O_R   0.500000 0.028730 0.591620 -0.596218
O24   O     O_R   0.500000 0.028730 0.408380 -0.596219
O25   O     O_R   0.999980 0.471250 0.591630 -0.627106
O26   O     O_R   0.000020 0.471250 0.408370 -0.627107
O27   O     O_R   0.499980 0.971250 0.591630 -0.627111
O28   O     O_R   0.500020 0.971250 0.408370 -0.627113
O29   O     O_R   0.971250 0.449060 0.028730 -0.614453
O30   O     O_R   0.028750 0.449060 0.971270 -0.614436
O31   O     O_R   0.471250 0.949060 0.028730 -0.614426
O32   O     O_R   0.528750 0.949060 0.971270 -0.614431
O33   O     O_R   0.971250 0.499970 0.937120 -0.601833
O34   O     O_R   0.028750 0.499970 0.062880 -0.601814
O35   O     O_R   0.471250 0.999970 0.937120 -0.601806
O36   O     O_R   0.528750 0.999970 0.062880 -0.601801
O37   O     O_R   0.028730 0.499980 0.879660 -0.620188
O38   O     O_R   0.971270 0.499980 0.120340 -0.620195
O39   O     O_R   0.528730 0.999980 0.879660 -0.620211
O40   O     O_R   0.471270 0.999980 0.120340 -0.620217
O41   O     O_R   0.971250 0.550880 0.028740 -0.624313
O42   O     O_R   0.028750 0.550880 0.971260 -0.624316
O43   O     O_R   0.471250 0.050880 0.028740 -0.624321
O44   O     O_R   0.528750 0.050880 0.971260 -0.624319
O45   O     O_R   0.499970 0.449010 0.051630 -0.631522
O46   O     O_R   0.500030 0.449010 0.948370 -0.631537
O47   O     O_R   0.999970 0.949010 0.051630 -0.631547
O48   O     O_R   0.000030 0.949010 0.948370 -0.631547
Zn1   Zn    Zn3+2 0.000000 0.538370 0.500000 1.068474
Zn2   Zn    Zn3+2 0.500000 0.038370 0.500000 1.068458
Zn3   Zn    Zn3+2 0.000000 0.461610 0.500000 0.997267
Zn4   Zn    Zn3+2 0.500000 0.961610 0.500000 0.997259
Zn5   Zn    Zn3+2 0.961610 0.499970 0.038370 1.019302
Zn6   Zn    Zn3+2 0.038390 0.499970 0.961630 1.019319
Zn7   Zn    Zn3+2 0.461610 0.999970 0.038370 1.019338
Zn8   Zn    Zn3+2 0.538390 0.999970 0.961630 1.019342
Zn9   Zn    Zn3+2 0.499990 0.499910 0.069080 1.005836
Zn10  Zn    Zn3+2 0.500010 0.499910 0.930920 1.005906
Zn11  Zn    Zn3+2 0.999990 0.999910 0.069080 1.005882
Zn12  Zn    Zn3+2 0.000010 0.999910 0.930920 1.005876
C241  C     C_2   0.977429 0.407484 0.841042 0.908769
O49   O     O_2   0.959560 0.430560 0.837855 -0.618632
O50   O     O_R   0.962097 0.375970 0.871172 -0.807801
H117  H     H_    0.936395 0.375661 0.888338 0.355009
C242  C     C_2   0.022554 0.407480 0.158973 0.908752
O51   O     O_2   0.040432 0.430560 0.162108 -0.618633
O52   O     O_R   0.037874 0.375953 0.128900 -0.807768
H118  H     H_    0.063576 0.375642 0.111724 0.355014
C243  C     C_2   0.477435 0.907474 0.840998 0.908721
O53   O     O_2   0.459558 0.930561 0.837878 -0.618635
O54   O     O_R   0.462115 0.875940 0.871017 -0.807813
H119  H     H_    0.436416 0.875628 0.888169 0.355004
C244  C     C_2   0.522583 0.907476 0.158989 0.908729
O55   O     O_2   0.540456 0.930567 0.162107 -0.618629
O56   O     O_R   0.537908 0.875943 0.128972 -0.807816
H120  H     H_    0.563608 0.875636 0.111820 0.355004
C245  C     C_2   0.282311 0.541047 0.114173 0.902435
O57   O     O_2   0.309689 0.556175 0.093624 -0.593159
O58   O     O_R   0.265396 0.542517 0.074017 -0.792142
H121  H     H_    0.278606 0.556388 0.028902 0.359657
C246  C     C_2   0.717691 0.541324 0.885488 0.902465
O59   O     O_2   0.690301 0.556411 0.905923 -0.593146
O60   O     O_R   0.734617 0.542977 0.925606 -0.792074
H122  H     H_    0.721405 0.556937 0.970594 0.359665
C247  C     C_2   0.782315 0.041200 0.114339 0.902445
O61   O     O_2   0.809704 0.056299 0.093844 -0.593283
O62   O     O_R   0.765394 0.042772 0.074205 -0.792112
H123  H     H_    0.778608 0.056688 0.029155 0.359660
C248  C     C_2   0.217689 0.041160 0.885690 0.902444
O63   O     O_2   0.190305 0.056270 0.906191 -0.593278
O64   O     O_R   0.234607 0.042706 0.925832 -0.792104
H124  H     H_    0.221395 0.056614 0.970894 0.359660
Cl1   Cl    Cl    0.100159 0.540764 0.508293 -0.596782
Cl2   Cl    Cl    0.899842 0.540698 0.491633 -0.596817
Cl3   Cl    Cl    0.600154 0.040666 0.508409 -0.596861
Cl4   Cl    Cl    0.399840 0.040745 0.491690 -0.596796
C249  C     C_2   0.556320 0.605667 0.005529 0.943270
O65   O     O_2   0.567559 0.578424 0.974596 -0.629720
O66   O     O_R   0.572402 0.621520 0.039835 -0.780964
H125  H     H_    0.592565 0.607690 0.036145 0.366254
C250  C     C_2   0.443681 0.605669 0.994469 0.943223
O67   O     O_2   0.432442 0.578425 0.025400 -0.629797
O68   O     O_R   0.427599 0.621522 0.960163 -0.780946
H126  H     H_    0.407437 0.607692 0.963852 0.366276
C251  C     C_2   0.056437 0.105667 0.005072 0.943041
O69   O     O_2   0.067598 0.078389 0.974233 -0.630037
O70   O     O_R   0.072660 0.121558 0.039053 -0.780909
H127  H     H_    0.092848 0.107724 0.035225 0.366391
C252  C     C_2   0.943563 0.105668 0.994928 0.943044
O71   O     O_2   0.932402 0.078389 0.025767 -0.630032
O72   O     O_R   0.927340 0.121558 0.960946 -0.780911
H128  H     H_    0.907152 0.107724 0.964774 0.366391
Cl5   Cl    Cl    0.557915 0.710687 0.866622 -0.571552
Cl6   Cl    Cl    0.442087 0.710686 0.133379 -0.571612
Cl7   Cl    Cl    0.057682 0.210685 0.866289 -0.571557
Cl8   Cl    Cl    0.942317 0.210683 0.133718 -0.571556
Cl9   Cl    Cl    0.873274 0.567647 0.721950 -0.620012
Cl10  Cl    Cl    0.126758 0.567615 0.277968 -0.620000
Cl11  Cl    Cl    0.373256 0.067627 0.722000 -0.620005
Cl12  Cl    Cl    0.626701 0.067668 0.278114 -0.619975
Cl13  Cl    Cl    0.130465 0.423355 0.738606 -0.585691
Cl14  Cl    Cl    0.869519 0.423379 0.261415 -0.585694
Cl15  Cl    Cl    0.630454 0.923379 0.738718 -0.585665
Cl16  Cl    Cl    0.369563 0.923355 0.261263 -0.585684

loop_
_geom_bond_atom_site_label_1
_geom_bond_atom_site_label_2
_ccdc_geom_bond_type
C130  O32   A    
O68   H126  S    
O12   Zn11  S    
C55   C59   A    
C90   H42   S    
C250  O67   D    
C77   C101  A    
O54   H119  S    
C198  C216  S    
C180  H68   S    
C223  C226  A    
C190  H78   S    
C246  O59   D    
C151  C251  S    
C6    C238  A    
C141  O46   A    
C82   H34   S    
C222  H98   S    
C129  C185  S    
C26   C50   A    
C69   H25   S    
O36   Zn8   S    
C95   C99   A    
C194  C197  A    
C205  C211  A    
C29   C33   A    
C100  C104  A    
O35   Zn7   S    
C8    C138  S    
C129  O30   A    
C162  Cl6   S    
C9    C13   A    
C54   C74   A    
C11   C15   A    
C142  O47   A    
C217  H93   S    
C152  C156  A    
C27   C51   A    
C209  C213  A    
C34   H6    S    
C47   O27   A    
C151  C155  A    
C143  O9    A    
C40   C44   A    
C93   H37   S    
C24   C240  A    
C195  C198  A    
C223  H99   S    
C251  O70   S    
C76   C146  S    
C155  C158  A    
C1    C113  S    
C195  H83   S    
C41   C49   A    
C57   H17   S    
C145  O7    A    
C217  C221  A    
C118  Cl2   S    
C150  C159  A    
C27   C31   A    
O70   H127  S    
C96   H40   S    
C28   C32   A    
C45   O25   A    
C7    C137  S    
C62   C66   A    
C179  C188  A    
C98   C102  A    
C92   C236  A    
C79   H31   S    
C80   H32   S    
C182  C185  A    
C19   C23   A    
C220  H96   S    
C41   C241  S    
C78   C82   A    
O7    Zn11  S    
C100  C248  S    
C68   C72   A    
C192  C204  A    
C29   Cl13  S    
C137  O39   A    
C235  H3    S    
C178  C182  A    
C5    C237  A    
C23   C167  S    
O38   Zn5   S    
C84   H36   S    
C15   H111  S    
C153  H57   S    
C85   C125  S    
C140  C226  S    
C107  H47   S    
C84   C88   A    
C231  Cl11  S    
C67   H23   S    
C57   C61   A    
O8    Zn12  S    
C119  C123  A    
C59   C63   A    
C89   C131  A    
C105  C125  A    
C60   C64   A    
C28   H116  S    
O31   Zn7   S    
C199  C229  A    
C107  C127  A    
C2    C114  S    
C60   H20   S    
C66   C70   A    
C140  O44   A    
C156  C158  A    
C207  C216  A    
C242  O52   S    
C138  O36   A    
C230  C234  A    
C248  O63   D    
C238  H106  S    
O40   Zn7   S    
C22   C166  S    
C61   C65   A    
C44   C244  S    
C180  C184  A    
C13   H109  S    
C129  O29   A    
C148  O15   A    
C21   C237  A    
C242  O51   D    
C221  C225  A    
C86   C126  S    
C121  H53   S    
C164  C170  A    
O50   H117  S    
C123  H55   S    
C111  H51   S    
C251  O69   D    
C5    C9    A    
C131  H69   S    
C26   H114  S    
O33   Zn5   S    
C64   C68   A    
C178  H66   S    
C17   C45   S    
C136  O38   A    
C148  C160  S    
C19   C47   S    
C91   C235  A    
C232  C236  A    
C118  C122  A    
C89   C233  A    
C169  H61   S    
C149  C153  A    
C171  H63   S    
C55   H15   S    
C87   C95   A    
C219  H95   S    
C135  O33   A    
C219  C228  A    
C110  C114  A    
C67   C71   A    
C55   C75   A    
C212  H92   S    
C82   C86   A    
C167  C201  A    
C192  H80   S    
C54   H14   S    
C79   C103  A    
C83   H35   S    
O9    Zn10  S    
C241  O50   S    
C172  C174  A    
C70   H26   S    
C25   C49   A    
C8    C240  A    
C2    O18   A    
O20   Zn4   S    
C30   C34   A    
O22   Zn1   S    
C172  H64   S    
C9    C49   S    
O30   Zn6   S    
C99   C103  A    
C10   C14   A    
C183  C186  A    
C162  C175  A    
C222  C225  A    
C205  H85   S    
C14   H110  S    
C105  H45   S    
C116  C120  A    
C149  C249  S    
C142  C204  S    
C61   C101  S    
C121  C125  A    
C108  H48   S    
C206  C212  A    
O27   Zn4   S    
C94   H38   S    
O45   Zn9   S    
O26   Zn3   S    
C123  C127  A    
O56   H120  S    
C196  H84   S    
C8    C12   A    
C240  H108  S    
C108  C128  A    
C69   C73   A    
C27   H115  S    
C120  Cl4   S    
C234  H2    S    
C113  C117  A    
C145  O11   A    
O29   Zn5   S    
C42   C50   A    
C26   C30   A    
C115  C119  A    
C56   H16   S    
C139  O42   A    
C77   H29   S    
C229  Cl9   S    
C68   H24   S    
C233  H1    S    
C5    C135  S    
C105  C109  A    
C173  C187  S    
C147  O14   A    
C18   C22   A    
C107  C111  A    
C92   C134  A    
C210  C213  A    
C232  Cl12  S    
C141  O45   A    
C92   H44   S    
O11   Zn12  S    
C38   H10   S    
O39   Zn8   S    
C177  C181  A    
C96   C100  A    
O1    Zn1   S    
C252  O72   S    
O21   Zn1   S    
C134  C168  A    
C37   C41   A    
O18   Zn3   S    
C191  C195  A    
C144  O10   A    
C161  C171  A    
C142  O48   A    
C201  C231  A    
C211  C214  A    
C162  C172  A    
C131  C165  A    
C211  H91   S    
C207  C209  A    
C169  C173  A    
C231  C235  A    
O13   Zn9   S    
C124  H56   S    
C81   C85   A    
C62   C102  S    
C206  C215  A    
C58   C62   A    
C83   C87   A    
C88   C96   A    
C224  H100  S    
C93   C97   A    
C78   C102  A    
C243  O54   S    
C112  C116  A    
C80   C84   A    
C109  H49   S    
C15   C19   A    
C138  O40   A    
C80   C104  A    
C31   Cl15  S    
C192  C196  A    
C54   C58   A    
C40   H12   S    
C179  H67   S    
C247  O62   S    
C48   O28   A    
C94   C98   A    
C1    O1    A    
C21   C165  S    
C220  C228  A    
C64   C104  S    
O48   Zn12  S    
C3    O3    A    
C249  O66   S    
C161  Cl5   S    
C181  H73   S    
C180  C188  A    
C97   C245  S    
C46   O26   A    
C245  O58   S    
C48   O24   A    
C33   H5    S    
C122  H54   S    
C124  C128  A    
C90   C132  A    
C130  O31   A    
O23   Zn2   S    
O47   Zn11  S    
O66   H125  S    
C243  O53   D    
C218  H94   S    
C25   C29   A    
C250  O68   S    
C59   H19   S    
C53   H13   S    
C12   C16   A    
C18   C46   S    
C202  H104  S    
C12   C52   S    
C146  O12   A    
C119  Cl3   S    
C246  O60   S    
C171  C174  A    
C65   H21   S    
C117  Cl1   S    
O64   H124  S    
C207  H87   S    
C154  C157  A    
C196  C198  A    
C244  O55   D    
C170  H62   S    
C53   C57   A    
C201  H103  S    
C209  H89   S    
C199  H101  S    
C33   C37   A    
C56   C60   A    
O44   Zn8   S    
C35   C39   A    
O60   H122  S    
C213  C227  S    
C23   C239  A    
O43   Zn7   S    
C168  C202  A    
C77   C81   A    
C30   Cl14  S    
O42   Zn6   S    
C20   C48   S    
O10   Zn9   S    
C217  C227  A    
C178  C187  A    
C63   C103  S    
C58   H18   S    
C31   C35   A    
C191  C204  A    
C2    O2    A    
C10   C50   S    
C32   C36   A    
C218  C227  A    
C202  C232  A    
C73   C143  S    
C148  O16   A    
C74   C144  S    
C71   H27   S    
C106  H46   S    
C4    C116  S    
C4    O20   A    
C184  H76   S    
C6    C10   A    
O16   Zn12  S    
O46   Zn10  S    
C13   C17   A    
C36   H8    S    
C106  C126  A    
C89   H41   S    
C177  C187  A    
C42   C242  S    
C139  C225  S    
C165  C199  A    
C3    C115  S    
C189  H77   S    
C43   C51   A    
C65   C69   A    
C32   Cl16  S    
C184  C186  A    
C164  C176  A    
C81   H33   S    
C78   H30   S    
C153  C157  A    
C163  C169  A    
C17   C21   A    
C16   H112  S    
C237  H105  S    
O2    Zn1   S    
C219  C223  A    
C108  C112  A    
C39   H11   S    
C205  C215  A    
C182  H74   S    
C152  C252  S    
C132  H70   S    
C66   H22   S    
C136  O34   A    
C133  H71   S    
C22   C238  A    
C170  C173  A    
C200  H102  S    
C152  C160  A    
C56   C76   A    
C14   C18   A    
C47   O23   A    
C72   H28   S    
C72   C76   A    
C147  C159  S    
C143  O5    A    
C87   C127  S    
C241  O49   D    
C1    O17   A    
C75   C145  S    
C7    C11   A    
C3    O19   A    
C25   H113  S    
C24   C168  S    
C132  C166  A    
C38   C42   A    
C133  C167  A    
C161  C175  A    
C193  C197  A    
C190  C203  A    
O4    Zn2   S    
C208  H88   S    
C99   C247  S    
C90   C234  A    
C135  O37   A    
C248  O64   S    
C117  C121  A    
C70   C74   A    
O14   Zn10  S    
C6    C136  S    
O25   Zn3   S    
O3    Zn2   S    
O32   Zn8   S    
O28   Zn4   S    
O5    Zn9   S    
C20   C24   A    
C79   C83   A    
C140  O43   A    
C183  H75   S    
C86   C94   A    
C193  H81   S    
C197  C215  S    
C16   C20   A    
C174  C188  S    
C98   C246  S    
C110  H50   S    
C208  C216  A    
C229  C233  A    
C139  O41   A    
C85   C93   A    
C163  C176  A    
C4    O4    A    
C218  C222  A    
C179  C183  A    
C244  O56   S    
C63   C67   A    
C95   H39   S    
C147  O13   A    
C36   C40   A    
C146  O8    A    
O52   H118  S    
C181  C185  A    
C46   O22   A    
C39   C43   A    
C206  H86   S    
C150  C250  S    
O15   Zn11  S    
C122  C126  A    
C189  C193  A    
O72   H128  S    
C91   C133  A    
C144  O6    A    
C252  O71   D    
C43   C243  S    
O17   Zn3   S    
C164  Cl8   S    
C91   H43   S    
C149  C159  A    
C154  H58   S    
C114  C118  A    
C157  C175  S    
C158  C176  S    
C7    C239  A    
C200  C230  A    
C112  H52   S    
C230  Cl10  S    
C189  C203  A    
C220  C224  A    
O6    Zn10  S    
C214  C228  S    
C106  C110  A    
C221  H97   S    
O19   Zn4   S    
C191  H79   S    
O24   Zn2   S    
C34   C38   A    
C163  Cl7   S    
C156  H60   S    
C53   C73   A    
C141  C203  S    
C212  C214  A    
C224  C226  A    
C44   C52   A    
C130  C186  S    
C109  C113  A    
C35   H7    S    
C45   O21   A    
C151  C160  A    
C236  H4    S    
O62   H123  S    
C88   C128  S    
C71   C75   A    
C28   C52   A    
O41   Zn5   S    
C247  O61   D    
O34   Zn6   S    
C239  H107  S    
C37   H9    S    
C194  H82   S    
O37   Zn6   S    
C177  H65   S    
C249  O65   D    
C166  C200  A    
C11   C51   S    
C190  C194  A    
O58   H121  S    
C155  H59   S    
C208  C210  A    
C245  O57   D    
C150  C154  A    
C210  H90   S    
C137  O35   A    
C111  C115  A    
C97   C101  A    
C120  C124  A    
C134  H72   S    
