data_mof_unit_68597.cif
_audit_creation_date              2012-12-11T15:35:59-0500
_audit_creation_method            fapswitch 2.2
_symmetry_space_group_name_H-M    P1
_symmetry_Int_Tables_number       1
_space_group_crystal_system       triclinic
_cell_length_a                    7.353381
_cell_length_b                    12.691091
_cell_length_c                    35.577119
_cell_angle_alpha                 90.267961
_cell_angle_beta                  90.178711
_cell_angle_gamma                 89.841909
_cell_volume                      3320.07814053

loop_
_atom_site_label
_atom_site_type_symbol
_atom_type_description
_atom_site_fract_x
_atom_site_fract_y
_atom_site_fract_z
_atom_type_partial_charge
O1    O     O_R   0.379730 0.148600 0.662710 -0.540453
O2    O     O_R   0.620270 0.851400 0.337290 -0.540843
O3    O     O_R   0.120270 0.648600 0.337290 -0.525465
O4    O     O_R   0.879730 0.351400 0.662710 -0.545478
O5    O     O_R   0.722480 0.134490 0.741330 -0.543714
O6    O     O_R   0.277520 0.865510 0.258670 -0.543172
O7    O     O_R   0.777520 0.634490 0.258670 -0.532417
O8    O     O_R   0.222480 0.365510 0.741330 -0.545660
O9    O     O_R   0.892880 0.345890 0.741600 -0.531743
O10   O     O_R   0.107120 0.654110 0.258400 -0.530366
O11   O     O_R   0.607120 0.845890 0.258400 -0.529996
O12   O     O_R   0.392880 0.154110 0.741600 -0.537945
C1    C     C_R   0.552678 0.117010 0.754926 0.699353
C2    C     C_R   0.447380 0.892871 0.247804 0.727298
C3    C     C_R   0.946773 0.610944 0.246443 0.695757
C4    C     C_R   0.050894 0.386575 0.753608 0.688551
O13   O     O_R   0.709490 0.135560 0.662990 -0.565081
O14   O     O_R   0.290510 0.864440 0.337010 -0.573830
O15   O     O_R   0.790510 0.635560 0.337010 -0.569666
O16   O     O_R   0.209490 0.364440 0.662990 -0.532154
C5    C     C_R   0.540476 0.106239 0.653058 0.766860
C6    C     C_R   0.460730 0.888292 0.349061 0.772736
C7    C     C_R   0.961151 0.611560 0.348936 0.752972
C8    C     C_R   0.041223 0.394377 0.653644 0.730738
O17   O     O_3   0.552800 0.316610 0.702160 -0.380169
O18   O     O_3   0.447200 0.683390 0.297840 -0.377675
O19   O     O_3   0.947200 0.816610 0.297840 -0.389094
O20   O     O_3   0.052800 0.183390 0.702160 -0.391103
V1    V     V_3+5 0.827630 0.234380 0.702160 1.382277
V2    V     V_3+5 0.172370 0.765620 0.297840 1.395868
V3    V     V_3+5 0.672370 0.734380 0.297840 1.412110
V4    V     V_3+5 0.327630 0.265620 0.702160 1.422060
C9    C     C_R   0.967744 0.686612 0.911392 0.579604
C10   C     C_R   0.907528 0.324354 0.080844 0.602025
C11   C     C_R   0.493320 0.214718 0.091355 0.597679
C12   C     C_R   0.483329 0.865491 0.925125 0.586142
O21   O     O_2   0.858413 0.605312 0.918441 -0.552089
O22   O     O_2   0.815959 0.413556 0.074288 -0.524985
O23   O     O_2   0.613165 0.141898 0.080543 -0.547168
O24   O     O_2   0.434616 0.964836 0.931732 -0.532784
N1    N     N_R   0.010670 0.709961 0.874713 -0.509077
N2    N     N_R   0.961479 0.301118 0.117350 -0.526885
N3    N     N_R   0.468107 0.235116 0.129364 -0.517590
N4    N     N_R   0.507944 0.830830 0.888134 -0.524873
C13   C     C_R   0.015886 0.818017 0.867979 0.584745
C14   C     C_R   0.023469 0.199248 0.122734 0.555888
C15   C     C_R   0.484079 0.342764 0.137507 0.566261
C16   C     C_R   0.471279 0.724200 0.883470 0.549729
C17   C     C_R   0.006135 0.645444 0.805172 0.128095
C18   C     C_R   0.885545 0.352161 0.187067 0.178208
C19   C     C_R   0.374377 0.164399 0.196816 0.181854
C20   C     C_R   0.524402 0.868937 0.815856 0.140239
C21   C     C_R   0.959562 0.564314 0.779564 0.041927
C22   C     C_R   0.881444 0.427188 0.217793 0.080563
C23   C     C_R   0.353924 0.078383 0.223104 0.066565
C24   C     C_R   0.489117 0.940521 0.785832 0.025525
C25   C     C_R   0.078497 0.436086 0.822430 0.089692
C26   C     C_R   0.007658 0.561849 0.177773 0.082479
C27   C     C_R   0.550210 0.970027 0.184815 0.063649
C28   C     C_R   0.585707 0.084268 0.825252 0.073938
C29   C     C_R   0.063568 0.512705 0.852419 0.126001
C30   C     C_R   0.011149 0.488397 0.146625 0.111641
C31   C     C_R   0.516810 0.039428 0.153678 0.091939
C32   C     C_R   0.591417 0.014629 0.857292 0.169072
C33   C     C_R   0.023071 0.623895 0.844711 0.280527
C34   C     C_R   0.951506 0.380005 0.149898 0.244155
C35   C     C_R   0.455465 0.148068 0.159478 0.240557
C36   C     C_R   0.538464 0.904284 0.854535 0.253401
C37   C     C_R   0.051021 0.859425 0.934868 -0.174138
C38   C     C_R   0.011981 0.153029 0.056401 -0.135682
C39   C     C_R   0.437192 0.393944 0.071868 -0.122341
C40   C     C_R   0.477567 0.686957 0.950552 -0.136349
C41   C     C_R   0.015140 0.753493 0.941982 -0.118380
C42   C     C_R   0.945237 0.254963 0.049493 -0.087323
C43   C     C_R   0.436178 0.286392 0.063027 -0.109775
C44   C     C_R   0.480744 0.795551 0.956869 -0.140743
C45   C     C_R   0.016950 0.717163 0.979410 0.505280
C46   C     C_R   0.907704 0.282222 0.011604 0.489679
C47   C     C_R   0.408107 0.257103 0.024900 0.521196
C48   C     C_R   0.469502 0.830294 0.994952 0.519169
C49   C     C_R   0.055442 0.892994 0.897217 -0.010332
C50   C     C_R   0.031225 0.121408 0.093793 0.028028
C51   C     C_R   0.471761 0.423773 0.109316 0.035360
C52   C     C_R   0.481107 0.650507 0.913369 0.040703
C53   C     C_R   0.031128 0.463474 0.785469 -0.072022
C54   C     C_R   0.953405 0.530512 0.214110 -0.113222
C55   C     C_R   0.456423 0.983523 0.219047 -0.113297
C56   C     C_R   0.539197 0.046607 0.789165 -0.068613
C57   C     C_R   0.070557 0.972078 0.033603 0.088093
C58   C     C_R   0.066463 0.041380 0.958174 0.076646
C59   C     C_R   0.430925 0.507573 0.974112 0.079427
C60   C     C_R   0.469792 0.576991 0.049452 0.029065
C61   C     C_R   0.031933 0.113289 0.988484 0.001718
C62   C     C_R   0.064076 0.897792 0.003104 -0.000543
C63   C     C_R   0.465379 0.650545 0.018949 -0.030153
C64   C     C_R   0.401015 0.438141 0.004819 0.046214
C65   C     C_R   0.042836 0.079895 0.026165 0.097952
C66   C     C_R   0.067411 0.932716 0.965391 0.107835
C67   C     C_R   0.459742 0.614899 0.981253 0.098570
C68   C     C_R   0.433971 0.470289 0.042176 0.107356
C69   C     C_R   0.081905 0.940816 0.071447 -0.221470
C70   C     C_R   0.092542 0.073895 0.920656 -0.170918
C71   C     C_R   0.456164 0.471029 0.936946 -0.259583
C72   C     C_R   0.508515 0.606187 0.086832 -0.203164
C73   C     C_R   0.056683 0.012176 0.101229 0.149038
C74   C     C_R   0.092404 0.001315 0.890395 0.208465
C75   C     C_R   0.490059 0.540285 0.907050 0.220549
C76   C     C_R   0.502971 0.533199 0.116678 0.190128
O25   O     O_2   0.079697 0.170627 0.156406 -0.564183
O26   O     O_2   0.955547 0.856640 0.835288 -0.559438
O27   O     O_2   0.397389 0.688705 0.851568 -0.565075
O28   O     O_2   0.529168 0.374019 0.172016 -0.564790
C77   C     C_R   0.029729 0.790989 0.009211 -0.317235
C78   C     C_R   0.961715 0.213424 0.981931 -0.348934
C79   C     C_R   0.351487 0.334488 0.999094 -0.320549
C80   C     C_R   0.458446 0.758762 0.024784 -0.280722
H1    H     H_    0.113809 0.860381 0.078705 0.124976
H2    H     H_    0.114158 0.156306 0.914436 0.100973
H3    H     H_    0.459572 0.387579 0.930841 0.114237
H4    H     H_    0.544027 0.686588 0.093523 0.114464
H5    H     H_    0.001490 0.765979 0.037288 0.116772
H6    H     H_    0.930835 0.233149 0.953271 0.117574
H7    H     H_    0.296907 0.310921 0.972167 0.119961
H8    H     H_    0.442453 0.791534 0.052643 0.137482
C81   C     C_R   0.982515 0.545229 0.382571 -0.327470
C82   C     C_R   0.040521 0.475678 0.624883 -0.307952
C83   C     C_R   0.535635 0.022789 0.624362 -0.293532
C84   C     C_R   0.479566 0.952386 0.383413 -0.303648
C85   C     C_R   0.125839 0.390277 0.408799 0.433439
C86   C     C_R   0.088396 0.657005 0.606860 0.422125
C87   C     C_R   0.534975 0.836266 0.608748 0.488358
C88   C     C_R   0.584485 0.118579 0.410076 0.421492
C89   C     C_R   0.084954 0.452757 0.378141 0.314572
C90   C     C_R   0.116120 0.575437 0.632861 0.300483
C91   C     C_R   0.554952 0.917445 0.635218 0.290560
C92   C     C_R   0.543676 0.055212 0.378802 0.302866
C93   C     C_R   0.968264 0.591674 0.419124 0.342436
C94   C     C_R   0.006251 0.447514 0.587111 0.407190
C95   C     C_R   0.520858 0.048273 0.586085 0.381305
C96   C     C_R   0.475541 0.905453 0.419827 0.307198
C97   C     C_R   0.023748 0.533830 0.452207 -0.068433
C98   C     C_R   0.020973 0.526029 0.559039 -0.061034
C99   C     C_R   0.534268 0.967307 0.558477 -0.090306
C100  C     C_R   0.535356 0.964620 0.452192 -0.060542
C101  C     C_R   0.095812 0.428343 0.446041 -0.186061
C102  C     C_R   0.028527 0.631391 0.570142 -0.198054
C103  C     C_R   0.520049 0.860297 0.569158 -0.147021
C104  C     C_R   0.587988 0.073092 0.446577 -0.172333
C105  C     C_R   0.018095 0.575168 0.491318 -0.128492
C106  C     C_R   0.049500 0.500992 0.520608 -0.100469
C107  C     C_R   0.564615 0.994217 0.520374 -0.089691
C108  C     C_R   0.538308 0.922191 0.490688 -0.075551
C109  C     C_R   0.154743 0.412514 0.512761 0.522794
C110  C     C_R   0.992603 0.683418 0.504605 0.539882
C111  C     C_R   0.539811 0.812670 0.501015 0.485402
C112  C     C_R   0.669439 0.082829 0.512531 0.537268
C113  C     C_R   0.161134 0.369021 0.477095 0.065902
C114  C     C_R   0.994719 0.709016 0.543375 0.083982
C115  C     C_R   0.510419 0.782909 0.539769 0.057990
C116  C     C_R   0.663180 0.130356 0.477351 0.079258
C117  C     C_3   0.133758 0.322403 0.830425 -0.801769
H9    H     H_    0.119565 0.267844 0.806239 0.209144
H10   H     H_    0.278264 0.319685 0.839233 0.209680
H11   H     H_    0.047212 0.289149 0.852907 0.201418
C118  C     C_3   0.041355 0.678601 0.170636 -0.773332
H12   H     H_    0.006555 0.731469 0.194311 0.204258
H13   H     H_    0.186077 0.693143 0.164015 0.207289
H14   H     H_    0.954258 0.704988 0.146948 0.203836
C119  C     C_3   0.663741 0.870954 0.179898 -0.771284
H15   H     H_    0.785008 0.875933 0.198442 0.223690
H16   H     H_    0.583504 0.801340 0.187928 0.203488
H17   H     H_    0.713049 0.857226 0.150975 0.204187
C120  C     C_3   0.624640 0.201370 0.829897 -0.790941
H18   H     H_    0.565007 0.250105 0.807185 0.206454
H19   H     H_    0.563358 0.231960 0.856190 0.195249
H20   H     H_    0.773313 0.214735 0.830266 0.215189
O29   O     O_3   0.951783 0.346244 0.576758 -0.585008
C121  C     C_3   0.077760 0.267341 0.588038 -0.069963
H21   H     H_    0.109671 0.217420 0.563654 0.190892
H22   H     H_    0.018738 0.216682 0.610109 0.111666
H23   H     H_    0.210726 0.297619 0.598062 0.170120
O30   O     O_3   0.972513 0.699863 0.421617 -0.557334
C122  C     C_3   0.836656 0.756712 0.402776 -0.038159
H24   H     H_    0.800107 0.824761 0.420585 0.207939
H25   H     H_    0.714912 0.709267 0.396530 0.148922
H26   H     H_    0.893799 0.792953 0.377154 0.102206
O31   O     O_3   0.454743 0.797813 0.424720 -0.572607
C123  C     C_3   0.339410 0.741787 0.400562 -0.195874
H27   H     H_    0.413816 0.711337 0.375781 0.150642
H28   H     H_    0.216447 0.788084 0.393872 0.184062
H29   H     H_    0.299034 0.668950 0.414990 0.165741
O32   O     O_3   0.470097 0.149239 0.574771 -0.578820
C124  C     C_3   0.596025 0.226545 0.586773 -0.082216
H30   H     H_    0.722402 0.194468 0.599124 0.158331
H31   H     H_    0.530621 0.282442 0.606644 0.125348
H32   H     H_    0.643421 0.270229 0.562311 0.189691
O33   O     O_3   0.266705 0.582466 0.656182 -0.512911
C125  C     C_3   0.216597 0.606070 0.693278 -0.174648
H33   H     H_    0.092715 0.655390 0.695606 0.084485
H34   H     H_    0.330244 0.649692 0.706674 0.157622
H35   H     H_    0.198602 0.532772 0.709025 0.146659
O34   O     O_3   0.195042 0.438684 0.346865 -0.521094
C126  C     C_3   0.095922 0.398905 0.316192 -0.226299
H36   H     H_    0.957531 0.370018 0.323559 0.085512
H37   H     H_    0.172740 0.332276 0.303635 0.138850
H38   H     H_    0.088741 0.460742 0.294498 0.160163
O35   O     O_3   0.594992 0.087507 0.343332 -0.556968
C127  C     C_3   0.449114 0.138736 0.325734 -0.290679
H39   H     H_    0.486865 0.149785 0.295935 0.173998
H40   H     H_    0.425371 0.218140 0.337519 0.204960
H41   H     H_    0.321740 0.092667 0.327965 0.120432
O36   O     O_3   0.559544 0.890835 0.672837 -0.557839
C128  C     C_3   0.734039 0.909019 0.688310 -0.269830
H42   H     H_    0.834799 0.943199 0.668619 0.123501
H43   H     H_    0.787352 0.834823 0.700343 0.126299
H44   H     H_    0.721764 0.963345 0.712276 0.182661
O37   O     O_3   0.238770 0.305013 0.401881 -0.505743
C129  C     C_3   0.139121 0.218995 0.387350 -0.210934
H45   H     H_    0.101723 0.229990 0.357580 0.129233
H46   H     H_    0.019504 0.200201 0.404259 0.088768
H47   H     H_    0.223572 0.147405 0.389248 0.154255
O38   O     O_3   0.167970 0.754804 0.612079 -0.522719
C130  C     C_3   0.107705 0.807570 0.644522 -0.160372
H48   H     H_    0.213428 0.804202 0.666714 0.209662
H49   H     H_    0.977188 0.777625 0.655040 0.056525
H50   H     H_    0.090441 0.891931 0.637392 0.127846
O39   O     O_3   0.496416 0.737990 0.623448 -0.498092
C131  C     C_3   0.653103 0.680074 0.631978 -0.166955
H51   H     H_    0.706903 0.702174 0.659890 0.145016
H52   H     H_    0.752960 0.686446 0.609520 0.088263
H53   H     H_    0.616154 0.595556 0.633518 0.180695
O40   O     O_3   0.570661 0.227572 0.406922 -0.531665
C132  C     C_3   0.698001 0.274671 0.382682 -0.162888
H54   H     H_    0.783561 0.219208 0.366466 0.143672
H55   H     H_    0.785655 0.327155 0.399545 0.102282
H56   H     H_    0.626015 0.327388 0.362809 0.172958
O41   O     O_3   0.281859 0.381556 0.539370 -0.557935
C133  C     C_3   0.455804 0.416979 0.528948 -0.300726
H57   H     H_    0.452927 0.479865 0.507901 0.113429
H58   H     H_    0.531706 0.351987 0.515941 0.165778
H59   H     H_    0.529645 0.444418 0.554356 0.171002
O42   O     O_3   0.967859 0.768694 0.481448 -0.508920
C134  C     C_3   0.132401 0.822536 0.476787 -0.162440
H60   H     H_    0.240306 0.765853 0.470875 0.176226
H61   H     H_    0.170923 0.869960 0.501526 0.090299
H62   H     H_    0.118338 0.877491 0.452818 0.157999
O43   O     O_3   0.637060 0.747267 0.476624 -0.501306
C135  C     C_3   0.577917 0.642405 0.471895 -0.064382
H63   H     H_    0.428923 0.633197 0.472276 0.084930
H64   H     H_    0.653669 0.590277 0.491017 0.103496
H65   H     H_    0.617016 0.614052 0.443727 0.142805
O44   O     O_3   0.808324 0.107388 0.537382 -0.562148
C136  C     C_3   0.973404 0.065475 0.523597 -0.343679
H66   H     H_    0.048011 0.127528 0.509174 0.169134
H67   H     H_    0.957289 0.999700 0.503171 0.148901
H68   H     H_    0.057970 0.039195 0.547596 0.170279
C137  C     C_3   0.093208 0.468285 0.891148 -0.680163
H69   H     H_    0.141034 0.525905 0.911862 0.242689
H70   H     H_    0.965943 0.429217 0.899707 0.211683
H71   H     H_    0.199712 0.407143 0.891852 0.184645
C138  C     C_3   0.066209 0.533147 0.109447 -0.718316
H72   H     H_    0.123001 0.473210 0.090497 0.200295
H73   H     H_    0.946861 0.573944 0.097190 0.231865
H74   H     H_    0.172053 0.593619 0.112119 0.200068
C139  C     C_3   0.496075 0.980700 0.116710 -0.639097
H75   H     H_    0.401645 0.019988 0.097284 0.246405
H76   H     H_    0.630647 0.966806 0.103533 0.228140
H77   H     H_    0.432376 0.902371 0.121137 0.174288
C140  C     C_3   0.678781 0.060809 0.891797 -0.689828
H78   H     H_    0.580907 0.114625 0.905280 0.203970
H79   H     H_    0.733070 0.000432 0.911105 0.212874
H80   H     H_    0.794456 0.111339 0.884286 0.189584
O45   O     O_3   0.026641 0.608766 0.984719 -0.563857
C141  C     C_3   0.014745 0.577501 0.022509 -0.250036
H81   H     H_    0.875659 0.592717 0.033416 0.191193
H82   H     H_    0.120682 0.614488 0.040131 0.132240
H83   H     H_    0.044574 0.492607 0.024429 0.205830
O46   O     O_3   0.801654 0.370641 0.004805 -0.548487
C142  C     C_3   0.836164 0.414568 0.969434 -0.189346
H84   H     H_    0.765213 0.370710 0.946836 0.109209
H85   H     H_    0.984475 0.419694 0.963727 0.168618
H86   H     H_    0.780217 0.494630 0.969683 0.258635
O47   O     O_3   0.443914 0.155270 0.012737 -0.527409
C143  C     C_3   0.512834 0.156169 0.975435 -0.103622
H87   H     H_    0.595824 0.226329 0.968742 0.098798
H88   H     H_    0.398912 0.150460 0.955234 0.161491
H89   H     H_    0.607194 0.091073 0.970426 0.189111
O48   O     O_3   0.479277 0.934745 0.004638 -0.516632
C144  C     C_3   0.657558 0.950939 0.017584 -0.174879
H90   H     H_    0.746136 0.947785 0.992829 0.106419
H91   H     H_    0.702541 0.895113 0.039828 0.104477
H92   H     H_    0.671719 0.029566 0.029875 0.243115
C145  C     C_3   0.783399 0.397360 0.253796 -0.765164
H93   H     H_    0.794081 0.455125 0.276838 0.197625
H94   H     H_    0.636008 0.390965 0.248111 0.235594
H95   H     H_    0.835633 0.321220 0.264649 0.187690
C146  C     C_3   0.840102 0.587481 0.745829 -0.775873
H96   H     H_    0.698196 0.565390 0.752731 0.222271
H97   H     H_    0.840957 0.671850 0.738190 0.190792
H98   H     H_    0.879954 0.541794 0.720595 0.190389
C147  C     C_3   0.395733 0.902327 0.750351 -0.749994
H99   H     H_    0.249108 0.895738 0.755904 0.204390
H100  H     H_    0.402303 0.959101 0.727080 0.239635
H101  H     H_    0.450869 0.826179 0.740099 0.232151
C148  C     C_3   0.206906 0.085763 0.253235 -0.744906
H102  H     H_    0.219266 0.029097 0.276081 0.217284
H103  H     H_    0.207836 0.161576 0.268587 0.165807
H104  H     H_    0.072196 0.073164 0.240004 0.222993
C149  C     C_3   0.805772 0.244079 0.195110 -0.587010
H105  H     H_    0.772236 0.201261 0.169275 0.224198
H106  H     H_    0.896505 0.195613 0.212575 0.189234
H107  H     H_    0.679617 0.248694 0.211381 0.203054
C150  C     C_3   0.112786 0.731312 0.786653 -0.647242
H108  H     H_    0.021097 0.787209 0.772080 0.203964
H109  H     H_    0.201799 0.773481 0.806485 0.266149
H110  H     H_    0.206192 0.697169 0.765447 0.162571
C151  C     C_3   0.615926 0.768643 0.802844 -0.586893
H111  H     H_    0.690353 0.729202 0.825850 0.233185
H112  H     H_    0.517927 0.713274 0.789713 0.204844
H113  H     H_    0.717732 0.788400 0.781215 0.194041
C152  C     C_3   0.288731 0.268813 0.208973 -0.573984
H114  H     H_    0.379153 0.311035 0.228779 0.181959
H115  H     H_    0.245981 0.318221 0.185378 0.227566
H116  H     H_    0.159383 0.260890 0.223612 0.180558
C153  C     C_3   0.045725 0.966676 0.140252 -0.733739
H117  H     H_    0.924313 0.998618 0.154664 0.243766
H118  H     H_    0.034755 0.879888 0.139634 0.181599
H119  H     H_    0.167604 0.985850 0.156999 0.246135
C154  C     C_3   0.128711 0.043521 0.851584 -0.717611
H120  H     H_    0.205109 0.985575 0.834562 0.225073
H121  H     H_    0.999410 0.062157 0.836949 0.227536
H122  H     H_    0.213160 0.115639 0.853079 0.195193
C155  C     C_3   0.549750 0.494256 0.869762 -0.685632
H123  H     H_    0.664064 0.540448 0.858128 0.225015
H124  H     H_    0.598906 0.412119 0.873005 0.173014
H125  H     H_    0.436762 0.494266 0.849193 0.232698
C156  C     C_3   0.518987 0.577960 0.155796 -0.703921
H126  H     H_    0.648187 0.553570 0.168874 0.248300
H127  H     H_    0.515623 0.664695 0.155366 0.164721
H128  H     H_    0.402766 0.552452 0.173300 0.233161
C157  C     C_3   0.256829 0.263353 0.474138 -0.659684
H129  H     H_    0.385589 0.274786 0.459618 0.277308
H130  H     H_    0.292406 0.228140 0.501660 0.212436
H131  H     H_    0.174209 0.203673 0.459595 0.192227
C158  C     C_3   0.954142 0.820883 0.555932 -0.645811
H132  H     H_    0.082355 0.865108 0.559776 0.216714
H133  H     H_    0.865651 0.861597 0.535720 0.222872
H134  H     H_    0.880271 0.823578 0.582786 0.184144
C159  C     C_3   0.474846 0.669101 0.548802 -0.671985
H135  H     H_    0.399958 0.653565 0.574278 0.283851
H136  H     H_    0.373173 0.637559 0.529230 0.155036
H137  H     H_    0.604042 0.624263 0.550029 0.183962
C160  C     C_3   0.761831 0.234697 0.473533 -0.728203
H138  H     H_    0.674795 0.299514 0.463539 0.220287
H139  H     H_    0.819093 0.264062 0.500468 0.230141
H140  H     H_    0.875072 0.224401 0.454184 0.201933

loop_
_geom_bond_atom_site_label_1
_geom_bond_atom_site_label_2
_ccdc_geom_bond_type
C86   C102  A    
C154  H121  S    
C98   C102  A    
C130  H48   S    
C10   N2    A    
C160  H140  S    
C156  H126  S    
C130  H50   S    
C155  H123  S    
C126  H37   S    
C123  H29   S    
C143  H87   S    
C110  C114  A    
C63   C67   A    
C147  H101  S    
C47   O47   S    
C141  H81   S    
C104  C116  A    
C50   C73   A    
C57   C62   A    
C26   C118  S    
O30   C122  S    
C59   C64   A    
C48   C80   A    
C38   C42   A    
C132  H55   S    
C15   C51   A    
C85   C101  A    
C154  H120  S    
C97   C101  A    
C37   C66   A    
C99   C107  A    
C91   O36   S    
O8    C4    A    
C21   C53   A    
C86   C90   A    
C45   C77   A    
C131  H51   S    
C117  H10   S    
C135  H64   S    
C117  H9    S    
C128  H43   S    
O17   V1    S    
C133  H58   S    
C79   H7    S    
O34   C126  S    
O19   V3    S    
C45   O45   S    
O20   V4    S    
C46   O46   S    
C95   O32   S    
C147  H99   S    
O13   C5    A    
O8    V4    S    
C151  H113  S    
O15   C7    A    
C122  H24   S    
C101  C113  A    
O10   V2    S    
C113  C157  S    
O39   C131  S    
C24   C147  S    
C158  H134  S    
C31   C139  S    
C40   C52   A    
C120  H19   S    
O29   C121  S    
C85   C89   A    
C9    C41   A    
O6    V2    S    
C140  H79   S    
C4    C53   S    
C12   N4    A    
C60   C63   A    
C156  H128  S    
C58   C61   A    
C136  H67   S    
C155  H125  S    
C57   C69   A    
C96   O31   S    
C143  H89   S    
C13   C49   A    
C59   C71   A    
C92   O35   S    
C25   C29   A    
C111  O43   S    
C27   C31   A    
C28   C32   A    
C76   C156  S    
C9    N1    A    
C17   C21   A    
C25   C53   A    
C19   C23   A    
C61   C78   A    
C142  H85   S    
C38   C50   A    
C27   C55   A    
C60   C72   A    
C29   C33   A    
C25   C117  S    
O36   C128  S    
C82   C90   A    
C124  H30   S    
N1    C13   A    
O2    V3    S    
C125  H34   S    
C27   C119  S    
N3    C15   A    
C131  H53   S    
N4    C16   A    
O44   C136  S    
C159  H135  S    
C47   C79   A    
O3    V2    S    
C24   C56   A    
C121  H21   S    
C28   C56   A    
C74   C154  S    
C32   C36   A    
C136  H66   S    
C150  H109  S    
C52   C75   A    
C123  H28   S    
C137  H69   S    
C153  H118  S    
C58   C70   A    
C14   C50   A    
C95   C99   A    
C148  H103  S    
C87   C103  A    
C11   N3    A    
C132  H54   S    
C134  H62   S    
C118  H13   S    
O41   C133  S    
C8    C82   S    
C119  H16   S    
C26   C54   A    
C30   C138  S    
C62   C77   A    
C39   C51   A    
C157  H130  S    
C48   O48   S    
C30   C34   A    
C111  C115  A    
C112  C116  A    
C122  H26   S    
C22   C54   A    
O37   C129  S    
O2    C6    A    
C145  H93   S    
O6    C2    A    
C139  H76   S    
C129  H46   S    
C63   C80   A    
C88   C92   A    
C152  H116  S    
C144  H90   S    
C19   C35   A    
C23   C148  S    
C152  H114  S    
C159  H137  S    
C20   C151  S    
C14   O25   S    
C61   C65   A    
C129  H47   S    
O16   V4    S    
C41   C45   A    
O14   C6    A    
O5    C1    A    
C44   C48   A    
C138  H74   S    
C71   C75   A    
C130  H49   S    
O18   V2    S    
C102  C114  A    
C137  H71   S    
C143  H88   S    
C84   C96   A    
C100  C108  A    
C43   C47   A    
C64   C68   A    
O7    C3    A    
C146  H98   S    
C141  H82   S    
C23   C55   A    
O33   C125  S    
C132  H56   S    
C18   C149  S    
C77   H5    S    
O12   C1    A    
N3    C35   S    
O47   C143  S    
O46   C142  S    
C59   C67   A    
C94   O29   S    
C40   C67   A    
C26   C30   A    
C90   O33   S    
C141  H83   S    
O13   V1    S    
C29   C137  S    
O15   V3    S    
C131  H52   S    
C160  H138  S    
C128  H42   S    
C133  H59   S    
C18   C22   A    
O20   V1    S    
C83   C91   A    
C145  H95   S    
C84   C92   A    
O4    C8    A    
C157  H131  S    
C62   C66   A    
C134  H60   S    
C144  H92   S    
C51   C76   A    
N2    C14   A    
C151  H112  S    
C85   O37   S    
C160  H139  S    
C127  H39   S    
C106  C109  A    
C107  C108  A    
C37   C41   A    
C158  H133  S    
O4    V1    S    
C38   C65   A    
C40   C44   A    
C147  H100  S    
C10   O22   S    
C140  H78   S    
C28   C120  S    
C46   C78   A    
C156  H127  S    
C155  H124  S    
C126  H38   S    
O35   C127  S    
C119  H15   S    
C86   O38   S    
C134  H61   S    
C94   C98   A    
C13   O26   S    
C81   C93   A    
C120  H18   S    
C9    O21   S    
C11   O23   S    
C105  C110  A    
C136  H68   S    
C6    C84   S    
C108  C111  A    
O42   C134  S    
C146  H97   S    
C107  C112  A    
C10   C42   A    
C3    C54   S    
C75   C155  S    
C72   C76   A    
C117  H11   S    
C135  H63   S    
C128  H44   S    
C89   O34   S    
C93   C97   A    
C133  H57   S    
C80   H8    S    
C96   C100  A    
C121  H22   S    
C112  O44   S    
C39   C68   A    
C69   H1    S    
C98   C106  A    
C142  H84   S    
O31   C123  S    
C105  C106  A    
O32   C124  S    
C124  H32   S    
C154  H122  S    
C150  H108  S    
C138  H72   S    
C127  H41   S    
O40   C132  S    
C109  C113  A    
C153  H117  S    
C121  H23   S    
C37   C49   A    
C32   C140  S    
C87   O39   S    
C148  H102  S    
C42   C46   A    
C140  H80   S    
C72   H4    S    
C126  H36   S    
C110  O42   S    
O1    C5    A    
C118  H12   S    
C146  H96   S    
O3    C7    A    
C21   C146  S    
C100  C104  A    
C103  C115  A    
C97   C105  A    
C149  H105  S    
C99   C103  A    
C11   C43   A    
C17   C33   A    
O9    C4    A    
C2    C55   S    
C87   C91   A    
O10   C3    A    
C122  H25   S    
O11   C2    A    
C15   O28   S    
C142  H86   S    
C12   C44   A    
C144  H91   S    
O16   C8    A    
C124  H31   S    
C64   C79   A    
C125  H33   S    
O14   V2    S    
C5    C83   S    
C139  H75   S    
C20   C36   A    
C135  H65   S    
O9    V1    S    
C7    C81   S    
O17   V4    S    
O11   V3    S    
O18   V3    S    
C159  H136  S    
O12   V4    S    
O19   V2    S    
C151  H111  S    
C83   C95   A    
C88   O40   S    
O5    V1    S    
C69   C73   A    
C31   C35   A    
O7    V3    S    
C88   C104  A    
C12   O24   S    
C116  C160  S    
C138  H73   S    
C150  H110  S    
N1    C33   S    
C93   O30   S    
C152  H115  S    
O1    V4    S    
C16   C52   A    
C57   C65   A    
C123  H27   S    
C137  H70   S    
C153  H119  S    
C148  H104  S    
C125  H35   S    
C73   C153  S    
O45   C141  S    
C18   C34   A    
C114  C158  S    
C118  H14   S    
C119  H17   S    
N4    C36   S    
C17   C150  S    
C60   C68   A    
C19   C152  S    
C149  H107  S    
C81   C89   A    
C49   C74   A    
C82   C94   A    
C115  C159  S    
C71   H3    S    
C70   H2    S    
O43   C135  S    
C109  O41   S    
O48   C144  S    
C145  H94   S    
C39   C43   A    
C129  H45   S    
C149  H106  S    
C1    C56   S    
C120  H20   S    
C70   C74   A    
O38   C130  S    
C139  H77   S    
C22   C145  S    
C78   H6    S    
C16   O27   S    
C127  H40   S    
N2    C34   S    
C157  H129  S    
C158  H132  S    
C58   C66   A    
C20   C24   A    
