data_mof_unit_42913.cif
_audit_creation_date              2012-12-10T17:18:17-0500
_audit_creation_method            fapswitch 2.2
_symmetry_space_group_name_H-M    P1
_symmetry_Int_Tables_number       1
_space_group_crystal_system       triclinic
_cell_length_a                    10.153842
_cell_length_b                    10.683002
_cell_length_c                    14.877098
_cell_angle_alpha                 89.931988
_cell_angle_beta                  81.030022
_cell_angle_gamma                 95.437094
_cell_volume                      1586.65408256

loop_
_atom_site_label
_atom_site_type_symbol
_atom_type_description
_atom_site_fract_x
_atom_site_fract_y
_atom_site_fract_z
_atom_type_partial_charge
C1    C     C_R   0.556163 0.733289 0.490039 0.780250
C2    C     C_R   0.443808 0.266721 0.502151 0.775951
C3    C     C_R   0.561950 0.730282 0.945649 0.066948
C4    C     C_R   0.438362 0.269751 0.054557 0.067279
C5    C     C_2   0.588053 0.866252 0.471383 0.450945
C6    C     C_2   0.411806 0.133800 0.490373 0.452815
C7    C     C_2   0.490272 0.932720 0.452930 -0.259923
C8    C     C_2   0.509421 0.067400 0.450881 -0.252479
C9    C     C_2   0.927365 0.510096 0.507045 0.093383
C10   C     C_2   0.072658 0.489957 0.492909 0.087562
C11   C     C_R   0.499898 0.499414 0.672814 0.869815
C12   C     C_R   0.500111 0.500609 0.327230 0.837810
C13   C     C_R   0.467535 0.388957 0.191187 -0.233806
C14   C     C_R   0.533515 0.610921 0.808899 -0.229772
C15   C     C_R   0.500667 0.500621 0.232029 -0.024397
C16   C     C_R   0.499365 0.499414 0.768109 -0.037212
C17   C     C_R   0.538305 0.611348 0.183221 -0.250626
C18   C     C_R   0.460809 0.388869 0.817078 -0.247586
C19   C     C_R   0.541002 0.614005 0.089232 0.082638
C20   C     C_R   0.458687 0.386131 0.911032 0.082193
C21   C     C_R   0.501937 0.499949 0.046591 -0.011334
C22   C     C_R   0.498272 0.500098 0.953589 -0.010021
C23   C     C_R   0.469857 0.385056 0.097364 0.078095
C24   C     C_R   0.530712 0.614930 0.902778 0.077339
C25   C     C_R   0.578827 0.728047 0.038332 0.066348
C26   C     C_R   0.420773 0.272128 0.962022 0.064335
H1    H     H_    0.437413 0.307038 0.234896 0.133251
H2    H     H_    0.564609 0.692681 0.765173 0.140246
H3    H     H_    0.562847 0.694399 0.220950 0.134656
H4    H     H_    0.435382 0.305943 0.779494 0.141904
H5    H     H_    0.609538 0.111532 0.426059 0.223277
H6    H     H_    0.390097 0.888619 0.449629 0.215729
H7    H     H_    0.109722 0.421538 0.443815 0.152254
H8    H     H_    0.890318 0.578554 0.556109 0.153455
N1    N     N_2   0.842700 0.448880 0.462930 0.134350
N2    N     N_2   0.157300 0.551120 0.537070 0.134495
O1    O     O_R   0.431060 0.692470 0.507460 -0.607920
O2    O     O_R   0.568940 0.307530 0.492540 -0.609452
O3    O     O_R   0.651120 0.659650 0.483670 -0.591063
O4    O     O_R   0.348880 0.340350 0.516330 -0.589588
O5    O     O_R   0.389960 0.516440 0.644050 -0.569151
O6    O     O_R   0.610040 0.483560 0.355950 -0.579661
O7    O     O_R   0.610030 0.483620 0.620260 -0.627770
O8    O     O_R   0.389970 0.516380 0.379740 -0.638173
Zn1   Zn    Zn3+2 0.353060 0.521920 0.515880 1.057939
Zn2   Zn    Zn3+2 0.646940 0.478080 0.484120 1.056454
C27   C     C_3   0.641936 0.844367 0.082099 -0.445610
C28   C     C_3   0.783940 0.825101 0.099879 -0.346056
C29   C     C_3   0.846602 0.940502 0.143657 -0.833256
H9    H     H_    0.854212 0.024356 0.098225 0.255072
H10   H     H_    0.785208 0.958992 0.210030 0.279354
H11   H     H_    0.948891 0.923864 0.155516 0.255838
H12   H     H_    0.782896 0.742348 0.145183 0.239323
H13   H     H_    0.848175 0.807725 0.034330 0.223631
H14   H     H_    0.652187 0.930334 0.039617 0.210805
H15   H     H_    0.576711 0.868444 0.145434 0.197923
C30   C     C_3   0.356010 0.156266 0.918761 -0.444501
C31   C     C_3   0.213663 0.176735 0.902374 -0.346712
C32   C     C_3   0.147892 0.060968 0.860844 -0.824032
H16   H     H_    0.207397 0.040079 0.794312 0.285850
H17   H     H_    0.139883 0.978177 0.907326 0.253245
H18   H     H_    0.045534 0.078691 0.849811 0.253978
H19   H     H_    0.151354 0.196292 0.968232 0.223554
H20   H     H_    0.214927 0.258593 0.856186 0.240317
H21   H     H_    0.419889 0.131783 0.854961 0.200413
H22   H     H_    0.345935 0.070261 0.961178 0.210030
C33   C     C_3   0.565682 0.855370 0.894832 -0.438583
C34   C     C_3   0.707572 0.901690 0.847767 -0.334717
C35   C     C_3   0.710202 0.031094 0.803588 -0.830456
H23   H     H_    0.641611 0.027486 0.752109 0.271213
H24   H     H_    0.679352 0.101069 0.856017 0.248912
H25   H     H_    0.813343 0.061771 0.769249 0.270243
H26   H     H_    0.778705 0.907803 0.897503 0.226226
H27   H     H_    0.743221 0.834509 0.794604 0.241948
H28   H     H_    0.495506 0.848671 0.844452 0.205290
H29   H     H_    0.523133 0.927154 0.941286 0.182133
C36   C     C_3   0.434501 0.144704 0.105494 -0.438304
C37   C     C_3   0.293003 0.099650 0.153949 -0.330830
C38   C     C_3   0.291343 0.972981 0.201878 -0.849270
H30   H     H_    0.322317 0.900377 0.151581 0.252399
H31   H     H_    0.360211 0.980356 0.253220 0.263826
H32   H     H_    0.188439 0.943214 0.237057 0.271190
H33   H     H_    0.257139 0.169364 0.205109 0.239245
H34   H     H_    0.221615 0.089898 0.104428 0.226480
H35   H     H_    0.475307 0.072179 0.059024 0.181780
H36   H     H_    0.506033 0.151275 0.154995 0.202024
F1    F     F_    0.286404 0.078887 0.521622 -0.629335
F2    F     F_    0.713539 0.921130 0.475625 -0.630903
F3    F     F_    0.110616 0.635529 0.597327 -0.562183
F4    F     F_    0.889350 0.364404 0.402715 -0.569279

loop_
_geom_bond_atom_site_label_1
_geom_bond_atom_site_label_2
_ccdc_geom_bond_type
N2    F3    S    
C17   H3    S    
C30   H22   S    
C7    C8    S    
C36   C37   S    
C28   H13   S    
C1    C5    S    
C27   H14   S    
C19   C21   A    
C34   H27   S    
C13   C23   A    
O6    Zn2   S    
C14   C24   A    
C35   H24   S    
C12   O6    A    
C5    F2    S    
C37   H33   S    
C34   C35   S    
C29   H10   S    
C11   O7    A    
C18   H4    S    
C9    C10   S    
C25   C27   S    
C18   C20   A    
C1    O1    A    
C36   H35   S    
C32   H16   S    
C21   C22   A    
C3    C24   A    
C2    C6    S    
O7    Zn2   S    
C31   H20   S    
C28   H12   S    
C32   H17   S    
C33   C34   S    
C3    C25   A    
C38   H31   S    
C4    C23   A    
C37   C38   S    
C6    C8    D    
C31   C32   S    
C6    F1    S    
C35   H25   S    
C37   H34   S    
C11   C16   S    
C2    O2    A    
C27   C28   S    
C12   C15   S    
C29   H11   S    
N2    Zn1   S    
O3    Zn2   S    
C28   C29   S    
C20   C22   A    
C36   H36   S    
C13   C15   A    
C9    H8    S    
C14   C16   A    
C33   H28   S    
O1    Zn1   S    
O8    Zn1   S    
C5    C7    D    
C31   H19   S    
C15   C17   A    
C32   H18   S    
C7    H6    S    
C8    H5    S    
C3    C33   S    
C30   H21   S    
C38   H32   S    
C4    C26   A    
C21   C23   A    
C34   H26   S    
C4    C36   S    
C12   O8    A    
C30   C31   S    
C20   C26   A    
C17   C19   A    
C11   O5    A    
C10   H7    S    
C22   C24   A    
C35   H23   S    
C19   C25   A    
C26   C30   S    
O2    Zn2   S    
C1    O3    A    
C38   H30   S    
N1    F4    S    
C2    O4    A    
O4    Zn1   S    
C16   C18   A    
C29   H9    S    
C9    N1    D    
O5    Zn1   S    
C13   H1    S    
C10   N2    D    
C33   H29   S    
C14   H2    S    
N1    Zn2   S    
C27   H15   S    
