data_mof_unit_53539.cif
_audit_creation_date              2012-12-10T17:21:41-0500
_audit_creation_method            fapswitch 2.2
_symmetry_space_group_name_H-M    P1
_symmetry_Int_Tables_number       1
_space_group_crystal_system       triclinic
_cell_length_a                    10.729673
_cell_length_b                    10.85373
_cell_length_c                    9.584884
_cell_angle_alpha                 90.589703
_cell_angle_beta                  89.832541
_cell_angle_gamma                 92.700829
_cell_volume                      1114.92429665

loop_
_atom_site_label
_atom_site_type_symbol
_atom_type_description
_atom_site_fract_x
_atom_site_fract_y
_atom_site_fract_z
_atom_type_partial_charge
C1    C     C_R   0.509711 0.263238 0.499609 0.797710
C2    C     C_3   0.878179 0.500736 0.501429 0.169893
C3    C     C_3   0.934153 0.617392 0.427985 -0.398791
C4    C     C_3   0.922491 0.384766 0.423993 -0.376689
C5    C     C_R   0.604323 0.126097 0.741519 -0.195230
C6    C     C_R   0.602981 0.069928 0.872178 0.137430
C7    C     C_R   0.539581 0.955698 0.887374 -0.175759
C8    C     C_R   0.493027 0.891902 0.770187 -0.206478
C9    C     C_R   0.508956 0.941428 0.634542 0.093896
C10   C     C_R   0.545764 0.067104 0.625125 0.066871
C11   C     C_R   0.521373 0.129680 0.500076 -0.112249
C12   C     C_R   0.259916 0.499675 0.500384 0.758431
C13   C     C_R   0.491252 0.062474 0.378534 -0.223711
C14   C     C_R   0.481652 0.935111 0.381232 -0.223259
C15   C     C_R   0.489875 0.872652 0.507895 -0.110593
C16   C     C_R   0.667638 0.662830 0.145343 -0.161730
C17   C     C_R   0.750541 0.741299 0.073607 -0.234269
C18   C     C_R   0.751012 0.740662 0.929870 -0.208533
C19   C     C_R   0.667969 0.662210 0.857072 -0.155360
C20   C     C_R   0.582585 0.579786 0.925789 0.195032
C21   C     C_R   0.582486 0.579901 0.075431 0.210401
C22   C     C_R   0.421941 0.423557 0.073300 -0.084891
C23   C     C_R   0.494002 0.737745 0.501904 0.778701
C24   C     C_R   0.421934 0.423637 0.925300 -0.077754
C25   C     C_R   0.740113 0.500661 0.500221 0.729899
C26   C     C_3   0.070979 0.498976 0.653491 -0.371167
C27   C     C_3   0.928294 0.499802 0.653474 -0.366019
C28   C     C_3   0.078016 0.617232 0.428513 -0.371474
C29   C     C_3   0.066262 0.384283 0.423632 -0.383292
C30   C     C_3   0.121888 0.500030 0.501484 0.157651
Cu1   Cu    Cu3+1 0.499990 0.499990 0.640660 0.909442
Cu2   Cu    Cu3+1 0.500010 0.500010 0.359340 0.917496
H1    H     H_    0.109304 0.581184 0.712398 0.169308
H2    H     H_    0.888489 0.384324 0.314788 0.180389
H3    H     H_    0.113063 0.620741 0.319136 0.172814
H4    H     H_    0.900887 0.620068 0.318286 0.171335
H5    H     H_    0.474445 0.108275 0.280957 0.157006
H6    H     H_    0.653498 0.214930 0.731530 0.154649
H7    H     H_    0.529584 0.913791 0.989148 0.142392
H8    H     H_    0.441015 0.806491 0.789876 0.177560
H9    H     H_    0.464812 0.885624 0.283834 0.162872
H10   H     H_    0.358013 0.360891 0.128100 0.133227
H11   H     H_    0.100511 0.415391 0.708611 0.164228
H12   H     H_    0.674699 0.671567 0.255336 0.200147
H13   H     H_    0.814469 0.803560 0.130279 0.147371
H14   H     H_    0.814953 0.802721 0.873991 0.142080
H15   H     H_    0.673788 0.671718 0.747210 0.201386
H16   H     H_    0.357986 0.361034 0.869405 0.139545
H17   H     H_    0.889523 0.416977 0.709311 0.168296
H18   H     H_    0.898743 0.582791 0.711677 0.168123
H19   H     H_    0.116648 0.701318 0.483599 0.147772
H20   H     H_    0.902980 0.701888 0.482003 0.142851
H21   H     H_    0.100530 0.382422 0.313921 0.169954
H22   H     H_    0.096668 0.299171 0.474799 0.149087
H23   H     H_    0.882969 0.299730 0.474744 0.144159
N1    N     N_R   0.501200 0.501210 0.147910 -0.196445
N2    N     N_R   0.501250 0.501290 0.852040 -0.201169
O1    O     O_R   0.499990 0.319640 0.618810 -0.582680
O2    O     O_R   0.500000 0.319660 0.381240 -0.579590
O3    O     O_R   0.317680 0.499970 0.618790 -0.586677
O4    O     O_R   0.317700 0.499990 0.381210 -0.582917
O5    O     O_R   0.500000 0.680340 0.618760 -0.609835
O6    O     O_R   0.500010 0.680360 0.381190 -0.596688
O7    O     O_R   0.682300 0.500010 0.618790 -0.608985
O8    O     O_R   0.682320 0.500030 0.381210 -0.599646
C31   C     C_3   0.666334 0.133956 0.994679 -0.408781
C32   C     C_3   0.808577 0.133027 0.978752 -0.337629
C33   C     C_3   0.873951 0.207526 0.094937 -0.870379
H24   H     H_    0.849920 0.305741 0.088021 0.254284
H25   H     H_    0.845454 0.170597 0.198545 0.255966
H26   H     H_    0.976642 0.202181 0.083701 0.235574
H27   H     H_    0.838415 0.036351 0.981921 0.216878
H28   H     H_    0.838150 0.173365 0.877050 0.207884
H29   H     H_    0.635878 0.230415 0.001750 0.206222
H30   H     H_    0.638817 0.087269 0.093581 0.192456

loop_
_geom_bond_atom_site_label_1
_geom_bond_atom_site_label_2
_ccdc_geom_bond_type
C16   C21   A    
C19   C20   A    
C1    C11   S    
C7    C8    A    
C26   C27   S    
Cu1   O1    S    
C3    C28   S    
C17   H13   S    
Cu2   O4    S    
C18   C19   A    
C1    O2    A    
C5    C6    A    
C28   H19   S    
C19   H15   S    
C16   C17   A    
C29   H22   S    
C31   H29   S    
C32   H27   S    
C33   H24   S    
C23   O5    A    
C28   H3    S    
C8    C9    A    
C2    C27   S    
C32   H28   S    
C9    C10   A    
C16   H12   S    
C13   H5    S    
C4    C29   S    
C27   H18   S    
C15   C23   S    
C31   C32   S    
C13   C14   A    
Cu1   O5    S    
C18   H14   S    
C26   H11   S    
C4    H2    S    
C32   C33   S    
C24   H16   S    
C25   O8    A    
C24   N2    A    
C22   N1    A    
C25   O7    A    
Cu1   O3    S    
C2    C4    S    
C29   C30   S    
C26   H1    S    
Cu1   Cu2   S    
C17   C18   A    
C14   H9    S    
C26   C30   S    
C4    H23   S    
C22   C24   A    
C12   C30   S    
Cu1   O7    S    
Cu2   O6    S    
C21   N1    A    
C3    H20   S    
C6    C7    A    
Cu1   N2    S    
C28   C30   S    
C2    C3    S    
C9    C15   A    
C5    C10   A    
C1    O1    A    
C12   O4    A    
C11   C13   A    
C22   H10   S    
C29   H21   S    
C3    H4    S    
C33   H26   S    
C31   H30   S    
C23   O6    A    
C2    C25   S    
C10   C11   A    
C12   O3    A    
C6    C31   S    
C20   C21   A    
C33   H25   S    
C7    H7    S    
C14   C15   A    
C8    H8    S    
Cu2   O2    S    
C20   N2    A    
C5    H6    S    
Cu2   N1    S    
C27   H17   S    
Cu2   O8    S    
