data_mof_unit_42543.cif
_audit_creation_date              2012-12-11T15:41:19-0500
_audit_creation_method            fapswitch 2.2
_symmetry_space_group_name_H-M    P1
_symmetry_Int_Tables_number       1
_space_group_crystal_system       triclinic
_cell_length_a                    19.049706
_cell_length_b                    11.004698
_cell_length_c                    18.856141
_cell_angle_alpha                 89.940048
_cell_angle_beta                  90.037793
_cell_angle_gamma                 89.993076
_cell_volume                      3952.92785281

loop_
_atom_site_label
_atom_site_type_symbol
_atom_type_description
_atom_site_fract_x
_atom_site_fract_y
_atom_site_fract_z
_atom_type_partial_charge
C1    C     C_R   0.725946 0.957754 0.854370 0.553953
C2    C     C_R   0.311930 0.421456 0.032480 -0.029627
C3    C     C_R   0.760819 0.861911 0.353757 0.556670
C4    C     C_2   0.499582 0.169735 0.921729 -0.101886
C5    C     C_2   0.503470 0.172696 0.079761 -0.090940
C6    C     C_2   0.999582 0.669735 0.921728 -0.102124
C7    C     C_2   0.003469 0.672701 0.079760 -0.090864
C8    C     C_2   0.497884 0.073468 0.039441 -0.126539
C9    C     C_2   0.514861 0.074877 0.963713 -0.125922
C10   C     C_2   0.997891 0.573470 0.039442 -0.126425
C11   C     C_2   0.014868 0.574882 0.963714 -0.125936
C12   C     C_R   0.763120 0.432780 0.070899 0.015584
C13   C     C_R   0.189675 0.911360 0.968309 -0.007712
C14   C     C_R   0.240907 0.418863 0.926337 0.014419
C15   C     C_R   0.263114 0.932746 0.070904 0.015393
C16   C     C_R   0.740904 0.918893 0.926346 0.014325
C17   C     C_2   0.881032 0.406785 0.910635 0.575940
C18   C     C_2   0.118883 0.374643 0.080607 0.568306
C19   C     C_2   0.381023 0.906775 0.910639 0.576061
C20   C     C_2   0.618878 0.874638 0.080611 0.568335
C21   C     C_2   0.614644 0.589146 0.925132 0.592825
C22   C     C_2   0.346120 0.623988 0.083260 0.595208
C23   C     C_2   0.114668 0.089162 0.925117 0.592865
C24   C     C_R   0.811922 0.921541 0.032496 -0.029429
C25   C     C_2   0.845960 0.124106 0.083318 0.594996
C26   C     C_R   0.815923 0.412666 0.953602 0.016576
C27   C     C_R   0.186196 0.386059 0.041229 0.034131
C28   C     C_R   0.315917 0.912636 0.953609 0.016681
C29   C     C_R   0.686191 0.886067 0.041235 0.034232
C30   C     C_R   0.822240 0.418667 0.027138 -0.119691
C31   C     C_R   0.183171 0.383186 0.967811 -0.133128
C32   C     C_R   0.322233 0.918618 0.027144 -0.119756
C33   C     C_R   0.275106 0.960958 0.144675 0.536382
C34   C     C_R   0.683171 0.883190 0.967817 -0.133204
C35   C     C_3   0.630557 0.495639 0.048104 -0.247750
C36   C     C_3   0.356430 0.539314 0.957328 -0.222306
C37   C     C_3   0.130564 0.995670 0.048098 -0.247769
C38   C     C_3   0.856356 0.039521 0.957366 -0.222337
C39   C     C_3   0.619728 0.474526 0.968547 -0.048213
C40   C     C_3   0.366874 0.519051 0.036572 -0.048453
C41   C     C_3   0.119734 0.974551 0.968542 -0.048222
C42   C     C_3   0.866803 0.019246 0.036607 -0.048494
C43   C     C_R   0.748022 0.412131 0.922853 0.054188
C44   C     C_R   0.225950 0.457742 0.854365 0.553740
C45   C     C_R   0.252044 0.404288 0.074839 0.047022
C46   C     C_R   0.248018 0.912114 0.922858 0.054193
C47   C     C_R   0.752036 0.904309 0.074847 0.047261
C48   C     C_R   0.477847 0.169591 0.433174 0.019969
C49   C     C_R   0.489653 0.171219 0.580186 0.022569
C50   C     C_R   0.980480 0.669710 0.432293 0.018150
C51   C     C_R   0.991123 0.671072 0.579438 0.021572
C52   C     C_R   0.472655 0.277685 0.470791 0.037999
C53   C     C_R   0.477612 0.279464 0.542892 0.029067
C54   C     C_R   0.975254 0.777784 0.469984 0.034929
C55   C     C_R   0.775109 0.460967 0.144673 0.536247
C56   C     C_R   0.979745 0.779451 0.542060 0.026489
C57   C     C_R   0.479253 0.060319 0.545049 -0.154599
C58   C     C_R   0.474129 0.059315 0.470962 -0.154718
C59   C     C_R   0.981815 0.560055 0.543987 -0.165527
C60   C     C_R   0.977494 0.559315 0.469910 -0.161959
C61   C     C_R   0.530470 0.177905 0.851011 0.556222
C62   C     C_R   0.470234 0.178263 0.149450 0.564860
C63   C     C_R   0.030470 0.677905 0.851011 0.556809
C64   C     C_R   0.970233 0.678264 0.149449 0.564209
C65   C     C_3   0.512035 0.393260 0.460695 -0.276741
C66   C     C_R   0.697129 0.426027 0.040123 -0.027030
C67   C     C_3   0.518039 0.396802 0.540328 -0.268998
C68   C     C_3   0.014806 0.893365 0.460217 -0.279459
C69   C     C_3   0.020316 0.896855 0.539918 -0.269217
C70   C     C_R   0.762191 0.437333 0.429618 0.018071
C71   C     C_R   0.248950 0.402988 0.579785 0.017598
C72   C     C_R   0.262916 0.941472 0.430261 0.014641
C73   C     C_R   0.738902 0.932992 0.571752 0.021088
C74   C     C_R   0.818779 0.393339 0.468951 0.040613
C75   C     C_R   0.200395 0.332593 0.541842 0.032482
C76   C     C_R   0.318068 0.891193 0.468859 0.036638
C77   C     C_R   0.305326 0.436505 0.959884 -0.035262
C78   C     C_R   0.679696 0.917347 0.528837 0.043506
C79   C     C_R   0.816005 0.384629 0.541490 0.029478
C80   C     C_R   0.204728 0.322468 0.469503 0.035616
C81   C     C_R   0.315076 0.880674 0.541201 0.028637
C82   C     C_R   0.684471 0.910248 0.456261 0.020215
C83   C     C_R   0.703422 0.483721 0.541098 -0.168532
C84   C     C_R   0.313132 0.433629 0.469877 -0.160470
C85   C     C_R   0.205747 0.990435 0.542358 -0.164031
C86   C     C_R   0.808791 0.948350 0.464822 -0.164762
C87   C     C_R   0.705986 0.490346 0.466736 -0.166547
C88   C     C_R   0.197122 0.926013 0.040127 -0.027069
C89   C     C_R   0.309503 0.442789 0.544132 -0.166231
C90   C     C_R   0.209064 0.000705 0.468099 -0.161750
C91   C     C_R   0.803412 0.956078 0.538789 -0.174681
C92   C     C_3   0.858535 0.277487 0.460792 -0.276232
C93   C     C_3   0.121770 0.337803 0.538759 -0.270494
C94   C     C_3   0.354264 0.772327 0.459225 -0.278563
C95   C     C_3   0.623563 0.823044 0.532430 -0.266608
C96   C     C_3   0.856536 0.267858 0.540760 -0.270363
C97   C     C_3   0.127226 0.326340 0.459112 -0.278934
C98   C     C_3   0.351099 0.759672 0.538960 -0.271724
C99   C     C_R   0.805318 0.936603 0.959898 -0.035264
C100  C     C_3   0.626770 0.818226 0.452331 -0.268745
C101  C     C_R   0.755337 0.418845 0.578331 0.020545
C102  C     C_R   0.257228 0.381339 0.431488 0.013927
C103  C     C_R   0.255659 0.919240 0.578576 0.018856
C104  C     C_R   0.749947 0.915509 0.423335 0.015730
C105  C     C_R   0.738336 0.364836 0.851973 0.602496
C106  C     C_R   0.261781 0.363301 0.147271 0.576141
C107  C     C_R   0.238335 0.864833 0.851974 0.602632
C108  C     C_R   0.761780 0.863305 0.147273 0.575169
C109  C     C_R   0.726867 0.957604 0.646403 0.548005
C110  C     C_R   0.689682 0.411373 0.968308 -0.007640
C111  C     C_R   0.274132 0.960993 0.354834 0.543345
C112  C     C_R   0.228085 0.454043 0.647947 0.546170
C113  C     C_R   0.773684 0.459421 0.354382 0.543669
C114  C     C_R   0.528265 0.176731 0.646035 0.550994
C115  C     C_R   0.465638 0.176404 0.357912 0.549653
C116  C     C_R   0.028555 0.676707 0.645854 0.548788
C117  C     C_R   0.966593 0.676366 0.357395 0.548673
C118  C     C_R   0.740055 0.363204 0.646807 0.553701
C119  C     C_R   0.262319 0.355926 0.356013 0.550924
C120  C     C_R   0.240056 0.863328 0.646873 0.552385
Cr1   Cr    Cr6+3 0.769260 0.163750 0.750730 1.039270
Cr2   Cr    Cr6+3 0.385810 0.322400 0.252290 1.042012
Cr3   Cr    Cr6+3 0.114190 0.822400 0.747710 1.040404
Cr4   Cr    Cr6+3 0.885810 0.822400 0.252290 1.041646
Cr5   Cr    Cr6+3 0.230740 0.163750 0.249270 1.042601
Cr6   Cr    Cr6+3 0.269260 0.663750 0.750730 1.038401
Cr7   Cr    Cr6+3 0.730740 0.663750 0.249270 1.040760
Cr8   Cr    Cr6+3 0.612640 0.009910 0.748780 1.023602
Cr9   Cr    Cr6+3 0.387360 0.009910 0.251220 1.058519
Cr10  Cr    Cr6+3 0.112640 0.509910 0.748780 1.019976
Cr11  Cr    Cr6+3 0.887360 0.509910 0.251220 1.059228
Cr12  Cr    Cr6+3 0.614190 0.322400 0.747710 1.040521
H1    H     H_    0.481163 0.988461 0.062527 0.182842
H2    H     H_    0.488930 0.473591 0.564828 0.129238
H3    H     H_    0.066144 0.879610 0.433323 0.140260
H4    H     H_    0.990914 0.973582 0.564142 0.128216
H5    H     H_    0.658414 0.520212 0.568642 0.116589
H6    H     H_    0.358055 0.470857 0.442539 0.132238
H7    H     H_    0.161732 0.029904 0.570324 0.123279
H8    H     H_    0.860028 0.957909 0.441012 0.140609
H9    H     H_    0.663102 0.532000 0.438305 0.118206
H10   H     H_    0.350905 0.489346 0.572488 0.122585
H11   H     H_    0.168697 0.051028 0.440434 0.131636
H12   H     H_    0.539789 0.994786 0.942041 0.195949
H13   H     H_    0.849654 0.976489 0.570021 0.123366
H14   H     H_    0.912269 0.291127 0.439515 0.136207
H15   H     H_    0.101309 0.427555 0.555329 0.166265
H16   H     H_    0.408604 0.782464 0.438736 0.135442
H17   H     H_    0.573382 0.858806 0.552907 0.139242
H18   H     H_    0.827353 0.206035 0.433526 0.145817
H19   H     H_    0.096719 0.257836 0.564443 0.130505
H20   H     H_    0.321305 0.704807 0.430661 0.141995
H21   H     H_    0.641844 0.738144 0.558451 0.137936
H22   H     H_    0.825007 0.189794 0.559445 0.170127
H23   H     H_    0.981178 0.488459 0.062529 0.182885
H24   H     H_    0.105748 0.239373 0.438620 0.136063
H25   H     H_    0.315811 0.685396 0.556097 0.164930
H26   H     H_    0.643944 0.728849 0.432315 0.159837
H27   H     H_    0.909081 0.277178 0.565846 0.128486
H28   H     H_    0.109675 0.409060 0.430163 0.143339
H29   H     H_    0.403595 0.761572 0.564739 0.129410
H30   H     H_    0.579031 0.855218 0.426230 0.134241
H31   H     H_    0.523746 0.256561 0.057267 0.092490
H32   H     H_    0.472776 0.248939 0.942947 0.099529
H33   H     H_    0.023739 0.756570 0.057266 0.092542
H34   H     H_    0.039807 0.494798 0.942044 0.196015
H35   H     H_    0.972769 0.748934 0.942944 0.099553
H36   H     H_    0.874098 0.418906 0.049956 0.166006
H37   H     H_    0.132640 0.366702 0.943597 0.192438
H38   H     H_    0.374093 0.918845 0.049960 0.166022
H39   H     H_    0.632643 0.866684 0.943600 0.192387
H40   H     H_    0.140534 0.091778 0.063103 0.194997
H41   H     H_    0.830929 0.127478 0.943620 0.186206
H42   H     H_    0.640506 0.591752 0.063116 0.195048
H43   H     H_    0.331060 0.627311 0.943572 0.186279
H44   H     H_    0.591690 0.447105 0.081664 0.130231
H45   H     H_    0.982099 0.967826 0.438111 0.136696
H46   H     H_    0.403781 0.516582 0.925586 0.152914
H47   H     H_    0.091684 0.947170 0.081658 0.130200
H48   H     H_    0.903729 0.016899 0.925626 0.153005
H49   H     H_    0.576265 0.409976 0.957180 0.102969
H50   H     H_    0.419587 0.481172 0.049423 0.123012
H51   H     H_    0.076262 0.910018 0.957177 0.102969
H52   H     H_    0.919542 0.981471 0.049457 0.123104
H53   H     H_    0.480995 0.975479 0.573869 0.121066
H54   H     H_    0.469815 0.973456 0.443529 0.128866
H55   H     H_    0.984766 0.474655 0.572336 0.123646
H56   H     H_    0.075307 0.886489 0.557965 0.169094
H57   H     H_    0.974574 0.473503 0.442272 0.132419
H58   H     H_    0.931182 0.455314 0.820819 0.343485
H59   H     H_    0.024789 0.291380 0.088872 0.360533
H60   H     H_    0.431180 0.955425 0.820853 0.343292
H61   H     H_    0.524784 0.791378 0.088863 0.360668
H62   H     H_    0.657006 0.697191 0.850256 0.348315
H63   H     H_    0.266329 0.711403 0.131072 0.341163
H64   H     H_    0.157063 0.197189 0.850252 0.348452
H65   H     H_    0.766057 0.211410 0.131024 0.341057
H66   H     H_    0.479221 0.467649 0.438731 0.137911
H67   H     H_    0.572972 0.385608 0.557977 0.169352
H68   H     H_    0.563136 0.379303 0.433424 0.140086
O1    O     O_R   0.784290 0.290360 0.830540 -0.502090
O2    O     O_R   0.456020 0.282110 0.333230 -0.518847
O3    O     O_R   0.043980 0.782110 0.666770 -0.523596
O4    O     O_R   0.956020 0.782110 0.333230 -0.518854
O5    O     O_R   0.679070 0.374030 0.674430 -0.508328
O6    O     O_R   0.320930 0.374030 0.325570 -0.506506
O7    O     O_R   0.179070 0.874030 0.674430 -0.508893
O8    O     O_R   0.820930 0.874030 0.325570 -0.507638
O9    O     O_3   0.665360 0.165350 0.749070 -0.263379
O10   O     O_3   0.334640 0.165350 0.250930 -0.273394
O11   O     O_3   0.165360 0.665350 0.749070 -0.262384
O12   O     O_R   0.215710 0.290360 0.169460 -0.492013
O13   O     O_3   0.834640 0.665350 0.250930 -0.270870
O14   O     O_R   0.762610 0.041070 0.825230 -0.500469
O15   O     O_R   0.237390 0.041070 0.174770 -0.506960
O16   O     O_R   0.262610 0.541070 0.825230 -0.500632
O17   O     O_R   0.737390 0.541070 0.174770 -0.507059
O18   O     O_R   0.667390 0.924160 0.829970 -0.537544
O19   O     O_R   0.332610 0.924160 0.170030 -0.496696
O20   O     O_R   0.167390 0.424160 0.829970 -0.537154
O21   O     O_R   0.832610 0.424160 0.170030 -0.496727
O22   O     O_R   0.553980 0.081420 0.821780 -0.504236
O23   O     O_R   0.284290 0.790360 0.830540 -0.502030
O24   O     O_R   0.446020 0.081420 0.178220 -0.482936
O25   O     O_R   0.053980 0.581420 0.821780 -0.503224
O26   O     O_R   0.946020 0.581420 0.178220 -0.483453
O27   O     O_R   0.543210 0.283170 0.826740 -0.515709
O28   O     O_R   0.456790 0.283170 0.173260 -0.520063
O29   O     O_R   0.043210 0.783170 0.826740 -0.515472
O30   O     O_R   0.956790 0.783170 0.173260 -0.520266
O31   O     O_R   0.678350 0.375000 0.822720 -0.482334
O32   O     O_R   0.321650 0.375000 0.177280 -0.497347
O33   O     O_R   0.178350 0.875000 0.822720 -0.482179
O34   O     O_R   0.715710 0.790360 0.169460 -0.492258
O35   O     O_R   0.821650 0.875000 0.177280 -0.498128
O36   O     O_R   0.785060 0.289300 0.670580 -0.516979
O37   O     O_R   0.214940 0.289300 0.329420 -0.508810
O38   O     O_R   0.285060 0.789300 0.670580 -0.515967
O39   O     O_R   0.714940 0.789300 0.329420 -0.514463
O40   O     O_R   0.763330 0.040090 0.676940 -0.509872
O41   O     O_R   0.236670 0.040090 0.323060 -0.509817
O42   O     O_R   0.263330 0.540090 0.676940 -0.510120
O43   O     O_R   0.736670 0.540090 0.323060 -0.509657
O44   O     O_R   0.668160 0.923110 0.670000 -0.514709
O45   O     O_R   0.554690 0.080440 0.673480 -0.507103
O46   O     O_R   0.331840 0.923110 0.330000 -0.512320
O47   O     O_R   0.168160 0.423110 0.670000 -0.519448
O48   O     O_R   0.831840 0.423110 0.330000 -0.511838
O49   O     O_2   0.930682 0.345526 0.931057 -0.498346
O50   O     O_R   0.885133 0.469790 0.846324 -0.680842
O51   O     O_2   0.108804 0.434895 0.134143 -0.500273
O52   O     O_R   0.066779 0.295750 0.055988 -0.680542
O53   O     O_2   0.430628 0.845392 0.930987 -0.498259
O54   O     O_R   0.385156 0.969920 0.846392 -0.680979
O55   O     O_2   0.608803 0.934856 0.134161 -0.499961
O56   O     O_R   0.445310 0.080440 0.326520 -0.504385
O57   O     O_R   0.566770 0.795766 0.055977 -0.680498
O58   O     O_2   0.560365 0.648280 0.926767 -0.466653
O59   O     O_R   0.669816 0.625280 0.881111 -0.696827
O60   O     O_2   0.390597 0.674212 0.119606 -0.512030
O61   O     O_R   0.275715 0.658745 0.088168 -0.705667
O62   O     O_2   0.060385 0.148286 0.926715 -0.466691
O63   O     O_R   0.169862 0.125296 0.881125 -0.696736
O64   O     O_2   0.890361 0.174232 0.119817 -0.511973
O65   O     O_R   0.775542 0.158866 0.088087 -0.705714
O66   O     O_R   0.054690 0.580440 0.673480 -0.512686
O67   O     O_R   0.945310 0.580440 0.326520 -0.503666
O68   O     O_R   0.543980 0.282110 0.666770 -0.525085

loop_
_geom_bond_atom_site_label_1
_geom_bond_atom_site_label_2
_ccdc_geom_bond_type
C3    C104  S    
C7    C10   D    
C83   C87   A    
Cr7   O39   S    
Cr8   O18   S    
C80   C97   S    
C58   H54   S    
C50   C117  S    
C84   C102  A    
Cr2   O6    S    
C37   C88   S    
C103  C120  S    
C44   O20   A    
C4    H32   S    
H58   O50   S    
C14   C31   A    
C72   C76   A    
C86   C104  A    
C98   H29   S    
C37   H40   S    
C64   O26   A    
C33   O15   A    
C112  O47   A    
C49   C57   A    
C15   C32   A    
C55   O17   A    
C71   C112  S    
C45   C106  S    
C56   C69   S    
C28   C46   A    
C86   C91   A    
C61   O27   A    
C41   H51   S    
C20   C29   S    
Cr4   O4    S    
C101  C118  S    
C105  O31   A    
H63   O61   S    
C38   C42   S    
Cr10  O20   S    
C116  O66   A    
C36   C77   S    
C111  O46   A    
C3    O8    A    
C13   C46   A    
C49   C53   A    
C21   O58   D    
C97   H24   S    
C114  O45   A    
Cr11  O13   S    
C81   C98   S    
C94   C98   S    
C22   O61   S    
C94   H20   S    
C89   H10   S    
C24   C99   A    
C115  O2    A    
C68   H45   S    
C92   C96   S    
C67   H67   S    
C24   C42   S    
Cr3   O7    S    
C51   C56   A    
C43   C105  S    
C14   C77   A    
C74   C92   S    
C61   O22   A    
C16   C34   A    
Cr3   O33   S    
Cr4   O35   S    
Cr5   O12   S    
C39   C110  S    
C96   H22   S    
C115  O56   A    
Cr10  O25   S    
C18   O52   S    
C60   H57   S    
C65   C67   S    
Cr3   O11   S    
C70   C74   A    
C11   H34   S    
H61   O57   S    
C73   C78   A    
C98   H25   S    
C2    C40   S    
Cr5   O41   S    
C1    O18   A    
C95   H17   S    
C43   C110  A    
Cr1   O9    S    
Cr11  O67   S    
C117  O4    A    
C75   C80   A    
C18   O51   D    
C57   H53   S    
C90   H11   S    
C85   C103  A    
C113  O48   A    
C86   H8    S    
C20   O57   S    
Cr9   O46   S    
C76   C94   S    
C27   C45   A    
C112  O42   A    
C49   C114  S    
C107  O33   A    
C72   C111  S    
C84   H6    S    
C59   C60   A    
C2    C45   A    
C85   H7    S    
Cr8   O45   S    
Cr4   O8    S    
H65   O65   S    
C35   H42   S    
Cr10  O11   S    
Cr9   O24   S    
C70   C87   A    
C13   C41   S    
C9    H12   S    
C19   O53   D    
C26   C43   A    
C40   H50   S    
Cr4   O13   S    
C33   O19   A    
C70   C113  S    
C94   H16   S    
C37   H47   S    
C54   C56   A    
C71   C75   A    
C38   H48   S    
Cr12  O9    S    
C27   C31   A    
C97   H28   S    
C17   O50   S    
C36   C40   S    
C67   H2    S    
C36   H46   S    
C73   C91   A    
C63   O25   A    
Cr11  O48   S    
Cr12  O27   S    
Cr8   O22   S    
C6    C11   D    
C119  O6    A    
C25   O64   D    
C95   C100  S    
C8    C9    S    
C38   H41   S    
Cr7   O13   S    
C31   H37   S    
C35   C66   S    
C22   O60   D    
C92   H14   S    
C4    C61   S    
C83   H5    S    
C87   H9    S    
C80   C102  A    
C95   H21   S    
C6    C63   S    
C76   C81   A    
C35   C39   S    
C5    H31   S    
Cr6   O42   S    
C109  O44   A    
C114  O68   A    
Cr8   O9    S    
Cr12  O68   S    
C65   H68   S    
C72   C90   A    
C78   C82   A    
C19   O54   S    
C105  O1    A    
Cr3   O29   S    
Cr9   O56   S    
C28   C32   A    
C78   C95   S    
Cr10  O47   S    
Cr1   O36   S    
C22   C40   S    
C46   C107  S    
C118  O5    A    
Cr2   O10   S    
H59   O52   S    
C10   H23   S    
Cr7   O43   S    
Cr11  O21   S    
C1    C16   S    
C50   C54   A    
C66   C110  A    
C59   H55   S    
C19   C28   S    
C69   H56   S    
C117  O67   A    
Cr6   O16   S    
C71   C89   A    
C39   H49   S    
Cr5   O10   S    
C119  O37   A    
Cr12  O5    S    
C29   C47   A    
C26   C30   A    
C69   H4    S    
C62   O24   A    
C74   C79   A    
C48   C115  S    
C92   H18   S    
Cr8   O44   S    
C93   H19   S    
C51   C59   A    
C84   C89   A    
C35   H44   S    
Cr6   O38   S    
Cr12  O31   S    
C93   C97   S    
C91   H13   S    
C116  O3    A    
Cr5   O37   S    
C52   C53   A    
Cr7   O17   S    
C20   O55   D    
C14   C44   S    
C81   C103  A    
C109  O40   A    
C34   H39   S    
C118  O36   A    
C32   H38   S    
C6    H35   S    
Cr7   O34   S    
C83   C101  A    
C12   C30   A    
C8    H1    S    
C44   O16   A    
C24   C47   A    
C82   C100  S    
C21   C39   S    
C68   C69   S    
H64   O63   S    
C21   O59   S    
C18   C27   S    
C38   C99   S    
C120  O7    A    
C23   C41   S    
C25   C42   S    
C5    C8    D    
C25   O65   S    
C85   C90   A    
C16   C99   A    
C48   C58   A    
C7    H33   S    
C113  O43   A    
Cr3   O3    S    
C23   O63   S    
Cr1   O40   S    
Cr2   O32   S    
H60   O54   S    
C51   C116  S    
C23   O62   D    
C55   O21   A    
Cr6   O11   S    
C42   H52   S    
Cr1   O14   S    
Cr2   O2    S    
Cr9   O10   S    
C50   C60   A    
C79   C96   S    
Cr9   O19   S    
C2    C77   A    
Cr6   O23   S    
C64   O30   A    
Cr5   O15   S    
Cr11  O26   S    
C57   C58   A    
C12   C66   A    
C68   H3    S    
C75   C93   S    
C62   O28   A    
C29   C34   A    
C13   C88   A    
C17   O49   D    
C17   C26   S    
C5    C62   S    
C93   H15   S    
C63   O29   A    
C73   C109  S    
C37   C41   S    
Cr2   O28   S    
C53   C67   S    
C7    C64   S    
C108  O35   A    
C12   C55   S    
C10   C11   S    
C102  C119  S    
Cr1   O1    S    
C65   H66   S    
Cr10  O66   S    
C107  O23   A    
C100  H26   S    
H62   O59   S    
C96   H27   S    
C54   C68   S    
C36   H43   S    
C111  O41   A    
C47   C108  S    
C3    O39   A    
C1    O14   A    
C106  O32   A    
C108  O34   A    
C82   C104  A    
C79   C101  A    
C100  H30   S    
C4    C9    D    
C48   C52   A    
C106  O12   A    
C15   C33   S    
Cr4   O30   S    
C52   C65   S    
C30   H36   S    
C120  O38   A    
C15   C88   A    
