data_mof_unit_28835.cif
_audit_creation_date              2012-12-10T17:32:14-0500
_audit_creation_method            fapswitch 2.2
_symmetry_space_group_name_H-M    P1
_symmetry_Int_Tables_number       1
_space_group_crystal_system       triclinic
_cell_length_a                    12.291307
_cell_length_b                    13.162925
_cell_length_c                    14.962141
_cell_angle_alpha                 79.126141
_cell_angle_beta                  100.168751
_cell_angle_gamma                 116.603893
_cell_volume                      2113.84268506

loop_
_atom_site_label
_atom_site_type_symbol
_atom_type_description
_atom_site_fract_x
_atom_site_fract_y
_atom_site_fract_z
_atom_type_partial_charge
C1    C     C_R   0.854671 0.286789 0.512757 0.788928
C2    C     C_R   0.014770 0.601229 0.079258 0.114121
C3    C     C_R   0.998956 0.311885 0.077101 -0.200694
C4    C     C_R   0.995783 0.311191 0.983586 -0.176629
C5    C     C_R   0.000924 0.407129 0.921702 0.114652
C6    C     C_R   0.010070 0.505162 0.953789 0.057901
C7    C     C_R   0.018338 0.603269 0.892106 0.113970
C8    C     C_R   0.025417 0.699473 0.924495 -0.163235
C9    C     C_R   0.022509 0.698068 0.017524 -0.201664
C10   C     C_R   0.996179 0.406657 0.828097 -0.178634
C11   C     C_R   0.001868 0.503105 0.767123 -0.013777
C12   C     C_R   0.000153 0.501539 0.670604 0.831850
C13   C     C_R   0.017766 0.602602 0.798939 -0.140448
C14   C     C_R   0.298453 0.993817 0.346350 -0.189192
C15   C     C_R   0.228089 0.832897 0.463423 -0.038301
C16   C     C_R   0.805461 0.103707 0.609905 -0.171354
C17   C     C_R   0.724456 0.993898 0.639905 -0.136468
C18   C     C_R   0.606017 0.943627 0.595635 0.010269
C19   C     C_R   0.565647 0.007770 0.519533 0.001211
C20   C     C_R   0.654867 0.115916 0.483962 0.063978
C21   C     C_R   0.442302 0.971043 0.476509 0.074170
C22   C     C_R   0.417010 0.032085 0.392402 0.158417
C23   C     C_R   0.145173 0.713174 0.486789 0.789418
C24   C     C_R   0.509963 0.130269 0.354276 -0.226117
C25   C     C_R   0.626584 0.172212 0.399579 -0.194460
C26   C     C_R   0.341909 0.877786 0.514435 -0.176294
C27   C     C_R   0.205073 0.892745 0.380482 -0.194561
C28   C     C_R   0.772099 0.165438 0.532576 -0.072470
C29   C     C_R   0.345685 0.327643 0.642785 -0.174501
C30   C     C_R   0.750970 0.626744 0.365803 0.121126
C31   C     C_R   0.646739 0.643742 0.330251 -0.246437
C32   C     C_R   0.543234 0.591646 0.377546 -0.111969
C33   C     C_R   0.545078 0.525168 0.462725 -0.012023
C34   C     C_R   0.001909 0.500624 0.329342 0.789362
C35   C     C_R   0.655879 0.515292 0.498268 0.118715
C36   C     C_R   0.442465 0.468170 0.515370 -0.058761
C37   C     C_R   0.447128 0.387255 0.592054 0.007232
C38   C     C_R   0.558051 0.376743 0.619780 0.213531
C39   C     C_R   0.664597 0.467654 0.589529 0.368905
C40   C     C_R   0.337334 0.489648 0.496807 0.065175
C41   C     C_R   0.246774 0.355929 0.622917 0.060850
C42   C     C_R   0.010691 0.598544 0.172211 -0.240050
C43   C     C_R   0.006672 0.502631 0.233242 -0.049385
C44   C     C_R   0.005931 0.408381 0.202594 -0.245773
C45   C     C_R   0.005498 0.407887 0.109463 0.112874
C46   C     C_R   0.010441 0.504883 0.047541 0.067724
Cu1   Cu    Cu3+1 0.098270 0.475420 0.521130 0.949482
Cu2   Cu    Cu3+1 0.901730 0.524580 0.478870 0.990299
H1    H     H_    0.012293 0.671276 0.197519 0.127224
H2    H     H_    0.492024 0.176156 0.289507 0.152074
H3    H     H_    0.279396 0.039354 0.281776 0.137732
H4    H     H_    0.348389 0.836651 0.583088 0.150246
H5    H     H_    0.894657 0.141204 0.648264 0.147890
H6    H     H_    0.755563 0.946749 0.697873 0.165155
H7    H     H_    0.695425 0.248414 0.366300 0.159974
H8    H     H_    0.170340 0.312659 0.663660 0.122265
H9    H     H_    0.344439 0.264207 0.700645 0.207127
H10   H     H_    0.002239 0.334582 0.251015 0.140428
H11   H     H_    0.329289 0.551747 0.440916 0.139730
H12   H     H_    0.829101 0.664900 0.326896 0.117707
H13   H     H_    0.462781 0.602949 0.345780 0.133920
H14   H     H_    0.645203 0.695026 0.264750 0.146777
H15   H     H_    0.994938 0.236981 0.123988 0.145836
H16   H     H_    0.989242 0.235718 0.959639 0.148451
H17   H     H_    0.987441 0.331335 0.802306 0.135760
H18   H     H_    0.027076 0.678164 0.751001 0.166481
H19   H     H_    0.031415 0.775042 0.877733 0.156982
H20   H     H_    0.026440 0.772638 0.041223 0.145560
H21   H     H_    0.116994 0.858563 0.340150 0.138918
N1    N     N_R   0.246280 0.438190 0.553160 -0.192306
N2    N     N_R   0.754320 0.561190 0.447410 -0.192180
O1    O     O_R   0.972510 0.318130 0.526570 -0.589396
O2    O     O_R   0.806530 0.359650 0.490890 -0.586928
O3    O     O_R   0.082980 0.479210 0.647590 -0.600077
O4    O     O_R   0.917000 0.520730 0.611900 -0.516741
O5    O     O_R   0.193470 0.640350 0.509110 -0.569819
O6    O     O_R   0.027490 0.681870 0.473430 -0.573898
O7    O     O_R   0.083000 0.479270 0.388100 -0.587233
O8    O     O_R   0.917020 0.520790 0.352410 -0.603093
C47   C     C_2   0.536809 0.820670 0.625839 0.829856
O9    O     O_2   0.527880 0.786780 0.707372 -0.583955
O10   O     O_R   0.483354 0.743087 0.561581 -0.736105
H22   H     H_    0.435507 0.662780 0.591647 0.363217
S1    S     S_3+6 0.571782 0.268658 0.704974 0.038803
O11   O     O_2   0.696034 0.270881 0.709750 -0.290043
O12   O     O_2   0.554999 0.288322 0.796316 -0.208921
O13   O     O_3   0.463609 0.139714 0.680254 -0.524398
H23   H     H_    0.474954 0.135155 0.617445 0.334990
S2    S     S_3+6 0.729526 0.571499 0.667011 0.031468
O14   O     O_2   0.762145 0.518273 0.759361 -0.256621
O15   O     O_2   0.839942 0.673516 0.632868 -0.305713
O16   O     O_3   0.624705 0.616112 0.677865 -0.527605
H24   H     H_    0.659984 0.661905 0.729881 0.389500

loop_
_geom_bond_atom_site_label_1
_geom_bond_atom_site_label_2
_ccdc_geom_bond_type
C16   C28   A    
C21   C26   A    
C12   O3    A    
C19   C20   A    
C31   H14   S    
S1    O13   S    
C23   O5    A    
O13   H23   S    
C30   N2    A    
C7    C8    A    
C41   H8    S    
C45   C46   A    
C2    C46   A    
C40   N1    A    
Cu2   O8    S    
C36   C37   A    
C19   C21   A    
S1    O12   D    
C32   H13   S    
C14   H3    S    
C30   C31   A    
C20   C25   A    
C33   C36   A    
C18   C19   A    
C16   H5    S    
C31   C32   A    
C44   H10   S    
C8    C9    A    
C30   H12   S    
C1    C28   S    
C14   C27   A    
S2    O15   D    
C27   H21   S    
C29   C41   A    
C15   C23   S    
C35   N2    A    
C40   H11   S    
C21   C22   A    
Cu2   O4    S    
C13   H18   S    
C24   H2    S    
C38   C39   A    
C1    O1    A    
C36   C40   A    
C24   C25   A    
C47   O10   S    
C16   C17   A    
C15   C26   A    
C20   C28   A    
C3    C45   A    
C23   O6    A    
Cu2   O6    S    
C35   C39   A    
C43   C44   A    
Cu1   N1    S    
C37   C38   A    
C26   H4    S    
C34   O8    A    
C15   C27   A    
Cu1   Cu2   S    
C7    C13   A    
C17   C18   A    
S1    O11   D    
S2    O16   S    
C29   H9    S    
C22   C24   A    
C42   C43   A    
Cu2   N2    S    
C3    C4    A    
C44   C45   A    
C10   H17   S    
C6    C46   A    
C38   S1    S    
Cu2   O2    S    
C34   C43   S    
C25   H7    S    
Cu1   O3    S    
C47   O9    D    
Cu1   O5    S    
C11   C12   S    
C6    C7    A    
C3    H15   S    
C4    H16   S    
C1    O2    A    
C32   C33   A    
C14   C22   A    
C9    H20   S    
C5    C10   A    
C34   O7    A    
C11   C13   A    
C5    C6    A    
C2    C42   A    
O16   H24   S    
C33   C35   A    
Cu1   O1    S    
C10   C11   A    
C42   H1    S    
C4    C5    A    
C8    H19   S    
C18   C47   S    
O10   H22   S    
C12   O4    A    
C29   C37   A    
Cu1   O7    S    
S2    O14   D    
C2    C9    A    
C17   H6    S    
C39   S2    S    
C41   N1    A    
