data_mof_unit_34824.cif
_audit_creation_date              2012-12-10T16:58:26-0500
_audit_creation_method            fapswitch 2.2
_symmetry_space_group_name_H-M    P1
_symmetry_Int_Tables_number       1
_space_group_crystal_system       triclinic
_cell_length_a                    7.72992
_cell_length_b                    8.580275
_cell_length_c                    23.479202
_cell_angle_alpha                 90.95018
_cell_angle_beta                  85.990946
_cell_angle_gamma                 93.969963
_cell_volume                      1549.60831664

loop_
_atom_site_label
_atom_site_type_symbol
_atom_type_description
_atom_site_fract_x
_atom_site_fract_y
_atom_site_fract_z
_atom_type_partial_charge
C1    C     C_R   0.546148 0.794963 0.498510 1.024715
C2    C     C_R   0.453852 0.205037 0.501490 1.024714
C3    C     C_R   0.373714 0.424387 0.765621 -0.116664
C4    C     C_R   0.626287 0.575619 0.234379 -0.116663
C5    C     C_R   0.369703 0.419032 0.706492 -0.068956
C6    C     C_R   0.630297 0.580972 0.293508 -0.068960
C7    C     C_R   0.508296 0.496445 0.672607 -0.209290
C8    C     C_R   0.491705 0.503557 0.327392 -0.209290
C9    C     C_R   0.652828 0.570374 0.699109 -0.064748
C10   C     C_R   0.347172 0.429630 0.300891 -0.064749
C11   C     C_R   0.659254 0.560179 0.758030 -0.089776
C12   C     C_R   0.340747 0.439827 0.241970 -0.089776
C13   C     C_R   0.518660 0.491636 0.791285 0.237877
C14   C     C_R   0.481341 0.508369 0.208715 0.237875
C15   C     C_2   0.570377 0.958535 0.497614 -0.320151
C16   C     C_2   0.429623 0.041465 0.502386 -0.320153
C17   C     C_R   0.502469 0.499495 0.610523 0.947883
C18   C     C_R   0.497531 0.500505 0.389477 0.947886
C19   C     C_R   0.458897 0.365967 0.119712 0.517348
C20   C     C_R   0.541105 0.634038 0.880288 0.517347
C21   C     C_R   0.505266 0.644600 0.119121 0.518735
C22   C     C_R   0.494736 0.355406 0.880879 0.518734
C23   C     C_R   0.518194 0.644489 0.059538 -0.014440
C24   C     C_R   0.481808 0.355517 0.940462 -0.014440
C25   C     C_R   0.494987 0.501389 0.029980 -0.019794
C26   C     C_R   0.505015 0.498617 0.970020 -0.019794
C27   C     C_R   0.462061 0.361019 0.060210 -0.012641
C28   C     C_R   0.537941 0.638987 0.939790 -0.012641
C29   C     C_R   0.555125 0.783366 0.029009 -0.163228
C30   C     C_R   0.444878 0.216640 0.970991 -0.163228
C31   C     C_R   0.565008 0.780626 0.969611 -0.161074
C32   C     C_R   0.434994 0.219379 0.030388 -0.161074
H1    H     H_    0.578423 0.893970 0.050897 0.193367
H2    H     H_    0.421579 0.106036 0.949103 0.193367
H3    H     H_    0.595226 0.889248 0.947146 0.194127
H4    H     H_    0.404776 0.110758 0.052854 0.194127
H5    H     H_    0.266071 0.371098 0.792209 0.188344
H6    H     H_    0.733929 0.628908 0.207791 0.188350
H7    H     H_    0.770267 0.612705 0.778811 0.193948
H8    H     H_    0.229734 0.387301 0.221189 0.193949
H9    H     H_    0.703077 0.010164 0.493030 0.189154
H10   H     H_    0.296922 0.989836 0.506970 0.189154
H11   H     H_    0.014034 0.382691 0.457180 0.215034
H12   H     H_    0.985966 0.617309 0.542820 0.215033
N1    N     N_R   0.479533 0.506430 0.147894 -0.350870
N2    N     N_R   0.520469 0.493575 0.852106 -0.350870
N3    N     N_2   0.950330 0.457950 0.484560 -0.167702
N4    N     N_2   0.049670 0.542050 0.515440 -0.167703
O1    O     O_R   0.389250 0.738570 0.503790 -0.632791
O2    O     O_R   0.610750 0.261430 0.496210 -0.632790
O3    O     O_R   0.678390 0.711620 0.493890 -0.590657
O4    O     O_R   0.321610 0.288380 0.506110 -0.590660
O5    O     O_R   0.355400 0.513520 0.588790 -0.602522
O6    O     O_R   0.644600 0.486480 0.411210 -0.602520
O7    O     O_R   0.644550 0.486570 0.578900 -0.617978
O8    O     O_R   0.355450 0.513430 0.421100 -0.617977
O9    O     O_2   0.438775 0.231365 0.149165 -0.524326
O10   O     O_2   0.561227 0.768641 0.850835 -0.524326
O11   O     O_2   0.517656 0.781565 0.148188 -0.521909
O12   O     O_2   0.482345 0.218441 0.851812 -0.521909
Zn1   Zn    Zn3+2 0.306930 0.518000 0.506610 1.015324
Zn2   Zn    Zn3+2 0.693070 0.482000 0.493390 1.015325
C33   C     C_2   0.222340 0.325377 0.682444 0.979312
O13   O     O_2   0.247055 0.242396 0.640210 -0.627034
O14   O     O_R   0.055946 0.326611 0.709932 -0.770411
H13   H     H_    0.966447 0.257815 0.689897 0.356527
C34   C     C_2   0.777660 0.674628 0.317556 0.979309
O15   O     O_2   0.752947 0.757599 0.359793 -0.627034
O16   O     O_R   0.944052 0.673407 0.290065 -0.770413
H14   H     H_    0.033550 0.742202 0.310100 0.356528
C35   C     C_2   0.794757 0.666786 0.667840 0.940474
O17   O     O_2   0.762006 0.754244 0.630011 -0.640518
O18   O     O_R   0.965553 0.662711 0.683588 -0.773984
H15   H     H_    0.050700 0.733727 0.659504 0.349300
C36   C     C_2   0.205241 0.333219 0.332159 0.940472
O19   O     O_2   0.237990 0.245762 0.369988 -0.640518
O20   O     O_R   0.034447 0.337294 0.316410 -0.773989
H16   H     H_    0.949297 0.266279 0.340494 0.349299

loop_
_geom_bond_atom_site_label_1
_geom_bond_atom_site_label_2
_ccdc_geom_bond_type
C33   O14   S    
C17   O5    A    
O18   H15   S    
N3    Zn2   S    
O20   H16   S    
C19   O9    S    
C23   C29   A    
C24   C26   A    
C21   O11   S    
O4    Zn1   S    
C22   O12   S    
C13   N2    S    
C15   C16   D    
O7    Zn2   S    
C29   H1    S    
C5    C33   S    
C2    O2    A    
O5    Zn1   S    
C7    C17   S    
C1    C15   S    
C2    C16   S    
C17   O7    A    
C3    C13   A    
C18   O8    A    
C32   H4    S    
O3    Zn2   S    
C10   C12   A    
C14   N1    S    
C21   N1    A    
O1    Zn1   S    
C30   H2    S    
C34   O15   D    
C15   H9    S    
C4    C6    A    
C5    C7    A    
C6    C8    A    
C20   C28   A    
C25   C26   A    
C8    C18   S    
C34   O16   S    
C12   H8    S    
C36   O19   D    
C36   O20   S    
C10   C36   S    
N3    N4    D    
C11   H7    S    
C9    C11   A    
C2    O4    A    
C6    C34   S    
C22   N2    A    
C4    H6    S    
C21   C23   A    
O2    Zn2   S    
C22   C24   A    
C20   O10   S    
C16   H10   S    
C19   C27   A    
C35   O18   S    
C7    C9    A    
C27   C32   A    
C28   C31   A    
C9    C35   S    
C12   C14   A    
C3    C5    A    
C19   N1    A    
C25   C27   A    
O6    Zn2   S    
C26   C28   A    
C1    O3    A    
C35   O17   D    
C29   C31   A    
C30   C32   A    
C11   C13   A    
N4    Zn1   S    
C1    O1    A    
C31   H3    S    
C23   C25   A    
C4    C14   A    
O16   H14   S    
C24   C30   A    
C18   O6    A    
C33   O13   D    
C3    H5    S    
C8    C10   A    
O14   H13   S    
O8    Zn1   S    
H11   N3    S    
C20   N2    A    
H12   N4    S    
