data_mof_unit_16656.cif
_audit_creation_date              2012-12-11T15:42:47-0500
_audit_creation_method            fapswitch 2.2
_symmetry_space_group_name_H-M    P1
_symmetry_Int_Tables_number       1
_space_group_crystal_system       triclinic
_cell_length_a                    6.932248
_cell_length_b                    14.562893
_cell_length_c                    16.169851
_cell_angle_alpha                 90.512429
_cell_angle_beta                  89.962715
_cell_angle_gamma                 89.882001
_cell_volume                      1632.33532873

loop_
_atom_site_label
_atom_site_type_symbol
_atom_type_description
_atom_site_fract_x
_atom_site_fract_y
_atom_site_fract_z
_atom_type_partial_charge
O1    O     O_R   0.505810 0.583360 0.413880 -0.530802
O2    O     O_R   0.175870 0.595480 0.585520 -0.555202
O3    O     O_R   0.005540 0.416640 0.586120 -0.518283
C1    C     C_R   0.344690 0.617708 0.614487 0.654222
O4    O     O_R   0.176100 0.594390 0.414490 -0.509196
O5    O     O_R   0.005770 0.415540 0.413870 -0.496346
C2    C     C_R   0.344586 0.617861 0.386737 0.777905
O6    O     O_R   0.505580 0.584460 0.586130 -0.553385
O7    O     O_3   0.339190 0.441320 0.500000 -0.337211
V1    V     V_3+5 0.064350 0.510890 0.500000 1.628558
O8    O     O_R   0.676050 0.404520 0.414480 -0.528404
C3    C     C_R   0.845142 0.384826 0.383580 0.787467
O9    O     O_R   0.675830 0.405610 0.585510 -0.552700
C4    C     C_R   0.845475 0.380908 0.611116 0.599504
V2    V     V_3+5 0.564340 0.489110 0.500000 1.596339
O10   O     O_3   0.839370 0.558680 0.500000 -0.373404
C5    C     C_2   0.727122 0.210475 0.785865 -0.043117
C6    C     C_2   0.885751 0.188260 0.829005 -0.229951
H1    H     H_    0.590721 0.177324 0.799500 0.163782
H2    H     H_    0.017987 0.226271 0.819334 0.184544
C7    C     C_2   0.725635 0.286429 0.725186 -0.206980
C8    C     C_2   0.861055 0.300831 0.666229 0.254890
H3    H     H_    0.603072 0.332885 0.729077 0.141991
C9    C     C_R   0.015824 0.254482 0.189936 -0.211075
H4    H     H_    0.128743 0.257562 0.143743 0.173860
C10   C     C_R   0.003434 0.323374 0.251163 0.466626
C11   C     C_R   0.857065 0.318484 0.312868 -0.174580
C12   C     C_R   0.719246 0.247938 0.306722 -0.156314
H5    H     H_    0.604426 0.242907 0.351921 0.163678
C13   C     C_R   0.728664 0.182289 0.243063 -0.118478
H6    H     H_    0.620312 0.128860 0.240303 0.129411
C14   C     C_R   0.878964 0.184066 0.184913 -0.118214
C15   C     C_R   0.204854 0.688671 0.743326 -0.181230
H7    H     H_    0.082058 0.643285 0.736293 0.140707
C16   C     C_R   0.217414 0.746311 0.813743 -0.015773
C17   C     C_R   0.378795 0.805889 0.823217 -0.113860
C18   C     C_R   0.527954 0.800713 0.764222 -0.077313
H8    H     H_    0.652827 0.844957 0.769624 0.143681
C19   C     C_R   0.517392 0.739825 0.696810 -0.115179
H9    H     H_    0.635680 0.737483 0.653032 0.123132
C20   C     C_R   0.354531 0.684134 0.684901 -0.063151
C21   C     C_R   0.207005 0.754115 0.306565 -0.002575
C22   C     C_R   0.221886 0.816142 0.240865 -0.181527
H10   H     H_    0.109947 0.867429 0.232793 0.124658
C23   C     C_R   0.379806 0.813929 0.186526 -0.067760
C24   C     C_R   0.525324 0.748426 0.199214 -0.131346
H11   H     H_    0.648873 0.744954 0.158255 0.129650
C25   C     C_R   0.511018 0.685240 0.263821 -0.059779
H12   H     H_    0.623602 0.634151 0.270304 0.181911
C26   C     C_R   0.352909 0.686695 0.318649 -0.151889
O11   O     O_R   0.230120 0.912300 0.917180 -0.528881
O12   O     O_R   0.559740 0.902430 0.088770 -0.549419
O13   O     O_R   0.729930 0.081310 0.089370 -0.541701
C27   C     C_R   0.390934 0.880546 0.117533 0.717832
O14   O     O_R   0.559840 0.901330 0.917750 -0.536227
O15   O     O_R   0.730030 0.080210 0.917120 -0.543624
C28   C     C_R   0.390441 0.876730 0.890601 0.746494
O16   O     O_R   0.230020 0.913400 0.089430 -0.536681
O17   O     O_3   0.396460 0.055470 0.003290 -0.373561
V3    V     V_3+5 0.671360 0.985960 0.003250 1.465298
O18   O     O_R   0.059740 0.091300 0.917690 -0.536734
C29   C     C_R   0.890840 0.114686 0.890948 0.741253
O19   O     O_R   0.059640 0.092400 0.088720 -0.547953
C30   C     C_R   0.890433 0.114342 0.117649 0.703296
V4    V     V_3+5 0.171350 0.007820 0.003190 1.479535
O20   O     O_3   0.896380 0.938200 0.003220 -0.367910
C31   C     C_2   0.067033 0.737003 0.878613 0.765054
O21   O     O_2   0.900171 0.720609 0.859035 -0.568214
O22   O     O_R   0.117361 0.742540 0.962269 -0.655731
H13   H     H_    0.002597 0.734173 0.000355 0.298090
C32   C     C_2   0.041414 0.765864 0.363021 0.735791
O23   O     O_2   0.907818 0.711315 0.360941 -0.552313
O24   O     O_R   0.034675 0.841984 0.416135 -0.656562
H14   H     H_    0.913291 0.843447 0.451143 0.300689
S1    S     S_3+6 0.048798 0.221046 0.642661 0.024473
O25   O     O_2   0.224683 0.244560 0.692728 -0.338722
O26   O     O_2   0.988475 0.124219 0.660930 -0.318378
O27   O     O_3   0.106666 0.228008 0.541840 -0.474939
H15   H     H_    0.986307 0.212630 0.511798 0.314663
S2    S     S_3+6 0.160888 0.418546 0.242482 -0.015589
O28   O     O_2   0.318185 0.411484 0.305954 -0.336294
O29   O     O_2   0.250868 0.420229 0.157828 -0.345249
O30   O     O_3   0.034779 0.516071 0.257960 -0.515531
H16   H     H_    0.099330 0.562796 0.223542 0.356254

loop_
_geom_bond_atom_site_label_1
_geom_bond_atom_site_label_2
_ccdc_geom_bond_type
O19   V4    S    
O24   H14   S    
C16   C17   A    
C1    O6    A    
C19   C20   A    
C23   C24   A    
C10   C11   A    
C12   H5    S    
C9    C10   A    
O5    C3    A    
C13   H6    S    
O13   C30   A    
C1    C20   S    
V2    O10   S    
O11   V4    S    
O12   V3    S    
C5    H1    S    
O8    V2    S    
O11   C28   A    
O7    V1    S    
O14   V3    S    
C25   C26   A    
V3    O20   S    
O17   V3    S    
O9    C4    A    
O22   H13   S    
C8    S1    S    
S2    O30   S    
O13   V3    S    
O12   C27   A    
C15   H7    S    
C7    H3    S    
C24   C25   A    
C3    C11   S    
C31   O21   D    
C9    H4    S    
C14   C30   S    
S2    O29   D    
C17   C28   S    
C19   H9    S    
O4    C2    A    
O27   H15   S    
C6    C29   S    
C10   S2    S    
O15   V3    S    
C31   O22   S    
O2    C1    A    
S1    O25   D    
C9    C14   A    
C18   H8    S    
C22   C23   A    
O16   V4    S    
O30   H16   S    
C16   C31   S    
C5    C6    D    
S1    O26   D    
O3    C4    A    
C21   C26   A    
O1    V2    S    
C25   H12   S    
C23   C27   S    
O6    V2    S    
O9    V2    S    
C22   H10   S    
O15   C29   A    
C21   C22   A    
O2    V1    S    
C32   O24   S    
C27   O16   A    
C24   H11   S    
C17   C18   A    
O1    C2    A    
C2    C26   S    
S2    O28   D    
O5    V1    S    
O8    C3    A    
C15   C20   A    
C4    C8    S    
O14   C28   A    
O7    V2    S    
O4    V1    S    
C18   C19   A    
O3    V1    S    
V1    O10   S    
O17   V4    S    
C13   C14   A    
C12   C13   A    
C21   C32   S    
C15   C16   A    
C6    H2    S    
O18   C29   A    
S1    O27   S    
C5    C7    S    
O19   C30   A    
O18   V4    S    
C32   O23   D    
V4    O20   S    
C11   C12   A    
C7    C8    D    
