data_mof_unit_15953.cif
_audit_creation_date              2012-12-11T14:30:01-0500
_audit_creation_method            fapswitch 2.2
_symmetry_space_group_name_H-M    P1
_symmetry_Int_Tables_number       1
_space_group_crystal_system       triclinic
_cell_length_a                    12.677147
_cell_length_b                    12.739593
_cell_length_c                    27.169481
_cell_angle_alpha                 89.766199
_cell_angle_beta                  90.126015
_cell_angle_gamma                 119.927933
_cell_volume                      3802.77259145

loop_
_atom_site_label
_atom_site_type_symbol
_atom_type_description
_atom_site_fract_x
_atom_site_fract_y
_atom_site_fract_z
_atom_type_partial_charge
C1    C     C_R   0.562300 0.455932 0.823481 0.569571
C2    C     C_R   0.900200 0.444015 0.678327 0.567424
C3    C     C_R   0.543366 0.106149 0.823403 0.574429
C4    C     C_R   0.555872 0.456089 0.678314 0.568584
C5    C     C_R   0.894378 0.437806 0.823264 0.572099
C6    C     C_R   0.543835 0.099860 0.678310 0.569504
C7    C     C_R   0.456530 0.562207 0.323303 0.570569
C8    C     C_R   0.443567 0.898762 0.177981 0.578377
C9    C     C_R   0.106184 0.543711 0.323366 0.575259
C10   C     C_R   0.457429 0.555615 0.178755 0.574240
C11   C     C_R   0.437859 0.893944 0.323373 0.573548
C12   C     C_R   0.101635 0.545669 0.177872 0.569685
C13   C     C_R   0.970805 0.495050 0.977283 0.006841
C14   C     C_R   0.502153 0.982151 0.529694 0.005622
C15   C     C_R   0.513795 0.476550 0.978753 0.014636
C16   C     C_R   0.018363 0.520015 0.529675 0.006014
C17   C     C_R   0.513760 0.027486 0.977732 0.006338
C18   C     C_R   0.480046 0.497941 0.529614 0.005549
C19   C     C_R   0.489270 0.968723 0.477963 0.009021
C20   C     C_R   0.985928 0.509426 0.028831 0.005210
C21   C     C_R   0.480424 0.510827 0.477853 0.008787
C22   C     C_R   0.516166 0.016158 0.029653 0.003948
C23   C     C_R   0.031250 0.520035 0.477932 0.009261
C24   C     C_R   0.501721 0.477436 0.030585 0.009780
C25   C     C_R   0.104649 0.710538 0.965036 -0.119948
C26   C     C_R   0.720950 0.103210 0.518699 -0.108558
C27   C     C_R   0.294653 0.374351 0.969688 -0.128051
C28   C     C_R   0.896670 0.616946 0.518459 -0.108990
C29   C     C_R   0.617019 0.912024 0.967683 -0.127855
C30   C     C_R   0.383199 0.280148 0.518954 -0.109001
C31   C     C_R   0.707777 0.090123 0.467849 -0.119899
C32   C     C_R   0.121291 0.725073 0.015701 -0.108723
C33   C     C_R   0.384141 0.293301 0.468052 -0.120338
C34   C     C_R   0.618443 0.899441 0.018326 -0.114349
C35   C     C_R   0.909197 0.616335 0.467592 -0.120931
C36   C     C_R   0.282399 0.372927 0.020701 -0.116141
C37   C     C_R   0.007302 0.578511 0.893742 0.189382
C38   C     C_R   0.630731 0.064904 0.601230 0.191756
C39   C     C_R   0.424263 0.423037 0.896205 0.181962
C40   C     C_R   0.936016 0.566070 0.601117 0.192217
C41   C     C_R   0.571999 0.997563 0.895223 0.185449
C42   C     C_R   0.433401 0.369923 0.601368 0.192037
C43   C     C_R   0.576887 0.002262 0.395186 0.182538
C44   C     C_R   0.081206 0.638464 0.098929 0.195167
C45   C     C_R   0.427478 0.423696 0.395172 0.183108
C46   C     C_R   0.564830 0.933280 0.100751 0.193127
C47   C     C_R   0.996852 0.573164 0.395025 0.183182
C48   C     C_R   0.374860 0.428520 0.102879 0.191700
C49   C     C_R   0.040282 0.534207 0.129684 0.008477
C50   C     C_R   0.458928 0.937031 0.375329 0.022892
C51   C     C_R   0.478169 0.507903 0.131821 0.021879
C52   C     C_R   0.062476 0.520988 0.375307 0.022842
C53   C     C_R   0.493035 0.964885 0.130788 0.018153
C54   C     C_R   0.479570 0.541119 0.375205 0.023448
C55   C     C_R   0.526360 0.034996 0.630771 0.013294
C56   C     C_R   0.939502 0.460486 0.875013 0.024489
C57   C     C_R   0.507765 0.473723 0.630809 0.012642
C58   C     C_R   0.517930 0.060817 0.875065 0.024612
C59   C     C_R   0.965888 0.491871 0.630826 0.012680
C60   C     C_R   0.541969 0.477487 0.875739 0.023144
C61   C     C_R   0.029725 0.595623 0.944948 0.024794
C62   C     C_R   0.618701 0.050065 0.550096 0.023235
C63   C     C_R   0.410035 0.425919 0.947809 0.024730
C64   C     C_R   0.950402 0.568495 0.549967 0.023329
C65   C     C_R   0.566169 0.976833 0.946499 0.023744
C66   C     C_R   0.431412 0.381903 0.550193 0.023080
C67   C     C_R   0.592218 0.022705 0.446569 0.023525
C68   C     C_R   0.062802 0.625108 0.048027 0.023541
C69   C     C_R   0.432255 0.408376 0.446604 0.024143
C70   C     C_R   0.568162 0.950689 0.049825 0.024277
C71   C     C_R   0.976717 0.568380 0.446427 0.023130
C72   C     C_R   0.385531 0.425439 0.051605 0.023038
C73   C     C_R   0.904064 0.360072 0.907769 -0.054380
C74   C     C_R   0.407970 0.955864 0.611341 -0.027539
C75   C     C_R   0.645091 0.547661 0.907119 -0.051257
C76   C     C_R   0.045280 0.452843 0.611509 -0.028205
C77   C     C_R   0.442539 0.088164 0.905977 -0.050134
C78   C     C_R   0.546824 0.591664 0.611213 -0.028289
C79   C     C_R   0.356502 0.904145 0.407014 -0.053538
C80   C     C_R   0.947774 0.420854 0.112138 -0.039836
C81   C     C_R   0.548874 0.643020 0.406800 -0.053263
C82   C     C_R   0.458389 0.048178 0.112674 -0.023994
C83   C     C_R   0.095648 0.451925 0.407148 -0.054746
C84   C     C_R   0.597096 0.551587 0.111663 -0.008393
C85   C     C_R   0.897191 0.379199 0.958142 0.010109
C86   C     C_R   0.398315 0.924374 0.560769 0.013784
C87   C     C_R   0.630507 0.529044 0.958157 0.007653
C88   C     C_R   0.076685 0.474549 0.560859 0.014266
C89   C     C_R   0.458467 0.089229 0.957230 0.003218
C90   C     C_R   0.525150 0.601271 0.560531 0.014008
C91   C     C_R   0.372581 0.901362 0.457866 0.005153
C92   C     C_R   0.920796 0.408682 0.060965 0.017079
C93   C     C_R   0.529554 0.626990 0.457588 0.004747
C94   C     C_R   0.468578 0.072057 0.061051 0.017435
C95   C     C_R   0.098648 0.470836 0.457945 0.005389
C96   C     C_R   0.606335 0.528338 0.061196 0.012775
C97   C     C_R   0.831063 0.298989 0.040473 -0.124061
C98   C     C_R   0.274840 0.828801 0.489064 -0.126725
C99   C     C_R   0.718282 0.557447 0.039725 -0.121569
C100  C     C_R   0.171793 0.446179 0.489169 -0.126439
C101  C     C_R   0.428928 0.146303 0.038995 -0.112181
C102  C     C_R   0.553552 0.724214 0.488503 -0.126751
C103  C     C_R   0.287812 0.837879 0.539555 -0.116446
C104  C     C_R   0.819503 0.285185 0.989755 -0.130473
C105  C     C_R   0.548833 0.711251 0.539014 -0.115986
C106  C     C_R   0.424259 0.154444 0.988458 -0.130060
C107  C     C_R   0.163308 0.450635 0.539644 -0.115935
C108  C     C_R   0.730081 0.559013 0.989231 -0.126194
Cr1   Cr    Cr6+3 0.487630 0.241180 0.750000 1.044730
Cr2   Cr    Cr6+3 0.753550 0.512370 0.750000 1.050736
Cr3   Cr    Cr6+3 0.758820 0.246450 0.750000 1.074966
Cr4   Cr    Cr6+3 0.241180 0.487630 0.250000 1.051413
Cr5   Cr    Cr6+3 0.512370 0.753550 0.250000 1.041575
Cr6   Cr    Cr6+3 0.246450 0.758820 0.250000 1.055328
H1    H     H_    0.183007 0.815454 0.028924 0.184879
H2    H     H_    0.789121 0.133337 0.445630 0.165163
H3    H     H_    0.191148 0.333488 0.035399 0.178750
H4    H     H_    0.865534 0.653967 0.445271 0.165259
H5    H     H_    0.657304 0.846374 0.032079 0.185811
H6    H     H_    0.346517 0.212330 0.445930 0.166401
H7    H     H_    0.812311 0.158211 0.532817 0.185086
H8    H     H_    0.152106 0.790001 0.941980 0.167867
H9    H     H_    0.346892 0.189216 0.533261 0.185313
H10   H     H_    0.657014 0.870883 0.945547 0.165392
H11   H     H_    0.841595 0.653147 0.532521 0.185201
H12   H     H_    0.212913 0.334054 0.947686 0.171632
H13   H     H_    0.771326 0.221674 0.062793 0.123776
H14   H     H_    0.187985 0.761777 0.474773 0.121569
H15   H     H_    0.798785 0.580550 0.061156 0.127623
H16   H     H_    0.238931 0.426431 0.474909 0.121689
H17   H     H_    0.398444 0.198663 0.058975 0.131610
H18   H     H_    0.572990 0.810613 0.473942 0.121319
H19   H     H_    0.209831 0.775076 0.560804 0.125604
H20   H     H_    0.750362 0.200120 0.975040 0.126214
H21   H     H_    0.563008 0.788757 0.560026 0.124708
H22   H     H_    0.396840 0.216232 0.974488 0.121846
H23   H     H_    0.226711 0.436020 0.560873 0.125313
H24   H     H_    0.818119 0.582174 0.975058 0.120688
O1    O     O_R   0.460870 0.120930 0.805240 -0.552337
O2    O     O_R   0.660060 0.539130 0.694760 -0.484003
O3    O     O_R   0.879070 0.339940 0.805240 -0.540439
O4    O     O_R   0.460870 0.120930 0.694760 -0.487383
O5    O     O_R   0.660060 0.539130 0.805240 -0.545277
O6    O     O_R   0.879070 0.339940 0.694760 -0.481704
O7    O     O_R   0.120930 0.460870 0.305240 -0.546264
O8    O     O_R   0.539130 0.660060 0.194760 -0.486605
O9    O     O_R   0.339940 0.879070 0.305240 -0.549502
O10   O     O_R   0.120930 0.460870 0.194760 -0.483075
O11   O     O_R   0.539130 0.660060 0.305240 -0.549379
O12   O     O_R   0.339940 0.879070 0.194760 -0.473305
O13   O     O_R   0.498910 0.350470 0.801870 -0.484330
O14   O     O_R   0.851560 0.501090 0.698130 -0.439176
O15   O     O_R   0.649530 0.148440 0.801870 -0.466481
O16   O     O_R   0.498910 0.350470 0.698130 -0.440684
O17   O     O_R   0.851560 0.501090 0.801870 -0.482257
O18   O     O_R   0.649530 0.148440 0.698130 -0.437608
O19   O     O_R   0.350470 0.498910 0.301870 -0.481959
O20   O     O_R   0.501090 0.851560 0.198130 -0.442651
O21   O     O_R   0.148440 0.649530 0.301870 -0.480415
O22   O     O_R   0.350470 0.498910 0.198130 -0.434588
O23   O     O_R   0.501090 0.851560 0.301870 -0.482944
O24   O     O_R   0.148440 0.649530 0.198130 -0.437781
O25   O     O_3   0.666667 0.333333 0.750000 -0.268920
O26   O     O_3   0.333333 0.666667 0.250000 -0.267710
Cl1   Cl    Cl    0.142692 0.786547 0.123150 -0.638134
Cl2   Cl    Cl    0.702707 0.065294 0.354709 -0.735137
Cl3   Cl    Cl    0.232914 0.325259 0.129865 -0.667905
Cl4   Cl    Cl    0.933069 0.635029 0.354368 -0.732334
Cl5   Cl    Cl    0.654663 0.874452 0.125620 -0.668892
Cl6   Cl    Cl    0.365428 0.298489 0.354857 -0.745998
Cl7   Cl    Cl    0.777128 0.115301 0.626977 -0.650581
Cl8   Cl    Cl    0.071513 0.701292 0.852050 -0.743149
Cl9   Cl    Cl    0.336941 0.224366 0.627208 -0.653581
Cl10  Cl    Cl    0.638230 0.937547 0.855107 -0.731547
Cl11  Cl    Cl    0.886077 0.661953 0.626638 -0.655413
Cl12  Cl    Cl    0.296719 0.362382 0.856365 -0.718771
C109  C     C_3   0.868889 0.321799 0.148999 -0.265548
C110  C     C_3   0.898083 0.218592 0.151568 -0.267259
C111  C     C_3   0.832629 0.134377 0.194921 -0.400104
H25   H     H_    0.863674 0.184686 0.230168 0.164683
H26   H     H_    0.732697 0.095556 0.191475 0.181528
H27   H     H_    0.853268 0.059314 0.195686 0.187315
H28   H     H_    0.870545 0.165086 0.117088 0.189831
H29   H     H_    0.996983 0.255789 0.156376 0.252032
H30   H     H_    0.879428 0.361541 0.186274 0.150505
H31   H     H_    0.771147 0.284651 0.140033 0.121671
C112  C     C_3   0.233113 0.882441 0.388319 -0.231566
C113  C     C_3   0.243946 0.994425 0.361809 -0.246242
C114  C     C_3   0.143311 0.958122 0.323742 -0.413164
H32   H     H_    0.139262 0.888260 0.298292 0.207635
H33   H     H_    0.055205 0.921846 0.343149 0.164018
H34   H     H_    0.160549 0.038053 0.301316 0.149669
H35   H     H_    0.236104 0.054157 0.389399 0.181050
H36   H     H_    0.333376 0.048827 0.343366 0.224917
H37   H     H_    0.190492 0.800269 0.365526 0.221127
H38   H     H_    0.165962 0.863013 0.417951 0.137583
C115  C     C_3   0.714771 0.622869 0.141923 -0.215898
C116  C     C_3   0.755748 0.539990 0.166082 -0.336556
C117  C     C_3   0.703554 0.501607 0.217829 -0.410853
H39   H     H_    0.739567 0.581765 0.242367 0.188870
H40   H     H_    0.602953 0.457185 0.216885 0.160060
H41   H     H_    0.730073 0.437145 0.233162 0.161107
H42   H     H_    0.729021 0.458673 0.143046 0.155754
H43   H     H_    0.856641 0.589765 0.169002 0.186012
H44   H     H_    0.788872 0.689796 0.118050 0.158441
H45   H     H_    0.714584 0.685374 0.169472 0.217782
C118  C     C_3   0.118213 0.351346 0.388674 -0.233439
C119  C     C_3   0.006293 0.250200 0.362233 -0.242990
C120  C     C_3   0.043646 0.187106 0.324312 -0.408189
H46   H     H_    0.079913 0.135465 0.343877 0.164768
H47   H     H_    0.963761 0.124755 0.301808 0.146645
H48   H     H_    0.114193 0.253242 0.298908 0.209402
H49   H     H_    0.946508 0.182296 0.389887 0.179649
H50   H     H_    0.951217 0.284484 0.343714 0.229811
H51   H     H_    0.200910 0.391549 0.365887 0.221275
H52   H     H_    0.137840 0.303896 0.418407 0.138236
C121  C     C_3   0.409027 0.106444 0.148687 -0.229633
C122  C     C_3   0.498468 0.174683 0.190779 -0.327961
C123  C     C_3   0.436237 0.205977 0.231610 -0.403948
H53   H     H_    0.400383 0.263670 0.216997 0.186010
H54   H     H_    0.360059 0.121915 0.247566 0.179910
H55   H     H_    0.502602 0.255672 0.261380 0.190477
H56   H     H_    0.536578 0.121139 0.207372 0.170092
H57   H     H_    0.575809 0.259229 0.175863 0.151131
H58   H     H_    0.388332 0.172772 0.132068 0.157733
H59   H     H_    0.319590 0.036795 0.163195 0.227921
C124  C     C_3   0.649918 0.766112 0.388129 -0.231800
C125  C     C_3   0.751359 0.756079 0.361326 -0.242999
C126  C     C_3   0.813333 0.855645 0.322767 -0.411310
H60   H     H_    0.746055 0.859119 0.297594 0.206037
H61   H     H_    0.865340 0.943656 0.341778 0.163685
H62   H     H_    0.875737 0.838392 0.300102 0.152605
H63   H     H_    0.820511 0.765227 0.388690 0.179413
H64   H     H_    0.716885 0.666832 0.343258 0.228066
H65   H     H_    0.609375 0.808716 0.365542 0.221556
H66   H     H_    0.697805 0.832454 0.417835 0.137715
C127  C     C_3   0.293833 0.907017 0.643920 -0.224973
C128  C     C_3   0.289960 0.816366 0.682099 -0.332451
C129  C     C_3   0.184283 0.777362 0.717930 -0.407643
H67   H     H_    0.193926 0.857042 0.738272 0.178296
H68   H     H_    0.096269 0.733319 0.697880 0.198505
H69   H     H_    0.184312 0.711737 0.744930 0.187539
H70   H     H_    0.278821 0.735261 0.662522 0.149372
H71   H     H_    0.376093 0.856710 0.703462 0.172054
H72   H     H_    0.285833 0.980350 0.661585 0.229405
H73   H     H_    0.207631 0.863341 0.623170 0.162309
C130  C     C_3   0.899505 0.243343 0.890329 -0.220756
C131  C     C_3   0.931885 0.174447 0.929154 -0.298911
C132  C     C_3   0.981023 0.099337 0.905556 -0.463402
H74   H     H_    0.918301 0.041328 0.876286 0.189941
H75   H     H_    0.071820 0.160310 0.889603 0.195822
H76   H     H_    0.990288 0.041008 0.933719 0.145753
H77   H     H_    0.001340 0.238528 0.955326 0.175618
H78   H     H_    0.849770 0.110552 0.950127 0.175159
H79   H     H_    0.808746 0.181820 0.874613 0.206393
H80   H     H_    0.968888 0.269054 0.860878 0.208664
C133  C     C_3   0.613540 0.705448 0.643515 -0.223747
C134  C     C_3   0.529579 0.709285 0.683071 -0.330715
C135  C     C_3   0.598939 0.814589 0.718514 -0.406121
H81   H     H_    0.671164 0.805207 0.737814 0.179320
H82   H     H_    0.640796 0.902097 0.698294 0.198547
H83   H     H_    0.535207 0.814763 0.746438 0.184739
H84   H     H_    0.457587 0.720324 0.664674 0.148073
H85   H     H_    0.485859 0.623684 0.704613 0.172057
H86   H     H_    0.696789 0.713635 0.659960 0.232621
H87   H     H_    0.653496 0.791270 0.622748 0.159998
C136  C     C_3   0.341077 0.109592 0.885713 -0.231220
C137  C     C_3   0.242868 0.999798 0.857120 -0.250293
C138  C     C_3   0.187297 0.037667 0.815446 -0.404656
H88   H     H_    0.139834 0.083548 0.830368 0.163394
H89   H     H_    0.257766 0.099820 0.789116 0.207052
H90   H     H_    0.120623 0.956380 0.794834 0.148284
H91   H     H_    0.279659 0.944330 0.841334 0.231318
H92   H     H_    0.169149 0.940833 0.883067 0.178644
H93   H     H_    0.289117 0.125335 0.914493 0.131273
H94   H     H_    0.382016 0.193842 0.863918 0.224780
C139  C     C_3   0.093362 0.386725 0.644130 -0.224462
C140  C     C_3   0.182304 0.471100 0.683173 -0.331678
C141  C     C_3   0.220768 0.403043 0.718618 -0.401838
H95   H     H_    0.140199 0.331043 0.738301 0.189478
H96   H     H_    0.266700 0.361631 0.698330 0.195821
H97   H     H_    0.285274 0.467039 0.746219 0.185080
H98   H     H_    0.264382 0.542731 0.664337 0.148135
H99   H     H_    0.140230 0.514483 0.704756 0.173751
H100  H     H_    0.018885 0.304468 0.661071 0.232771
H101  H     H_    0.138717 0.346028 0.623525 0.161924
C142  C     C_3   0.767619 0.649727 0.887882 -0.233037
C143  C     C_3   0.755310 0.751352 0.862658 -0.247792
C144  C     C_3   0.860236 0.823079 0.827103 -0.420403
H102  H     H_    0.947346 0.864841 0.847695 0.165982
H103  H     H_    0.862298 0.763250 0.797961 0.198608
H104  H     H_    0.849341 0.895597 0.809215 0.163348
H105  H     H_    0.667972 0.716547 0.842496 0.228363
H106  H     H_    0.757190 0.813717 0.891399 0.180256
H107  H     H_    0.836075 0.697131 0.917004 0.133315
H108  H     H_    0.810698 0.611846 0.864271 0.223348

loop_
_geom_bond_atom_site_label_1
_geom_bond_atom_site_label_2
_ccdc_geom_bond_type
C44   C49   A    
C15   C63   A    
C4    O16   A    
C41   Cl10  S    
C29   H10   S    
C80   C92   A    
C119  H49   S    
C82   C94   A    
C10   O22   A    
C112  H38   S    
C114  H34   S    
C18   C21   A    
C2    O6    A    
C5    C56   S    
C115  H44   S    
C134  H84   S    
C6    O18   A    
C3    O15   A    
C6    C55   S    
C97   H13   S    
C135  H83   S    
C8    O20   A    
C45   Cl6   S    
C144  H104  S    
C37   Cl8   S    
C12   C49   S    
C38   Cl7   S    
C78   C90   A    
C31   C67   A    
C124  H66   S    
C20   C92   A    
C136  H93   S    
C132  H74   S    
C79   C112  S    
C76   C139  S    
Cr1   O13   S    
C102  H18   S    
C41   C58   A    
C126  H62   S    
Cr2   O14   S    
C24   C96   A    
C27   H12   S    
C131  H78   S    
C98   H14   S    
Cr6   O24   S    
C123  H54   S    
C9    O21   A    
C98   C103  A    
C14   C62   A    
C96   C99   A    
C128  H71   S    
Cr6   O9    S    
C11   O23   A    
C120  H48   S    
C109  H30   S    
C142  H108  S    
C102  C105  A    
C133  C134  S    
C84   C96   A    
C141  H97   S    
C114  H33   S    
C83   C118  S    
Cr2   O17   S    
C58   C77   A    
C144  H103  S    
C7    O11   A    
C55   C74   A    
Cr6   O26   S    
C48   C51   A    
C87   C108  A    
C129  H67   S    
C28   C35   A    
C23   C95   A    
C119  C120  S    
C132  H76   S    
C48   Cl3   S    
C89   C106  A    
C117  H41   S    
C141  H95   S    
C94   C101  A    
C19   C67   A    
C116  C117  S    
C26   H7    S    
C143  H106  S    
Cr5   O20   S    
C6    O4    A    
C81   C124  S    
Cr3   O18   S    
C34   C70   A    
C125  H64   S    
C110  H28   S    
C13   C20   A    
C33   C69   A    
C121  H59   S    
C105  H21   S    
C111  H27   S    
C130  H80   S    
C25   C32   A    
C106  H22   S    
C35   C71   A    
C117  H39   S    
C37   C56   A    
C40   C59   A    
C140  H99   S    
C139  C140  S    
C50   C79   A    
C4    C57   S    
C22   C94   A    
C115  H45   S    
C115  C116  S    
C9    C52   S    
C48   C72   A    
C86   C103  A    
C14   C19   A    
C42   C57   A    
C125  C126  S    
C92   C97   A    
C110  C111  S    
C2    O14   A    
Cr4   O26   S    
C134  H85   S    
C136  H94   S    
C132  H75   S    
C143  H105  S    
Cr4   O19   S    
C38   C55   A    
C59   C76   A    
C45   C69   A    
C118  C119  S    
C18   C90   A    
C23   C71   A    
C42   C66   A    
C122  H56   S    
C17   C89   A    
C14   C86   A    
Cr1   O25   S    
C1    C60   S    
C133  H86   S    
C123  H53   S    
C88   C107  A    
C99   H15   S    
C95   C100  A    
C41   C65   A    
C13   C85   A    
C121  C122  S    
C5    O17   A    
C38   C62   A    
C139  H100  S    
C29   C34   A    
C109  H31   S    
C77   C136  S    
C21   C69   A    
C53   C82   A    
Cr5   O8    S    
C107  H23   S    
C52   C83   A    
C8    O12   A    
C113  C114  S    
C126  H60   S    
C1    O5    A    
Cr5   O11   S    
Cr2   O5    S    
C4    O2    A    
C81   C93   A    
C5    O3    A    
C124  C125  S    
C137  H91   S    
Cr2   O25   S    
C77   C89   A    
C118  H51   S    
C120  H46   S    
C127  H72   S    
C140  C141  S    
C129  H68   S    
C25   C61   A    
C83   C95   A    
C74   C86   A    
C36   H3    S    
Cr3   O15   S    
C73   C85   A    
C125  H63   S    
C30   C66   A    
C85   C104  A    
C104  H20   S    
Cr3   O6    S    
C10   O8    A    
C29   C65   A    
C28   C64   A    
C75   C87   A    
C15   C24   A    
C2    C59   S    
C99   C108  A    
C113  H35   S    
C109  C110  S    
C16   C23   A    
C140  H98   S    
C138  H89   S    
C142  C143  S    
C116  H43   S    
C91   C98   A    
C27   C36   A    
C44   C68   A    
C3    O1    A    
C47   C71   A    
C75   C142  S    
C135  H81   S    
C113  H36   S    
C101  H17   S    
C31   H2    S    
C101  C106  A    
C124  H65   S    
C28   H11   S    
C24   C72   A    
Cr3   O25   S    
C15   C87   A    
C25   H8    S    
C43   Cl2   S    
C34   H5    S    
C76   C88   A    
C128  C129  S    
C100  C107  A    
C119  H50   S    
C56   C73   A    
Cr4   O22   S    
C30   C33   A    
C112  H37   S    
C131  H77   S    
C93   C102  A    
C79   C91   A    
C57   C78   A    
C20   C68   A    
Cr1   O16   S    
C133  H87   S    
C90   C105  A    
C39   Cl12  S    
C135  H82   S    
C42   Cl9   S    
C8    C53   S    
C45   C54   A    
C40   Cl11  S    
C37   C61   A    
C130  C131  S    
C46   Cl5   S    
C43   C50   A    
C122  H57   S    
C47   C52   A    
C73   C130  S    
C12   O24   A    
C84   C115  S    
C18   C66   A    
C39   C63   A    
C139  H101  S    
C60   C75   A    
C17   C65   A    
C17   C22   A    
C40   C64   A    
C49   C80   A    
C32   C68   A    
Cr1   O1    S    
C136  C137  S    
C10   C51   S    
C80   C109  S    
C12   O10   A    
C74   C127  S    
Cr2   O2    S    
C134  C135  S    
C103  H19   S    
Cr4   O7    S    
C112  C113  S    
C126  H61   S    
C11   C50   S    
C131  C132  S    
C143  C144  S    
C123  H55   S    
C108  H24   S    
C47   Cl4   S    
C11   O9    A    
C122  C123  S    
C82   C121  S    
C21   C93   A    
C16   C88   A    
C39   C60   A    
C128  H70   S    
C46   C53   A    
C9    O7    A    
C118  H52   S    
C120  H47   S    
C78   C133  S    
C142  H107  S    
C127  H73   S    
C1    O13   A    
C129  H69   S    
C100  H16   S    
C44   Cl1   S    
C141  H96   S    
C32   H1    S    
C26   C62   A    
C114  H32   S    
C127  C128  S    
Cr6   O21   S    
C46   C70   A    
C97   C104  A    
C19   C91   A    
Cr3   O3    S    
Cr5   O23   S    
C111  H25   S    
C3    C58   S    
Cr4   O10   S    
C26   C31   A    
C13   C61   A    
C30   H9    S    
C33   H6    S    
C43   C67   A    
C7    O19   A    
C138  H90   S    
C137  H92   S    
C116  H42   S    
C117  H40   S    
Cr6   O12   S    
C144  H102  S    
C27   C63   A    
C35   H4    S    
C16   C64   A    
C7    C54   S    
C111  H26   S    
C138  H88   S    
C51   C84   A    
C22   C70   A    
C54   C81   A    
C110  H29   S    
C36   C72   A    
Cr1   O4    S    
C121  H58   S    
C137  C138  S    
Cr5   O26   S    
C130  H79   S    
