data_mof_unit_21963.cif
_audit_creation_date              2012-12-11T14:52:24-0500
_audit_creation_method            fapswitch 2.2
_symmetry_space_group_name_H-M    P1
_symmetry_Int_Tables_number       1
_space_group_crystal_system       triclinic
_cell_length_a                    18.869772
_cell_length_b                    10.890727
_cell_length_c                    18.824299
_cell_angle_alpha                 90.048564
_cell_angle_beta                  90.785403
_cell_angle_gamma                 90.179318
_cell_volume                      3868.11371592

loop_
_atom_site_label
_atom_site_type_symbol
_atom_type_description
_atom_site_fract_x
_atom_site_fract_y
_atom_site_fract_z
_atom_type_partial_charge
C1    C     C_R   0.273958 0.038556 0.855402 0.538330
C2    C     C_R   0.728044 0.042431 0.146447 0.544088
C3    C     C_R   0.773958 0.538556 0.855402 0.538330
C4    C     C_R   0.228044 0.542431 0.146447 0.544089
C5    C     C_3   0.520590 0.721480 0.967458 -0.110028
C6    C     C_3   0.474861 0.728060 0.034479 -0.107228
C7    C     C_3   0.020590 0.221480 0.967458 -0.110028
C8    C     C_3   0.974861 0.228060 0.034479 -0.107228
C9    C     C_R   0.300234 0.527881 0.962572 -0.146663
C10   C     C_R   0.690996 0.546978 0.035745 -0.151048
C11   C     C_R   0.800234 0.027881 0.962572 -0.146663
C12   C     C_R   0.190996 0.046978 0.035745 -0.151048
C13   C     C_R   0.295989 0.511255 0.035786 -0.146047
C14   C     C_R   0.697418 0.533794 0.962439 -0.152855
C15   C     C_R   0.795989 0.011255 0.035786 -0.146047
C16   C     C_R   0.197418 0.033794 0.962439 -0.152855
C17   C     C_R   0.247762 0.580928 0.075403 0.026261
C18   C     C_R   0.761492 0.564406 0.930052 0.030741
C19   C     C_R   0.747762 0.080928 0.075403 0.026261
C20   C     C_R   0.261492 0.064406 0.930052 0.030742
C21   C     C_R   0.207072 0.671448 0.041988 -0.137448
C22   C     C_R   0.819747 0.602216 0.971933 -0.145298
C23   C     C_R   0.707072 0.171448 0.041988 -0.137448
C24   C     C_R   0.319747 0.102216 0.971933 -0.145298
C25   C     C_R   0.209994 0.685716 0.969445 -0.139604
C26   C     C_R   0.813953 0.612091 0.044403 -0.144668
C27   C     C_R   0.709994 0.185716 0.969445 -0.139604
C28   C     C_R   0.313953 0.112091 0.044403 -0.144668
C29   C     C_R   0.255445 0.612582 0.928827 0.024617
C30   C     C_R   0.749096 0.588939 0.076749 0.031288
C31   C     C_R   0.755445 0.112581 0.928827 0.024617
C32   C     C_R   0.249096 0.088939 0.076749 0.031288
C33   C     C_R   0.455851 0.737393 0.526563 -0.127476
C34   C     C_R   0.465424 0.741687 0.454145 -0.138144
C35   C     C_R   0.955850 0.237392 0.526563 -0.127479
C36   C     C_R   0.965423 0.241685 0.454144 -0.138145
C37   C     C_R   0.505536 0.836302 0.425272 0.019442
C38   C     C_R   0.486033 0.827634 0.571186 0.035975
C39   C     C_R   0.005531 0.336303 0.425270 0.019438
C40   C     C_R   0.986028 0.327636 0.571185 0.035958
C41   C     C_R   0.534411 0.928959 0.469372 -0.119820
C42   C     C_R   0.525206 0.923839 0.542459 -0.100570
C43   C     C_R   0.034399 0.428966 0.469369 -0.119838
C44   C     C_R   0.025192 0.423849 0.542456 -0.100597
C45   C     C_R   0.444803 0.817952 0.863254 0.550576
C46   C     C_R   0.556467 0.817818 0.136809 0.552964
C47   C     C_R   0.944803 0.317952 0.863254 0.550575
C48   C     C_R   0.056467 0.317818 0.136809 0.552964
C49   C     C_R   0.213783 0.698645 0.525373 -0.128894
C50   C     C_R   0.816578 0.599990 0.455576 -0.128215
C51   C     C_R   0.713776 0.198631 0.525375 -0.128902
C52   C     C_R   0.316573 0.100004 0.455581 -0.128233
C53   C     C_R   0.213570 0.691633 0.452401 0.037385
C54   C     C_R   0.822804 0.609627 0.527889 0.049889
C55   C     C_R   0.713566 0.191626 0.452404 0.037382
C56   C     C_R   0.322798 0.109639 0.527894 0.049908
C57   C     C_R   0.252739 0.597033 0.420520 -0.005553
C58   C     C_R   0.763793 0.573689 0.570275 -0.009847
C59   C     C_R   0.752740 0.097034 0.420520 -0.005552
C60   C     C_R   0.263786 0.073705 0.570279 -0.009843
C61   C     C_R   0.299415 0.524357 0.461432 -0.157315
C62   C     C_R   0.698620 0.545243 0.538197 -0.169082
C63   C     C_R   0.799420 0.024362 0.461431 -0.157316
C64   C     C_R   0.198612 0.045270 0.538202 -0.169075
C65   C     C_R   0.300194 0.534470 0.534499 -0.155805
C66   C     C_R   0.691125 0.555202 0.465555 -0.111100
C67   C     C_R   0.800198 0.034469 0.534498 -0.155798
C68   C     C_R   0.191118 0.055228 0.465560 -0.111096
C69   C     C_R   0.255588 0.618455 0.566561 -0.006342
C70   C     C_R   0.750324 0.583075 0.424442 0.025466
C71   C     C_R   0.755587 0.118448 0.566562 -0.006336
C72   C     C_R   0.250319 0.083090 0.424446 0.025467
C73   C     C_R   0.262065 0.641915 0.853788 0.543055
C74   C     C_R   0.739178 0.635788 0.148299 0.546103
C75   C     C_R   0.762065 0.141915 0.853788 0.543054
C76   C     C_R   0.239178 0.135788 0.148299 0.546106
C77   C     C_R   0.273818 0.043208 0.644106 0.545171
C78   C     C_R   0.729949 0.049135 0.352442 0.565707
C79   C     C_R   0.773820 0.543203 0.644103 0.545177
C80   C     C_R   0.229949 0.549135 0.352441 0.565710
C81   C     C_R   0.468470 0.823039 0.645870 0.554685
C82   C     C_R   0.530483 0.824268 0.353285 0.551290
C83   C     C_R   0.968468 0.323039 0.645869 0.554682
C84   C     C_R   0.030482 0.324268 0.353284 0.551289
C85   C     C_R   0.261233 0.642334 0.641436 0.552613
C86   C     C_R   0.740285 0.633838 0.355074 0.577734
C87   C     C_R   0.761233 0.142334 0.641436 0.552612
C88   C     C_R   0.240284 0.133841 0.355075 0.577740
C89   C     C_3   0.481685 0.929578 0.032703 -0.111930
C90   C     C_3   0.527066 0.923027 0.964858 -0.111393
C91   C     C_3   0.981686 0.429578 0.032703 -0.111931
C92   C     C_3   0.027066 0.423027 0.964858 -0.111393
C93   C     C_3   0.430051 0.832170 0.001354 -0.139675
C94   C     C_3   0.572045 0.818851 0.998422 -0.139809
C95   C     C_3   0.930051 0.332170 0.001354 -0.139675
C96   C     C_3   0.072045 0.318851 0.998422 -0.139809
C97   C     C_3   0.475913 0.825424 0.934917 0.055290
C98   C     C_3   0.526147 0.825168 0.064832 0.057018
C99   C     C_3   0.975913 0.325424 0.934917 0.055290
C100  C     C_3   0.026147 0.325167 0.064832 0.057018
Cr1   Cr    Cr6+3 0.229630 0.835900 0.747350 1.018852
Cr2   Cr    Cr6+3 0.770370 0.835900 0.252650 1.020358
Cr3   Cr    Cr6+3 0.729630 0.335900 0.747350 1.018846
Cr4   Cr    Cr6+3 0.270370 0.335900 0.252650 1.020351
Cr5   Cr    Cr6+3 0.387410 0.989850 0.750850 1.061507
Cr6   Cr    Cr6+3 0.612590 0.989850 0.249150 1.048937
Cr7   Cr    Cr6+3 0.887410 0.489850 0.750850 1.061519
Cr8   Cr    Cr6+3 0.112590 0.489850 0.249150 1.048936
Cr9   Cr    Cr6+3 0.385800 0.677120 0.749340 1.019766
Cr10  Cr    Cr6+3 0.614200 0.677120 0.250660 1.035097
Cr11  Cr    Cr6+3 0.885800 0.177120 0.749340 1.019766
Cr12  Cr    Cr6+3 0.114200 0.177120 0.250660 1.035097
H1    H     H_    0.371272 0.837280 0.001178 0.122222
H2    H     H_    0.630817 0.813461 0.998663 0.118063
H3    H     H_    0.871272 0.337280 0.001178 0.122222
H4    H     H_    0.130817 0.313461 0.998663 0.118063
H5    H     H_    0.182514 0.770117 0.549829 0.173759
H6    H     H_    0.861999 0.623074 0.423256 0.157741
H7    H     H_    0.682503 0.270097 0.549831 0.173756
H8    H     H_    0.361996 0.123085 0.423262 0.157707
H9    H     H_    0.331035 0.452773 0.437689 0.187394
H10   H     H_    0.653199 0.518906 0.569410 0.144918
H11   H     H_    0.831045 0.952785 0.437687 0.187411
H12   H     H_    0.153190 0.018939 0.569416 0.144916
H13   H     H_    0.334852 0.476785 0.566125 0.178987
H14   H     H_    0.638642 0.547073 0.442118 0.165403
H15   H     H_    0.834860 0.976782 0.566123 0.178938
H16   H     H_    0.138635 0.047107 0.442123 0.165395
H17   H     H_    0.536636 0.635697 0.940234 0.125900
H18   H     H_    0.453209 0.647839 0.063486 0.133737
H19   H     H_    0.036636 0.135697 0.940234 0.125900
H20   H     H_    0.953209 0.147839 0.063486 0.133737
H21   H     H_    0.337298 0.473673 0.932395 0.127890
H22   H     H_    0.640026 0.529863 0.059646 0.129986
H23   H     H_    0.837298 0.973673 0.932395 0.127890
H24   H     H_    0.140026 0.029863 0.059646 0.129986
H25   H     H_    0.170056 0.727175 0.071362 0.137773
H26   H     H_    0.870925 0.622068 0.949129 0.137684
H27   H     H_    0.670056 0.227174 0.071362 0.137772
H28   H     H_    0.370925 0.122068 0.949129 0.137684
H29   H     H_    0.176861 0.755769 0.945432 0.138997
H30   H     H_    0.859582 0.644400 0.074642 0.127985
H31   H     H_    0.676861 0.255769 0.945432 0.138997
H32   H     H_    0.359582 0.144399 0.074642 0.127985
H33   H     H_    0.424513 0.663072 0.547784 0.148573
H34   H     H_    0.443694 0.668911 0.421031 0.135274
H35   H     H_    0.924516 0.163068 0.547784 0.148573
H36   H     H_    0.943697 0.168906 0.421031 0.135276
H37   H     H_    0.567424 0.001207 0.447948 0.161258
H38   H     H_    0.549142 0.993350 0.576353 0.160281
H39   H     H_    0.067407 0.501217 0.447945 0.161260
H40   H     H_    0.049125 0.493363 0.576349 0.160291
O1    O     O_R   0.214270 0.709000 0.827470 -0.523106
O2    O     O_R   0.785730 0.709000 0.172530 -0.525988
O3    O     O_R   0.714270 0.209000 0.827470 -0.523107
O4    O     O_R   0.285730 0.209000 0.172530 -0.525987
O5    O     O_R   0.445950 0.919440 0.676520 -0.451052
O6    O     O_R   0.554050 0.919440 0.323480 -0.500367
O7    O     O_R   0.945950 0.419440 0.676520 -0.451054
O8    O     O_R   0.054050 0.419440 0.323480 -0.500368
O9    O     O_R   0.456730 0.717630 0.669840 -0.528356
O10   O     O_R   0.543270 0.717630 0.330160 -0.519557
O11   O     O_R   0.956730 0.217630 0.669840 -0.528353
O12   O     O_R   0.043270 0.217630 0.330160 -0.519560
O13   O     O_R   0.320620 0.625640 0.672920 -0.505664
O14   O     O_R   0.679380 0.625640 0.327080 -0.487925
O15   O     O_R   0.820620 0.125640 0.672920 -0.505665
O16   O     O_R   0.179380 0.125640 0.327080 -0.487924
O17   O     O_3   0.334280 0.834290 0.749180 -0.275240
O18   O     O_3   0.665720 0.834290 0.250820 -0.273793
O19   O     O_3   0.834280 0.334290 0.749180 -0.275242
O20   O     O_3   0.165720 0.334290 0.250820 -0.273792
O21   O     O_R   0.236160 0.958490 0.823130 -0.509045
O22   O     O_R   0.763840 0.958490 0.176870 -0.510610
O23   O     O_R   0.736160 0.458490 0.823130 -0.509045
O24   O     O_R   0.263840 0.458490 0.176870 -0.510609
O25   O     O_R   0.332080 0.075470 0.831280 -0.531477
O26   O     O_R   0.667920 0.075470 0.168720 -0.520049
O27   O     O_R   0.832080 0.575470 0.831280 -0.531474
O28   O     O_R   0.167920 0.575470 0.168720 -0.520048
O29   O     O_R   0.446300 0.918110 0.826620 -0.506536
O30   O     O_R   0.553700 0.918110 0.173380 -0.500881
O31   O     O_R   0.946300 0.418110 0.826620 -0.506533
O32   O     O_R   0.053700 0.418110 0.173380 -0.500882
O33   O     O_R   0.457110 0.716200 0.831760 -0.519616
O34   O     O_R   0.542890 0.716200 0.168240 -0.523441
O35   O     O_R   0.957110 0.216200 0.831760 -0.519615
O36   O     O_R   0.042890 0.216200 0.168240 -0.523441
O37   O     O_R   0.320980 0.624310 0.823030 -0.513461
O38   O     O_R   0.679020 0.624310 0.176970 -0.513477
O39   O     O_R   0.820980 0.124310 0.823030 -0.513461
O40   O     O_R   0.179020 0.124310 0.176970 -0.513475
O41   O     O_R   0.213890 0.710430 0.665540 -0.519324
O42   O     O_R   0.786110 0.710430 0.334460 -0.523384
O43   O     O_R   0.713890 0.210430 0.665540 -0.519331
O44   O     O_R   0.286110 0.210430 0.334460 -0.523394
O45   O     O_R   0.235810 0.959820 0.673020 -0.509329
O46   O     O_R   0.764190 0.959820 0.326980 -0.512521
O47   O     O_R   0.735810 0.459820 0.673020 -0.509333
O48   O     O_R   0.264190 0.459820 0.326980 -0.512527
O49   O     O_R   0.331700 0.076900 0.669350 -0.475113
O50   O     O_R   0.668300 0.076900 0.330650 -0.482998
O51   O     O_R   0.831700 0.576900 0.669350 -0.475089
O52   O     O_R   0.168300 0.576900 0.330650 -0.483000
C101  C     C_2   0.168323 0.778667 0.411757 0.579559
O53   O     O_2   0.189084 0.821896 0.355780 -0.513954
O54   O     O_R   0.101407 0.809625 0.437218 -0.722066
H41   H     H_    0.074216 0.865452 0.403571 0.333047
C102  C     C_2   0.888939 0.671862 0.552914 0.588117
O55   O     O_2   0.932793 0.618176 0.589315 -0.493607
O56   O     O_R   0.904106 0.789638 0.527923 -0.740926
H42   H     H_    0.951477 0.821953 0.546015 0.343066
C103  C     C_2   0.668316 0.278656 0.411761 0.579537
O57   O     O_2   0.689078 0.321892 0.355785 -0.513959
O58   O     O_R   0.601391 0.309595 0.437219 -0.722056
H43   H     H_    0.574199 0.365420 0.403572 0.333046
C104  C     C_2   0.388935 0.171856 0.552924 0.588194
O59   O     O_2   0.432801 0.118138 0.589288 -0.493634
O60   O     O_R   0.404085 0.289661 0.527988 -0.740939
H44   H     H_    0.451458 0.321963 0.546079 0.343058
H45   H     H_    0.466677 0.014783 0.061006 0.117835
H46   H     H_    0.548083 0.002809 0.935019 0.127788
H47   H     H_    0.966677 0.514783 0.061006 0.117835
H48   H     H_    0.048083 0.502809 0.935019 0.127789
H49   H     H_    0.327741 0.440141 0.060626 0.134858
H50   H     H_    0.652591 0.501003 0.931212 0.116469
H51   H     H_    0.827741 0.940141 0.060626 0.134858
H52   H     H_    0.152591 0.001003 0.931212 0.116469

loop_
_geom_bond_atom_site_label_1
_geom_bond_atom_site_label_2
_ccdc_geom_bond_type
Cr2   O18   S    
C49   C53   A    
C58   C62   A    
C55   C59   A    
C63   H11   S    
C34   C37   A    
Cr4   O48   S    
C41   C42   A    
C14   C18   A    
Cr1   O21   S    
C35   C36   A    
C86   O14   A    
C21   H25   S    
C6    H18   S    
C45   O33   A    
C5    C94   S    
Cr10  O10   S    
C45   O29   A    
C7    C8    S    
Cr4   O24   S    
Cr7   O19   S    
C103  O57   D    
C24   H28   S    
C15   C19   A    
C7    C96   S    
C1    O21   A    
C50   C54   A    
Cr3   O43   S    
C37   C41   A    
C52   C72   A    
C12   H24   S    
C64   C68   A    
C23   H27   S    
Cr9   O17   S    
C39   C84   S    
C48   O36   A    
C11   H23   S    
Cr2   O46   S    
C13   H49   S    
C5    C6    S    
C30   C74   S    
C95   C99   S    
C41   H37   S    
C56   C60   A    
Cr12  O16   S    
Cr5   O49   S    
C92   C96   S    
C47   C99   S    
Cr8   O28   S    
C3    C18   S    
C61   H9    S    
Cr1   O45   S    
C83   O11   A    
C88   O44   A    
Cr6   O30   S    
C9    C13   A    
C74   O38   A    
C11   C15   A    
C36   H36   S    
C54   C102  S    
C87   O15   A    
C12   C16   A    
Cr9   O37   S    
C16   H52   S    
C88   O16   A    
C8    H20   S    
C27   H31   S    
Cr1   O17   S    
C28   H32   S    
C23   C27   A    
C91   C100  S    
Cr2   O2    S    
C90   C97   S    
C7    H19   S    
C84   O12   A    
C90   H46   S    
C9    C29   A    
Cr6   O26   S    
Cr4   O20   S    
C5    H17   S    
C46   C98   S    
C11   C31   A    
C58   C79   S    
C49   C69   A    
C12   C32   A    
Cr3   O19   S    
Cr6   O18   S    
C57   C80   S    
C40   C83   S    
Cr9   O13   S    
C8    C95   S    
C1    O25   A    
C4    O28   A    
Cr12  O12   S    
C75   O39   A    
Cr2   O42   S    
C59   C78   S    
C56   C104  S    
C72   C88   S    
Cr1   O41   S    
C60   C64   A    
C90   C94   S    
C26   H30   S    
C103  O58   S    
C25   C29   A    
C48   C100  S    
C102  O55   D    
C63   C67   A    
C60   C77   S    
C59   C63   A    
C81   O5    A    
Cr8   O32   S    
C27   C31   A    
O54   H41   S    
C94   H2    S    
C78   O50   A    
Cr11  O39   S    
C28   C32   A    
Cr11  O11   S    
C47   O31   A    
C10   C14   A    
C95   H3    S    
O60   H44   S    
C48   O32   A    
C62   C66   A    
Cr3   O47   S    
C82   O10   A    
C51   C55   A    
Cr9   O33   S    
C104  O59   D    
Cr6   O6    S    
Cr10  O38   S    
C17   C21   A    
C3    O27   A    
C15   H51   S    
C68   C72   A    
C74   O2    A    
C65   H13   S    
C7    C99   S    
C19   C23   A    
C43   C44   A    
Cr7   O51   S    
C76   O40   A    
C69   C85   S    
C67   H15   S    
Cr6   O50   S    
C6    C98   S    
C10   C30   A    
C51   H7    S    
O56   H42   S    
C45   C97   S    
C92   H48   S    
C16   C20   A    
C6    C93   S    
Cr5   O5    S    
Cr3   O23   S    
C33   C34   A    
Cr4   O44   S    
C83   O7    A    
C82   O6    A    
C35   H35   S    
C46   O34   A    
C57   C61   A    
C33   H33   S    
Cr12  O40   S    
C71   C87   S    
C4    C17   S    
C52   H8    S    
C101  O53   D    
Cr3   O3    S    
C5    C97   S    
C26   C30   A    
C79   O51   A    
Cr8   O20   S    
C38   C81   S    
C4    O24   A    
C68   H16   S    
C49   H5    S    
C37   C82   S    
Cr4   O4    S    
C104  O60   S    
Cr1   O1    S    
C91   H47   S    
C70   C86   S    
C93   C97   S    
C31   C75   S    
C62   H10   S    
C43   H39   S    
C73   O1    A    
Cr12  O36   S    
C54   C58   A    
C3    O23   A    
C21   C25   A    
Cr10  O34   S    
C1    C20   S    
C53   C57   A    
C79   O47   A    
Cr7   O27   S    
C2    C19   S    
C50   H6    S    
C81   O9    A    
C36   C39   A    
C25   H29   S    
C24   C28   A    
Cr5   O25   S    
C77   O49   A    
C32   C76   S    
Cr7   O7    S    
C51   C71   A    
C75   O3    A    
C14   H50   S    
C84   O8    A    
Cr8   O8    S    
Cr2   O22   S    
C2    O26   A    
C22   H26   S    
Cr11  O35   S    
C33   C38   A    
C44   H40   S    
C13   C17   A    
C89   C98   S    
Cr5   O17   S    
C85   O13   A    
C46   O30   A    
C18   C22   A    
C35   C40   A    
C50   C70   A    
C87   O43   A    
Cr8   O52   S    
C64   H12   S    
C86   O42   A    
C89   H45   S    
Cr10  O14   S    
C85   O41   A    
C8    C100  S    
Cr12  O20   S    
C77   O45   A    
C65   C69   A    
C96   C100  S    
C102  O56   S    
C76   O4    A    
C55   C103  S    
C93   H1    S    
C67   C71   A    
C61   C65   A    
C89   C93   S    
C42   H38   S    
C73   O37   A    
Cr11  O15   S    
C91   C95   S    
C53   C101  S    
C38   C42   A    
C66   H14   S    
C40   C44   A    
C10   H22   S    
C29   C73   S    
C66   C70   A    
Cr10  O18   S    
O58   H43   S    
C22   C26   A    
C39   C43   A    
Cr7   O31   S    
C94   C98   S    
C34   H34   S    
C96   H4    S    
Cr9   O9    S    
C78   O46   A    
Cr5   O29   S    
C89   C90   S    
C80   O52   A    
C101  O54   S    
C47   O35   A    
C20   C24   A    
C2    O22   A    
C91   C92   S    
C52   C56   A    
C92   C99   S    
C9    H21   S    
Cr11  O19   S    
C80   O48   A    
