data_mof_unit_8924.cif
_audit_creation_date              2012-12-10T17:31:12-0500
_audit_creation_method            fapswitch 2.2
_symmetry_space_group_name_H-M    P1
_symmetry_Int_Tables_number       1
_space_group_crystal_system       triclinic
_cell_length_a                    11.999961
_cell_length_b                    12.900694
_cell_length_c                    15.474021
_cell_angle_alpha                 87.169828
_cell_angle_beta                  115.536121
_cell_angle_gamma                 93.254056
_cell_volume                      2157.18206277

loop_
_atom_site_label
_atom_site_type_symbol
_atom_type_description
_atom_site_fract_x
_atom_site_fract_y
_atom_site_fract_z
_atom_type_partial_charge
C1    C     C_R   0.477452 0.299476 0.498541 0.890316
C2    C     C_R   0.649588 0.970280 0.499103 -0.221170
C3    C     C_R   0.358933 0.137176 0.499212 -0.203992
C4    C     C_R   0.640963 0.862856 0.500591 -0.204035
C5    C     C_R   0.560502 0.132560 0.497266 -0.276861
C6    C     C_R   0.439345 0.867474 0.502450 -0.277308
C7    C     C_R   0.552846 0.025884 0.498956 0.186016
C8    C     C_R   0.446982 0.974152 0.500726 0.186100
C9    C     C_R   0.999715 0.594127 0.406182 -0.376648
C10   C     C_R   0.000296 0.405773 0.593765 -0.377928
C11   C     C_R   0.121433 0.586024 0.415719 0.273601
C12   C     C_R   0.522529 0.700530 0.501420 0.891739
C13   C     C_R   0.878550 0.413838 0.584190 0.276658
C14   C     C_R   0.162730 0.460195 0.541675 -0.088890
C15   C     C_R   0.837306 0.539801 0.458348 -0.092634
C16   C     C_R   0.575815 0.492422 0.680429 0.876453
C17   C     C_R   0.423540 0.503187 0.319472 0.874983
C18   C     C_R   0.041255 0.466032 0.534337 0.077263
C19   C     C_R   0.958767 0.533912 0.465652 0.074815
C20   C     C_R   0.619391 0.472053 0.783289 -0.058623
C21   C     C_R   0.375565 0.488528 0.216457 -0.061601
C22   C     C_R   0.779853 0.436815 0.941766 -0.206864
C23   C     C_R   0.639525 0.414332 0.112508 -0.233000
C24   C     C_R   0.209456 0.453809 0.060534 -0.204494
C25   C     C_R   0.744344 0.459133 0.844542 -0.195357
C26   C     C_R   0.248868 0.477465 0.156651 -0.196556
C27   C     C_R   0.530657 0.459226 0.818995 -0.266198
C28   C     C_R   0.461419 0.475003 0.180009 -0.261887
C29   C     C_R   0.563304 0.433756 0.915103 0.092486
C30   C     C_R   0.424610 0.444713 0.086280 0.092526
C31   C     C_R   0.690460 0.426461 0.977824 0.180388
C32   C     C_R   0.296584 0.438504 0.024665 0.180075
C33   C     C_R   0.473003 0.424134 0.951283 0.070357
C34   C     C_R   0.344577 0.413814 0.891191 -0.229107
C35   C     C_R   0.512837 0.427305 0.051209 0.067928
C36   C     C_R   0.726572 0.411911 0.075837 -0.240265
C37   C     C_R   0.257875 0.418909 0.928039 -0.237593
C38   C     C_R   0.535575 0.811810 0.501923 -0.057279
C39   C     C_R   0.464335 0.188214 0.497905 -0.054526
C40   C     C_R   0.350255 0.029756 0.500605 -0.221300
H1    H     H_    0.823023 0.403464 0.124753 0.146057
H2    H     H_    0.111283 0.447538 0.014331 0.127746
H3    H     H_    0.673333 0.403851 0.189180 0.151718
H4    H     H_    0.308795 0.399344 0.815637 0.140174
H5    H     H_    0.357812 0.828138 0.503932 0.162212
H6    H     H_    0.642025 0.171898 0.495769 0.161389
H7    H     H_    0.715770 0.820052 0.500094 0.161486
H8    H     H_    0.284166 0.179981 0.499777 0.160820
H9    H     H_    0.268723 0.990339 0.501860 0.137576
H10   H     H_    0.731117 0.009699 0.497846 0.137304
H11   H     H_    0.773311 0.592234 0.405986 0.132600
H12   H     H_    0.160330 0.411519 0.880061 0.139493
H13   H     H_    0.226752 0.407793 0.594072 0.127758
H14   H     H_    0.846326 0.274293 0.635246 0.158995
H15   H     H_    0.897318 0.369285 0.716256 0.149533
H16   H     H_    0.103361 0.629383 0.283556 0.156121
H17   H     H_    0.152765 0.725344 0.363713 0.158818
H18   H     H_    0.937993 0.646984 0.352500 0.146080
H19   H     H_    0.062040 0.352926 0.647466 0.141133
H20   H     H_    0.557908 0.490714 0.225538 0.157836
H21   H     H_    0.435848 0.473697 0.771303 0.160074
H22   H     H_    0.180904 0.486631 0.184051 0.152856
H23   H     H_    0.814200 0.467451 0.817703 0.152337
H24   H     H_    0.877087 0.429706 0.989009 0.128157
N1    N     N_R   0.799120 0.480200 0.517090 -0.093530
N2    N     N_R   0.200880 0.519800 0.482910 -0.093016
N3    N     N_3   0.837753 0.352475 0.645288 -0.400561
N4    N     N_3   0.162205 0.647113 0.354459 -0.401097
O1    O     O_R   0.580150 0.341050 0.504560 -0.605935
O2    O     O_R   0.419850 0.658950 0.495440 -0.604160
O3    O     O_R   0.388090 0.353760 0.493600 -0.629144
O4    O     O_R   0.611910 0.646240 0.506400 -0.627082
O5    O     O_R   0.650890 0.490020 0.640860 -0.597907
O6    O     O_R   0.349110 0.509980 0.359140 -0.598637
O7    O     O_R   0.458830 0.502730 0.629890 -0.626332
O8    O     O_R   0.541170 0.497270 0.370110 -0.627150
Zn1   Zn    Zn3+2 0.628240 0.491510 0.507320 0.954355
Zn2   Zn    Zn3+2 0.371760 0.508490 0.492680 0.954337

loop_
_geom_bond_atom_site_label_1
_geom_bond_atom_site_label_2
_ccdc_geom_bond_type
C21   C26   A    
C6    H5    S    
O2    Zn2   S    
C34   C37   A    
C24   H2    S    
C14   C18   A    
O1    Zn1   S    
C2    C7    A    
C7    C8    A    
C13   N1    A    
C15   C19   A    
C1    O3    A    
C30   C35   A    
C24   C26   A    
C18   C19   A    
C27   C29   A    
C20   C25   A    
C40   H9    S    
C16   O7    A    
C29   C33   A    
C3    H8    S    
C23   H3    S    
C9    H18   S    
C25   H23   S    
C2    H10   S    
C9    C19   A    
C22   C25   A    
C17   O8    A    
C6    C38   A    
C15   H11   S    
C27   H21   S    
C11   N2    A    
C12   O4    A    
C3    C39   A    
C36   H1    S    
C28   H20   S    
N2    Zn2   S    
N1    Zn1   S    
C22   C31   A    
C16   O5    A    
C34   H4    S    
O8    Zn1   S    
C5    C7    A    
C37   H12   S    
C6    C8    A    
H14   N3    S    
H16   N4    S    
C1    O1    A    
C2    C4    A    
C24   C32   A    
O4    Zn1   S    
C16   C20   S    
C33   C34   A    
C14   N2    A    
C32   C37   A    
C9    C11   A    
C21   C28   A    
C4    C38   A    
C3    C40   A    
C23   C35   A    
C5    C39   A    
C17   O6    A    
H17   N4    S    
C11   N4    S    
C13   N3    S    
C12   O2    A    
C10   C13   A    
H15   N3    S    
C20   C27   A    
C5    H6    S    
C28   C30   A    
C10   H19   S    
C26   H22   S    
C29   C31   A    
C30   C32   A    
C10   C18   A    
C33   C35   A    
C12   C38   S    
O7    Zn2   S    
C17   C21   S    
C1    C39   S    
C22   H24   S    
C14   H13   S    
C23   C36   A    
O6    Zn2   S    
O5    Zn1   S    
C31   C36   A    
C8    C40   A    
O3    Zn2   S    
C4    H7    S    
C15   N1    A    
