data_mof_unit_38761.cif
_audit_creation_date              2012-12-11T16:28:10-0500
_audit_creation_method            fapswitch 2.2
_symmetry_space_group_name_H-M    P1
_symmetry_Int_Tables_number       1
_space_group_crystal_system       triclinic
_cell_length_a                    30.171057
_cell_length_b                    22.508826
_cell_length_c                    18.102059
_cell_angle_alpha                 89.690162
_cell_angle_beta                  123.443873
_cell_angle_gamma                 90.021404
_cell_volume                      10257.7180091

loop_
_atom_site_label
_atom_site_type_symbol
_atom_type_description
_atom_site_fract_x
_atom_site_fract_y
_atom_site_fract_z
_atom_type_partial_charge
C1    C     C_R   0.544164 0.580824 0.742285 -0.126538
C2    C     C_R   0.697817 0.400301 0.432317 -0.166974
C3    C     C_R   0.800003 0.629373 0.027872 -0.213738
C4    C     C_R   0.300579 0.873907 0.030247 -0.213947
C5    C     C_R   0.772770 0.293910 0.176077 -0.211382
C6    C     C_R   0.768412 0.709122 0.172079 -0.210931
C7    C     C_R   0.300765 0.131852 0.022817 -0.213581
C8    C     C_R   0.850745 0.348010 0.052371 -0.231156
C9    C     C_R   0.218510 0.812975 0.143302 -0.231057
C10   C     C_R   0.220506 0.187083 0.141178 -0.236048
C11   C     C_R   0.849788 0.652030 0.056208 -0.231954
C12   C     C_R   0.350145 0.850813 0.057680 -0.231610
C13   C     C_R   0.636243 0.715732 0.422258 -0.170182
C14   C     C_R   0.721736 0.314433 0.144731 -0.238668
C15   C     C_R   0.717345 0.688749 0.140135 -0.232158
C16   C     C_R   0.349788 0.155694 0.049046 -0.231513
C17   C     C_R   0.581529 0.605120 0.426392 -0.119999
C18   C     C_R   0.422867 0.392753 0.576237 -0.130076
C19   C     C_R   0.405012 0.583102 0.573770 -0.123039
C20   C     C_R   0.595888 0.417997 0.427103 -0.132301
C21   C     C_R   0.094737 0.082184 0.425315 -0.136598
C22   C     C_R   0.906222 0.916869 0.575688 -0.124925
C23   C     C_R   0.922042 0.107958 0.573882 -0.130220
C24   C     C_R   0.366886 0.283593 0.582079 -0.171349
C25   C     C_R   0.081386 0.893494 0.428368 -0.124807
C26   C     C_R   0.390316 0.604954 0.285011 -0.127126
C27   C     C_R   0.618380 0.417612 0.741929 -0.119995
C28   C     C_R   0.618129 0.581268 0.742734 -0.140051
C29   C     C_R   0.389468 0.398058 0.278178 -0.136444
C30   C     C_R   0.889546 0.102447 0.278074 -0.131974
C31   C     C_R   0.118269 0.919073 0.743432 -0.133754
C32   C     C_R   0.118248 0.082350 0.741442 -0.119633
C33   C     C_R   0.890512 0.895140 0.285687 -0.127138
C34   C     C_R   0.597783 0.595307 0.793387 0.058536
C35   C     C_R   0.888456 0.236178 0.568955 -0.162296
C36   C     C_R   0.417952 0.367229 0.250535 0.055603
C37   C     C_R   0.416492 0.634230 0.251721 0.054228
C38   C     C_R   0.598840 0.404697 0.794194 0.058459
C39   C     C_R   0.098540 0.095511 0.793265 0.058577
C40   C     C_R   0.916752 0.866077 0.252516 0.054732
C41   C     C_R   0.918156 0.133640 0.250838 0.054770
C42   C     C_R   0.098051 0.905313 0.794475 0.058709
C43   C     C_R   0.618217 0.637796 0.499679 0.033631
C44   C     C_R   0.384355 0.361157 0.503817 0.033339
C45   C     C_R   0.355326 0.597581 0.499919 0.036071
C46   C     C_R   0.112605 0.764258 0.434227 -0.163058
C47   C     C_R   0.645379 0.403133 0.501255 0.036466
C48   C     C_R   0.144361 0.096520 0.497795 0.036853
C49   C     C_R   0.856231 0.903334 0.503631 0.036131
C50   C     C_R   0.882386 0.138571 0.499507 0.033807
C51   C     C_R   0.118632 0.861626 0.503445 0.034227
C52   C     C_R   0.221751 0.661274 0.421022 -0.164982
C53   C     C_R   0.779598 0.340454 0.581377 -0.164865
C54   C     C_R   0.681031 0.788669 0.571111 -0.184014
C55   C     C_R   0.320977 0.210796 0.432874 -0.186843
C56   C     C_R   0.790772 0.270369 0.419059 -0.161522
C57   C     C_R   0.182273 0.139526 0.418328 -0.172417
C58   C     C_R   0.211036 0.731080 0.583346 -0.161945
C59   C     C_R   0.285370 0.119746 0.565039 -0.182975
C60   C     C_R   0.715683 0.881115 0.439141 -0.183914
C61   C     C_R   0.265294 0.641020 0.421741 -0.173645
C62   C     C_R   0.735946 0.360699 0.580396 -0.173000
C63   C     C_R   0.658276 0.734795 0.570591 -0.161918
C64   C     C_R   0.344362 0.264241 0.433555 -0.161576
C65   C     C_R   0.813536 0.216787 0.419768 -0.183183
C66   C     C_R   0.188036 0.784456 0.582758 -0.168665
C67   C     C_R   0.242181 0.098921 0.565729 -0.165864
C68   C     C_R   0.819120 0.860242 0.584195 -0.173729
C69   C     C_R   0.758623 0.901839 0.437666 -0.167303
C70   C     C_R   0.307462 0.613016 0.497409 0.144901
C71   C     C_R   0.693607 0.388218 0.504366 0.143134
C72   C     C_R   0.637978 0.696765 0.497673 0.146205
C73   C     C_R   0.365049 0.302186 0.506509 0.147719
C74   C     C_R   0.861225 0.197835 0.496319 0.150374
C75   C     C_R   0.139979 0.802726 0.506625 0.144286
C76   C     C_R   0.190310 0.111339 0.494023 0.143870
C77   C     C_R   0.810628 0.888786 0.508435 0.143260
C78   C     C_R   0.259499 0.620920 0.568644 -0.182973
C79   C     C_R   0.741759 0.380060 0.433371 -0.182555
C80   C     C_R   0.658929 0.769370 0.422811 -0.163415
C81   C     C_R   0.465724 0.397020 0.284799 -0.130629
C82   C     C_R   0.343493 0.230424 0.581399 -0.163316
C83   C     C_R   0.865600 0.290077 0.568164 -0.183653
C84   C     C_R   0.135628 0.710545 0.434933 -0.183369
C85   C     C_R   0.225292 0.160391 0.417722 -0.161711
C86   C     C_R   0.776354 0.839537 0.585603 -0.163712
C87   C     C_R   0.219944 0.654306 0.496357 0.117642
C88   C     C_R   0.781408 0.346945 0.505965 0.116032
C89   C     C_R   0.684029 0.804664 0.499019 0.116909
C90   C     C_R   0.317783 0.195268 0.504966 0.117155
C91   C     C_R   0.815050 0.305703 0.495165 0.121308
C92   C     C_R   0.462342 0.601533 0.279067 -0.130200
C93   C     C_R   0.186452 0.695392 0.507558 0.115476
C94   C     C_R   0.276955 0.153724 0.493150 0.118765
C95   C     C_R   0.724515 0.846665 0.510893 0.116774
C96   C     C_R   0.401437 0.692201 0.205093 0.132940
C97   C     C_R   0.631093 0.388935 0.889619 0.131317
C98   C     C_R   0.629277 0.611792 0.888148 0.131669
C99   C     C_R   0.402476 0.310468 0.202146 0.133330
C100  C     C_R   0.903094 0.191233 0.203645 0.132375
C101  C     C_R   0.129659 0.889666 0.889849 0.131125
C102  C     C_R   0.130686 0.111785 0.888127 0.131612
C103  C     C_R   0.545291 0.420098 0.743920 -0.142174
C104  C     C_R   0.901555 0.808621 0.205517 0.134482
C105  C     C_R   0.414592 0.771229 0.127342 -0.213451
C106  C     C_R   0.638211 0.355018 0.023433 -0.214120
C107  C     C_R   0.634802 0.647026 0.019542 -0.213192
C108  C     C_R   0.413938 0.234813 0.119168 -0.212519
C109  C     C_R   0.914730 0.268086 0.121460 -0.212440
C110  C     C_R   0.135460 0.854127 0.021827 -0.211423
C111  C     C_R   0.137685 0.145110 0.021566 -0.212009
C112  C     C_R   0.914870 0.730268 0.127967 -0.214388
C113  C     C_R   0.430261 0.717147 0.172744 -0.169961
C114  C     C_R   0.045053 0.080088 0.743326 -0.147325
C115  C     C_R   0.607459 0.376309 0.936483 -0.170657
C116  C     C_R   0.604879 0.624781 0.933551 -0.171565
C117  C     C_R   0.430061 0.287713 0.166491 -0.172798
C118  C     C_R   0.930583 0.214429 0.167875 -0.173195
C119  C     C_R   0.105291 0.876019 0.935222 -0.171570
C120  C     C_R   0.107132 0.123418 0.935263 -0.171781
C121  C     C_R   0.930803 0.783657 0.174170 -0.178054
C122  C     C_R   0.358677 0.724034 0.195701 -0.254895
C123  C     C_R   0.686346 0.383973 0.933517 -0.257534
C124  C     C_R   0.684507 0.617325 0.932681 -0.258326
C125  C     C_R   0.962562 0.898669 0.279630 -0.135262
C126  C     C_R   0.360343 0.277884 0.193747 -0.255500
C127  C     C_R   0.861500 0.224170 0.196629 -0.251679
C128  C     C_R   0.185022 0.885405 0.935024 -0.256110
C129  C     C_R   0.185736 0.118220 0.931131 -0.258292
C130  C     C_R   0.858089 0.777387 0.194397 -0.255431
C131  C     C_R   0.341890 0.778252 0.149524 0.079510
C132  C     C_R   0.717854 0.361636 0.020175 0.081251
C133  C     C_R   0.715219 0.640319 0.018540 0.081599
C134  C     C_R   0.342646 0.225133 0.144692 0.079741
C135  C     C_R   0.843965 0.277581 0.148233 0.078671
C136  C     C_R   0.965804 0.103487 0.284943 -0.129789
C137  C     C_R   0.215940 0.862353 0.021249 0.081112
C138  C     C_R   0.217066 0.140615 0.017285 0.081514
C139  C     C_R   0.841175 0.723733 0.147723 0.079579
C140  C     C_R   0.369461 0.800738 0.112497 0.190636
C141  C     C_R   0.692743 0.344741 0.063893 0.192667
C142  C     C_R   0.689264 0.657698 0.060518 0.189643
C143  C     C_R   0.369339 0.204603 0.105204 0.190429
C144  C     C_R   0.870418 0.298546 0.108362 0.190643
C145  C     C_R   0.190110 0.844228 0.063289 0.189570
C146  C     C_R   0.191921 0.156568 0.061138 0.193245
C147  C     C_R   0.044326 0.919425 0.742855 -0.127502
C148  C     C_R   0.869156 0.701385 0.111550 0.191691
C149  C     C_R   0.294841 0.806971 0.130706 0.072193
C150  C     C_R   0.772308 0.348206 0.059106 0.073507
C151  C     C_R   0.769713 0.653687 0.058302 0.072866
C152  C     C_R   0.295810 0.195916 0.126035 0.075445
C153  C     C_R   0.797211 0.306839 0.129987 0.073002
C154  C     C_R   0.270525 0.849225 0.061077 0.073526
C155  C     C_R   0.271279 0.154781 0.055600 0.072791
C156  C     C_R   0.793822 0.695381 0.127952 0.070874
C157  C     C_R   0.628594 0.606657 0.573920 -0.130446
C158  C     C_R   0.303327 0.600646 0.569425 -0.166488
C159  C     C_R   0.370668 0.393789 0.428677 -0.123849
C160  C     C_R   0.355576 0.582160 0.426538 -0.139914
C161  C     C_R   0.644388 0.417490 0.574288 -0.124586
C162  C     C_R   0.144529 0.081913 0.572447 -0.121815
C163  C     C_R   0.855383 0.918668 0.428513 -0.136427
C164  C     C_R   0.869256 0.104756 0.426513 -0.120669
C165  C     C_R   0.128956 0.893746 0.575920 -0.128806
C166  C     C_R   0.801631 0.371747 0.026200 -0.213782
C167  C     C_R   0.269695 0.792784 0.175256 -0.211812
C168  C     C_R   0.271121 0.208375 0.171722 -0.215539
H1    H     H_    0.517633 0.577761 0.764694 0.083446
H2    H     H_    0.618784 0.343175 0.056998 0.120268
H3    H     H_    0.871537 0.633354 0.030096 0.130115
H4    H     H_    0.371638 0.869644 0.031043 0.129403
H5    H     H_    0.703546 0.302564 0.180308 0.125660
H6    H     H_    0.698461 0.701125 0.174294 0.129822
H7    H     H_    0.370735 0.138274 0.020739 0.129127
H8    H     H_    0.614773 0.659190 0.051880 0.119940
H9    H     H_    0.434927 0.218928 0.090115 0.121913
H10   H     H_    0.935560 0.284295 0.092154 0.122018
H11   H     H_    0.115501 0.841373 0.054168 0.120665
H12   H     H_    0.118279 0.156206 0.055318 0.120499
H13   H     H_    0.937070 0.712839 0.101936 0.121428
H14   H     H_    0.656099 0.618504 0.642345 0.094610
H15   H     H_    0.339032 0.383512 0.361990 0.087224
H16   H     H_    0.321136 0.577891 0.359660 0.090636
H17   H     H_    0.497180 0.386435 0.275446 0.091432
H18   H     H_    0.678267 0.420804 0.641860 0.087143
H19   H     H_    0.178670 0.079682 0.639937 0.084604
H20   H     H_    0.820728 0.921895 0.361645 0.086135
H21   H     H_    0.837678 0.113309 0.359130 0.082237
H22   H     H_    0.155790 0.882200 0.644831 0.094906
H23   H     H_    0.568080 0.614432 0.358993 0.082823
H24   H     H_    0.442716 0.380492 0.645163 0.095767
H25   H     H_    0.416372 0.581564 0.641777 0.085397
H26   H     H_    0.585472 0.420856 0.359717 0.084051
H27   H     H_    0.084114 0.078076 0.357947 0.088243
H28   H     H_    0.488419 0.607869 0.256700 0.081579
H29   H     H_    0.918053 0.919626 0.643861 0.087902
H30   H     H_    0.941145 0.120750 0.642280 0.094868
H31   H     H_    0.068488 0.882918 0.361620 0.086396
H32   H     H_    0.192306 0.687642 0.364878 0.113819
H33   H     H_    0.809118 0.314397 0.637863 0.115886
H34   H     H_    0.699804 0.815666 0.630212 0.117380
H35   H     H_    0.301930 0.183825 0.373737 0.121761
H36   H     H_    0.751548 0.280870 0.362029 0.111835
H37   H     H_    0.250555 0.720971 0.639843 0.116226
H38   H     H_    0.325054 0.113483 0.623379 0.114548
H39   H     H_    0.519792 0.424689 0.768158 0.083802
H40   H     H_    0.675842 0.887626 0.381320 0.115342
H41   H     H_    0.267370 0.650839 0.365099 0.108003
H42   H     H_    0.733933 0.351129 0.637148 0.111785
H43   H     H_    0.658197 0.722229 0.628304 0.114780
H44   H     H_    0.344694 0.276818 0.376105 0.104706
H45   H     H_    0.791703 0.188923 0.362014 0.104965
H46   H     H_    0.209780 0.812948 0.639902 0.108354
H47   H     H_    0.249514 0.075231 0.623626 0.106859
H48   H     H_    0.750952 0.925852 0.379794 0.108863
H49   H     H_    0.334537 0.577221 0.627363 0.107807
H50   H     H_    0.019401 0.075895 0.767352 0.086399
H51   H     H_    0.666564 0.423396 0.374048 0.108372
H52   H     H_    0.620450 0.687791 0.364657 0.104696
H53   H     H_    0.383159 0.311771 0.639609 0.108167
H54   H     H_    0.926391 0.223798 0.627503 0.112324
H55   H     H_    0.074406 0.776477 0.376036 0.113834
H56   H     H_    0.142675 0.149211 0.361811 0.108572
H57   H     H_    0.858821 0.850076 0.640022 0.110936
H58   H     H_    0.885364 0.317264 0.627090 0.114930
H59   H     H_    0.115778 0.683169 0.376207 0.115866
H60   H     H_    0.217537 0.186991 0.361710 0.111882
H61   H     H_    0.988865 0.892423 0.257708 0.082560
H62   H     H_    0.784384 0.812519 0.641422 0.116578
H63   H     H_    0.258478 0.614619 0.627057 0.115926
H64   H     H_    0.742771 0.386145 0.374907 0.118301
H65   H     H_    0.661351 0.780151 0.366749 0.113622
H66   H     H_    0.341047 0.219997 0.637526 0.115785
H67   H     H_    0.704194 0.392487 0.897148 0.113759
H68   H     H_    0.336620 0.704552 0.220118 0.114949
H69   H     H_    0.339869 0.295777 0.221982 0.111367
H70   H     H_    0.702929 0.608817 0.897289 0.113816
H71   H     H_    0.203482 0.894786 0.899861 0.113493
H72   H     H_    0.997263 0.114302 0.275683 0.090098
H73   H     H_    0.841180 0.206031 0.225193 0.115418
H74   H     H_    0.835617 0.796956 0.217815 0.115454
H75   H     H_    0.203452 0.110847 0.894366 0.114203
H76   H     H_    0.565030 0.380434 0.905282 0.111487
H77   H     H_    0.464298 0.694667 0.180688 0.111044
H78   H     H_    0.463307 0.311272 0.173119 0.112907
H79   H     H_    0.562460 0.620233 0.901851 0.111943
H80   H     H_    0.062752 0.879666 0.903024 0.112086
H81   H     H_    0.963487 0.190623 0.173617 0.112402
H82   H     H_    0.965387 0.805620 0.183488 0.109822
H83   H     H_    0.017830 0.922755 0.765280 0.083451
H84   H     H_    0.064877 0.118168 0.904751 0.111825
H85   H     H_    0.787120 0.408553 0.979951 0.128802
H86   H     H_    0.289014 0.766265 0.235095 0.131886
H87   H     H_    0.290299 0.234291 0.231440 0.125216
H88   H     H_    0.785912 0.592513 0.982415 0.129526
H89   H     H_    0.286363 0.911217 0.984897 0.128873
H90   H     H_    0.792483 0.268122 0.236603 0.136750
H91   H     H_    0.787513 0.735243 0.231806 0.133698
H92   H     H_    0.286538 0.095299 0.976819 0.128338
H93   H     H_    0.352388 0.615438 0.274548 0.090166
H94   H     H_    0.436447 0.788698 0.100556 0.121585
H95   H     H_    0.659300 0.419587 0.762049 0.081688
H96   H     H_    0.659323 0.577612 0.764857 0.083555
H97   H     H_    0.348450 0.391604 0.255142 0.087772
H98   H     H_    0.848452 0.109098 0.254419 0.086511
H99   H     H_    0.159448 0.923015 0.765657 0.080937
H100  H     H_    0.159181 0.080225 0.761620 0.081994
H101  H     H_    0.852732 0.884594 0.275769 0.091691
H102  H     H_    0.871524 0.365786 0.023820 0.129571
H103  H     H_    0.199744 0.800086 0.177577 0.129733
H104  H     H_    0.202282 0.198427 0.176777 0.126775
N1    N     N_R   0.532910 0.558440 0.665240 -0.037619
N2    N     N_R   0.402970 0.441090 0.454460 -0.037393
N3    N     N_R   0.402970 0.558910 0.454460 -0.037096
N4    N     N_R   0.597030 0.441090 0.545540 -0.038172
N5    N     N_R   0.097030 0.058910 0.545540 -0.038723
N6    N     N_R   0.902970 0.941090 0.454460 -0.037743
N7    N     N_R   0.902970 0.058910 0.454460 -0.038099
N8    N     N_R   0.097030 0.941090 0.545540 -0.039513
N9    N     N_R   0.566200 0.559270 0.454460 -0.039000
N10   N     N_R   0.433800 0.440730 0.545540 -0.039749
N11   N     N_R   0.433800 0.559270 0.545540 -0.038930
N12   N     N_R   0.467090 0.441560 0.334760 -0.039690
N13   N     N_R   0.566200 0.440730 0.454460 -0.038572
N14   N     N_R   0.066200 0.059270 0.454460 -0.037947
N15   N     N_R   0.933800 0.940730 0.545540 -0.038516
N16   N     N_R   0.933800 0.059270 0.545540 -0.039283
N17   N     N_R   0.066200 0.940730 0.454460 -0.037963
N18   N     N_R   0.421050 0.559750 0.334770 -0.040013
N19   N     N_R   0.578950 0.440250 0.665230 -0.038384
N20   N     N_R   0.578950 0.559750 0.665230 -0.038167
N21   N     N_R   0.421050 0.440250 0.334770 -0.038201
N22   N     N_R   0.921050 0.059750 0.334770 -0.039012
N23   N     N_R   0.467090 0.558440 0.334760 -0.039380
N24   N     N_R   0.078950 0.940250 0.665230 -0.038695
N25   N     N_R   0.078950 0.059750 0.665230 -0.038521
N26   N     N_R   0.921050 0.940250 0.334770 -0.040128
N27   N     N_R   0.532910 0.441560 0.665240 -0.037661
N28   N     N_R   0.032910 0.058440 0.665240 -0.037350
N29   N     N_R   0.967090 0.941560 0.334760 -0.038373
N30   N     N_R   0.967090 0.058440 0.334760 -0.039661
N31   N     N_R   0.032910 0.941560 0.665240 -0.037558
N32   N     N_R   0.597030 0.558910 0.545540 -0.038839
Ni1   Ni    Ni4+2 0.483090 0.500000 0.604440 0.208305
Ni2   Ni    Ni4+2 0.516910 0.500000 0.395560 0.211407
Ni3   Ni    Ni4+2 0.983090 0.000000 0.604440 0.210233
Ni4   Ni    Ni4+2 0.016910 0.000000 0.395560 0.213758
Ni5   Ni    Ni4+2 0.586780 0.500000 0.604440 0.210167
Ni6   Ni    Ni4+2 0.413220 0.500000 0.395560 0.216239
Ni7   Ni    Ni4+2 0.086780 0.000000 0.604440 0.208203
Ni8   Ni    Ni4+2 0.913220 0.000000 0.395560 0.214006

loop_
_geom_bond_atom_site_label_1
_geom_bond_atom_site_label_2
_ccdc_geom_bond_type
C61   C70   A    
N24   N31   A    
C122  H68   S    
C11   H3    S    
C31   C42   A    
C100  C127  A    
C132  C150  A    
N2    N10   A    
N7    Ni8   S    
C12   H4    S    
C17   H23   S    
C18   H24   S    
C124  C133  A    
C57   C76   A    
C52   C61   A    
C48   C162  A    
C54   C63   A    
N30   Ni4   S    
C101  C128  A    
C20   H26   S    
C131  C140  A    
N26   Ni8   S    
C134  C143  A    
C127  H73   S    
C97   C115  A    
C110  C145  A    
C21   C48   A    
C45   C160  A    
C42   C147  A    
C109  C118  A    
N4    N13   A    
C147  N31   A    
N6    N15   A    
C50   C164  A    
C28   N20   A    
N10   Ni1   S    
C58   H37   S    
C78   H63   S    
C53   H33   S    
C37   C96   S    
C6    H91   S    
C17   C43   A    
C65   H45   S    
C161  H18   S    
C25   H31   S    
C18   C44   A    
C15   C142  A    
C116  H79   S    
C55   H35   S    
C165  H22   S    
C41   C100  S    
C85   H60   S    
C47   C71   S    
C22   C49   A    
C46   C84   A    
N21   Ni6   S    
C16   H7    S    
C136  H72   S    
C131  C149  A    
C157  H14   S    
C2    C71   A    
C83   C91   A    
C31   N24   A    
C68   C77   A    
C26   N18   A    
C120  H84   S    
C92   H28   S    
C13   C72   A    
C19   N11   A    
N8    N17   A    
C106  C115  A    
C54   H34   S    
C105  C140  A    
C113  H77   S    
C57   C85   A    
C108  H9    S    
C109  C144  A    
C84   C93   A    
C20   C47   A    
C3    C11   A    
C86   C95   A    
C60   C95   A    
N23   Ni2   S    
C126  C134  A    
C10   C168  A    
C44   C159  A    
C64   H44   S    
C133  C151  A    
C78   C87   A    
C123  C132  A    
C48   C76   S    
C22   H29   S    
C69   C77   A    
C119  H80   S    
C139  C156  A    
C117  H78   S    
N8    Ni7   S    
C98   C124  A    
C92   N23   A    
C133  C142  A    
C105  C113  A    
C103  H39   S    
C55   C90   A    
C125  H61   S    
C50   C74   S    
C162  H19   S    
C11   C148  A    
C107  H8    S    
C150  C166  A    
C53   C62   A    
C8    H102  S    
C59   C67   A    
N12   Ni2   S    
C109  H10   S    
C78   C158  A    
C64   C73   A    
C30   C41   A    
C2    C79   A    
C36   C99   S    
N3    N11   A    
C21   N14   A    
C125  N29   A    
C23   N16   A    
C106  H2    S    
C69   H48   S    
C114  H50   S    
C46   C75   A    
C162  N5    A    
C1    C34   A    
C99   C126  A    
C139  C148  A    
C33   C40   A    
C31   H99   S    
C111  C146  A    
C29   N21   A    
N5    Ni7   S    
N27   Ni1   S    
N6    Ni8   S    
C65   C74   A    
C163  H20   S    
C38   C103  A    
C99   C117  A    
C124  H70   S    
C88   C91   S    
C36   C81   A    
N24   Ni7   S    
C62   H42   S    
C7    C155  A    
C10   C146  A    
N28   Ni3   S    
C51   C165  A    
C4    C12   A    
C165  N8    A    
C42   C101  S    
C122  C131  A    
C39   C102  S    
C132  C141  A    
C37   C92   A    
C108  C117  A    
C63   H43   S    
C43   C157  A    
C110  C119  A    
C19   C45   A    
C112  H13   S    
C112  C121  A    
C97   C123  A    
C130  H74   S    
C121  H82   S    
C110  H11   S    
C138  C146  A    
C40   C125  A    
C87   C93   S    
C49   C77   S    
C62   C71   A    
C20   N13   A    
C13   H52   S    
C107  C116  A    
C49   C163  A    
C22   N15   A    
N2    Ni6   S    
C115  H76   S    
C104  C130  A    
C27   N19   A    
C84   H59   S    
C6    C156  A    
C83   H58   S    
C138  C155  A    
C4    C154  A    
C35   C74   A    
C4    H89   S    
N19   Ni5   S    
C29   H97   S    
C149  C167  A    
C26   H93   S    
C103  N27   A    
C23   H30   S    
C147  H83   S    
C137  C145  A    
C58   C93   A    
C127  C135  A    
C136  N30   A    
C24   C73   A    
C27   C38   A    
C166  H85   S    
C32   C39   A    
C80   C89   A    
C3    H88   S    
N20   Ni5   S    
C56   C91   A    
C105  H94   S    
C150  C153  A    
C12   C140  A    
C164  N7    A    
C59   C94   A    
N13   Ni2   S    
C17   N9    A    
C9    H103  S    
C13   C80   A    
C28   C34   A    
C10   H104  S    
C114  N28   A    
C7    H92   S    
C130  C139  A    
C79   C88   A    
C152  C168  A    
C90   C94   S    
N32   Ni5   S    
C86   H62   S    
C16   C143  A    
C35   H54   S    
C35   C83   A    
C68   H57   S    
C60   H40   S    
C23   C50   A    
C24   H53   S    
C46   H55   S    
C128  H71   S    
N26   N29   A    
C66   H46   S    
C149  C154  A    
C152  C155  A    
C27   H95   S    
C61   H41   S    
C151  C156  A    
C21   H27   S    
N9    N32   A    
C5    C14   A    
C123  H67   S    
C33   N26   A    
C7    C16   A    
N18   Ni6   S    
C82   H66   S    
C2    H51   S    
C96   C113  A    
C100  C118  A    
C157  N32   A    
C102  C120  A    
C30   N22   A    
C106  C141  A    
N14   Ni4   S    
C15   H6    S    
C45   C70   S    
C159  N2    A    
C80   H65   S    
N15   Ni3   S    
C118  H81   S    
C26   C37   A    
C14   H5    S    
C82   C90   A    
C96   C122  A    
C158  H49   S    
C66   C75   A    
C9    C145  A    
C34   C98   S    
C137  C154  A    
C44   C73   S    
C79   H64   S    
N22   N30   A    
C47   C161  A    
N22   Ni8   S    
C63   C72   A    
C70   C158  A    
C126  H69   S    
C108  C143  A    
C57   H56   S    
C89   C95   S    
C43   C72   S    
C68   C86   A    
C67   H47   S    
C102  C129  A    
N17   Ni4   S    
C29   C36   A    
C60   C69   A    
C51   C75   S    
C56   C65   A    
C24   C82   A    
N9    Ni2   S    
N25   Ni7   S    
C6    C15   A    
C58   C66   A    
C129  C138  A    
C30   H98   S    
N1    N20   A    
N19   N27   A    
C1    N1    A    
C14   C141  A    
C134  C152  A    
C167  H86   S    
C81   N12   A    
C38   C97   S    
C81   H17   S    
N18   N23   A    
C101  C119  A    
C9    C167  A    
C54   C89   A    
N1    Ni1   S    
C160  N3    A    
N31   Ni3   S    
C104  C121  A    
C129  H75   S    
N29   Ni4   S    
C28   H96   S    
C168  H87   S    
C112  C148  A    
C25   N17   A    
C111  C120  A    
C128  C137  A    
C25   C51   A    
N16   Ni3   S    
C161  N4    A    
C40   C104  S    
C85   C94   A    
C98   C116  A    
C18   N10   A    
C39   C114  A    
C55   C64   A    
C8    C144  A    
C107  C142  A    
C8    C166  A    
C52   H32   S    
N3    Ni6   S    
C135  C144  A    
C19   H25   S    
N25   N28   A    
C164  H21   S    
C59   H38   S    
C33   H101  S    
C52   C87   A    
N4    Ni5   S    
C32   N25   A    
C56   H36   S    
C163  N6    A    
N5    N14   A    
C3    C151  A    
C135  C153  A    
N7    N16   A    
C111  H12   S    
N12   N21   A    
C5    C153  A    
C1    H1    S    
C5    H90   S    
C32   H100  S    
C53   C88   A    
C67   C76   A    
C159  H15   S    
C160  H16   S    
C41   C136  A    
N11   Ni1   S    
