data_mof_unit_15706.cif
_audit_creation_date              2012-12-11T16:48:26-0500
_audit_creation_method            fapswitch 2.2
_symmetry_space_group_name_H-M    P1
_symmetry_Int_Tables_number       1
_space_group_crystal_system       triclinic
_cell_length_a                    17.307932
_cell_length_b                    24.375947
_cell_length_c                    14.949982
_cell_angle_alpha                 90.041824
_cell_angle_beta                  125.380026
_cell_angle_gamma                 89.836901
_cell_volume                      5142.55055246

loop_
_atom_site_label
_atom_site_type_symbol
_atom_type_description
_atom_site_fract_x
_atom_site_fract_y
_atom_site_fract_z
_atom_type_partial_charge
C1    C     C_R   0.356515 0.347172 0.910106 -0.162687
C2    C     C_R   0.538568 0.497037 0.711694 0.072626
C3    C     C_R   0.057219 0.847118 0.909681 -0.140539
C4    C     C_R   0.384483 0.315637 0.000543 0.081990
C5    C     C_R   0.619529 0.316022 0.001974 0.078943
C6    C     C_R   0.883397 0.815931 0.999890 0.080371
C7    C     C_R   0.118944 0.815998 0.002301 0.080241
C8    C     C_R   0.063562 0.997813 0.365694 0.080354
C9    C     C_R   0.038466 0.997025 0.711586 0.072625
C10   C     C_R   0.175635 0.497740 0.722360 0.134175
C11   C     C_R   0.811338 0.498322 0.354239 0.137711
C12   C     C_R   0.674419 0.997863 0.688414 0.137633
C13   C     C_R   0.297035 0.998329 0.367637 0.139695
C14   C     C_2   0.924923 0.456916 0.533044 -0.114507
C15   C     C_2   0.022489 0.453275 0.630810 -0.110656
C16   C     C_2   0.420479 0.953513 0.535854 -0.114573
C17   C     C_R   0.647777 0.348193 0.091727 -0.143425
C18   C     C_2   0.522050 0.957323 0.620902 -0.112370
C19   C     C_2   0.898293 0.498979 0.462992 -0.196789
C20   C     C_2   0.075012 0.498556 0.674246 -0.192755
C21   C     C_2   0.370622 0.998884 0.484551 -0.200251
C22   C     C_2   0.572514 0.997773 0.617101 -0.199997
C23   C     C_R   0.266797 0.691476 0.106287 0.164957
C24   C     C_R   0.735427 0.692543 0.898027 0.166167
C25   C     C_R   0.764953 0.190002 0.105817 0.165259
C26   C     C_R   0.236934 0.191944 0.899110 0.166275
C27   C     C_R   0.246210 0.671418 0.006994 0.037844
C28   C     C_R   0.855290 0.847577 0.909540 -0.157361
C29   C     C_R   0.753906 0.673807 0.997312 0.035360
C30   C     C_R   0.743276 0.168762 0.006665 0.035985
C31   C     C_R   0.255017 0.173279 0.998271 0.034812
C32   C     C_R   0.157759 0.684416 0.909875 -0.201556
C33   C     C_R   0.842079 0.686749 0.094832 -0.199120
C34   C     C_R   0.655273 0.182676 0.909593 -0.200170
C35   C     C_R   0.342793 0.186608 0.096014 -0.198770
C36   C     C_R   0.604677 0.227617 0.909287 -0.203786
C37   C     C_R   0.396648 0.229160 0.095841 -0.203728
C38   C     C_R   0.105251 0.728073 0.909795 -0.203147
C39   C     C_R   0.147388 0.848199 0.091924 -0.144121
C40   C     C_R   0.895975 0.729219 0.094592 -0.203402
C41   C     C_R   0.642467 0.258072 0.006211 0.032859
C42   C     C_R   0.362122 0.257909 0.997859 0.030342
C43   C     C_R   0.142169 0.758224 0.006843 0.032460
C44   C     C_R   0.860987 0.758227 0.996776 0.030528
C45   C     C_R   0.404259 0.625467 0.093049 -0.146240
C46   C     C_R   0.592523 0.631715 0.909708 -0.142141
C47   C     C_R   0.902669 0.123900 0.092545 -0.147036
C48   C     C_R   0.093165 0.131414 0.910078 -0.141549
C49   C     C_R   0.714935 0.234139 0.105553 0.156318
C50   C     C_R   0.319051 0.644275 0.003157 0.072339
C51   C     C_R   0.290527 0.233492 0.898881 0.164752
C52   C     C_R   0.215307 0.734606 0.106265 0.155626
C53   C     C_R   0.788994 0.734053 0.897717 0.163735
C54   C     C_3   0.801581 0.258705 0.205188 -0.518140
C55   C     C_3   0.206909 0.257779 0.795216 -0.524430
C56   C     C_3   0.301422 0.759515 0.206249 -0.517864
C57   C     C_3   0.705160 0.758557 0.794503 -0.523630
C58   C     C_3   0.357562 0.712231 0.206261 -0.522883
C59   C     C_3   0.646588 0.713443 0.795221 -0.530049
C60   C     C_3   0.856358 0.210548 0.205406 -0.522683
C61   C     C_R   0.680890 0.646375 0.000473 0.071893
C62   C     C_3   0.148274 0.212676 0.795863 -0.529785
C63   C     C_R   0.592309 0.445369 0.614406 0.165269
C64   C     C_R   0.599538 0.445575 0.527460 0.154357
C65   C     C_R   0.092222 0.945333 0.614340 0.164707
C66   C     C_R   0.099488 0.945525 0.527419 0.156749
C67   C     C_R   0.585184 0.494932 0.656340 0.036675
C68   C     C_R   0.599896 0.495382 0.481029 0.033891
C69   C     C_R   0.085106 0.994904 0.656258 0.036453
C70   C     C_R   0.099902 0.995330 0.481018 0.035380
C71   C     C_R   0.612315 0.543420 0.630608 -0.200480
C72   C     C_R   0.815696 0.140861 0.002433 0.070560
C73   C     C_R   0.619581 0.543684 0.542262 -0.201108
C74   C     C_R   0.112320 0.043375 0.630585 -0.200275
C75   C     C_R   0.119662 0.043624 0.542293 -0.202449
C76   C     C_3   0.537134 0.396197 0.476793 -0.517627
C77   C     C_3   0.529377 0.396018 0.572039 -0.523640
C78   C     C_3   0.037029 0.896168 0.476722 -0.518532
C79   C     C_3   0.029245 0.896002 0.571947 -0.523863
C80   C     C_R   0.548344 0.452972 0.301708 -0.143641
C81   C     C_R   0.516093 0.452226 0.748348 -0.146139
C82   C     C_R   0.048181 0.952951 0.301628 -0.142937
C83   C     C_R   0.181820 0.145727 0.001095 0.072291
C84   C     C_R   0.016049 0.952216 0.748310 -0.145994
C85   C     C_R   0.229734 0.543858 0.742688 -0.145196
C86   C     C_R   0.760414 0.544559 0.297199 -0.158351
C87   C     C_R   0.730565 0.044188 0.722448 -0.150573
C88   C     C_R   0.252296 0.044341 0.304795 -0.162663
C89   C     C_R   0.548233 0.544198 0.303614 -0.139018
C90   C     C_R   0.506757 0.543531 0.735111 -0.126997
C91   C     C_R   0.048203 0.044175 0.303627 -0.140822
C92   C     C_R   0.006643 0.043525 0.734992 -0.127195
C93   C     C_R   0.233542 0.452408 0.752121 -0.117589
C94   C     C_R   0.563662 0.497845 0.365733 0.079287
C95   C     C_R   0.759444 0.452795 0.295145 -0.119102
C96   C     C_R   0.732429 0.952332 0.732447 -0.125422
C97   C     C_R   0.251976 0.953043 0.302472 -0.111939
C98   C     C_R   0.316986 0.632939 0.910638 -0.128427
C99   C     C_R   0.686735 0.629114 0.092805 -0.126118
C100  C     C_R   0.813077 0.128941 0.909614 -0.120542
C101  C     C_R   0.187459 0.128311 0.093281 -0.127828
C102  C     C_R   0.443337 0.347732 0.092179 -0.121785
C103  C     C_R   0.557477 0.347188 0.909531 -0.140099
C104  C     C_R   0.942911 0.847757 0.091858 -0.123308
H1    H     H_    0.325641 0.332799 0.827659 0.101959
H2    H     H_    0.457059 0.243725 0.173863 0.123627
H3    H     H_    0.043862 0.742132 0.831865 0.123557
H4    H     H_    0.956779 0.743547 0.172553 0.123712
H5    H     H_    0.823123 0.298181 0.188507 0.204595
H6    H     H_    0.185429 0.298841 0.806354 0.199768
H7    H     H_    0.322167 0.799424 0.190039 0.204761
H8    H     H_    0.683979 0.799584 0.806208 0.200058
H9    H     H_    0.797987 0.258969 0.277071 0.187477
H10   H     H_    0.213488 0.254567 0.725695 0.189723
H11   H     H_    0.297791 0.759070 0.278104 0.187577
H12   H     H_    0.682143 0.334677 0.175411 0.096540
H13   H     H_    0.711269 0.755510 0.724613 0.189741
H14   H     H_    0.409760 0.725465 0.189916 0.200771
H15   H     H_    0.593753 0.729724 0.808343 0.199485
H16   H     H_    0.908665 0.222953 0.188684 0.200966
H17   H     H_    0.095140 0.229040 0.808415 0.199587
H18   H     H_    0.386035 0.684525 0.278003 0.191351
H19   H     H_    0.618325 0.684580 0.725280 0.186696
H20   H     H_    0.884460 0.183205 0.277576 0.191297
H21   H     H_    0.120354 0.183690 0.726173 0.186536
H22   H     H_    0.616192 0.582089 0.668582 0.124006
H23   H     H_    0.823786 0.833441 0.826826 0.100943
H24   H     H_    0.628162 0.582660 0.514549 0.124489
H25   H     H_    0.116208 0.082042 0.668564 0.123810
H26   H     H_    0.128320 0.082592 0.514622 0.124019
H27   H     H_    0.468208 0.405085 0.397459 0.205202
H28   H     H_    0.563931 0.359712 0.626383 0.190647
H29   H     H_    0.968117 0.905077 0.397385 0.204971
H30   H     H_    0.063756 0.859688 0.626281 0.190756
H31   H     H_    0.576046 0.359951 0.476333 0.186637
H32   H     H_    0.456153 0.404888 0.546539 0.200960
H33   H     H_    0.075907 0.859905 0.476255 0.187063
H34   H     H_    0.181474 0.834803 0.175635 0.097163
H35   H     H_    0.956025 0.904901 0.546436 0.201003
H36   H     H_    0.429747 0.626456 0.177947 0.110417
H37   H     H_    0.560894 0.642372 0.826287 0.099188
H38   H     H_    0.928344 0.125061 0.177477 0.111285
H39   H     H_    0.061836 0.142090 0.826741 0.099053
H40   H     H_    0.569472 0.411100 0.328627 0.097511
H41   H     H_    0.531148 0.409664 0.745398 0.110395
H42   H     H_    0.069300 0.911075 0.328528 0.097492
H43   H     H_    0.031130 0.909649 0.745416 0.110385
H44   H     H_    0.202523 0.584792 0.717311 0.086737
H45   H     H_    0.134889 0.666034 0.832293 0.123960
H46   H     H_    0.774991 0.586121 0.328132 0.091407
H47   H     H_    0.707026 0.085430 0.692814 0.087834
H48   H     H_    0.261533 0.085843 0.335099 0.090496
H49   H     H_    0.567087 0.585871 0.333117 0.084754
H50   H     H_    0.502493 0.584157 0.704741 0.084996
H51   H     H_    0.067154 0.085833 0.333195 0.084293
H52   H     H_    0.002303 0.084153 0.704569 0.084947
H53   H     H_    0.214671 0.409780 0.746745 0.091349
H54   H     H_    0.773467 0.410389 0.321238 0.083229
H55   H     H_    0.712333 0.909573 0.717817 0.091993
H56   H     H_    0.864062 0.669415 0.172831 0.125863
H57   H     H_    0.259850 0.910952 0.329260 0.078711
H58   H     H_    0.266175 0.648337 0.829162 0.086196
H59   H     H_    0.744539 0.634967 0.177688 0.091418
H60   H     H_    0.757982 0.140194 0.826567 0.087504
H61   H     H_    0.245644 0.133075 0.178500 0.094054
H62   H     H_    0.879954 0.421211 0.510870 0.117314
H63   H     H_    0.054524 0.412780 0.652269 0.117578
H64   H     H_    0.393357 0.913026 0.502235 0.117458
H65   H     H_    0.556898 0.923090 0.677241 0.122804
H66   H     H_    0.943160 0.534336 0.481829 0.129818
H67   H     H_    0.631452 0.163927 0.832014 0.126241
H68   H     H_    0.041906 0.538656 0.658297 0.128379
H69   H     H_    0.396268 0.038848 0.522878 0.131845
H70   H     H_    0.539330 0.031457 0.559087 0.132115
H71   H     H_    0.488118 0.334299 0.176616 0.081351
H72   H     H_    0.511280 0.332502 0.826185 0.083180
H73   H     H_    0.987743 0.834128 0.176163 0.081852
H74   H     H_    0.011074 0.832428 0.826334 0.083250
H75   H     H_    0.364421 0.169506 0.174049 0.125898
H76   H     H_    0.543781 0.242024 0.831318 0.123555
N1    N     N_R   0.395410 0.396350 0.944340 -0.037560
N2    N     N_R   0.474920 0.471030 0.794350 -0.041117
N3    N     N_R   0.025080 0.971030 0.205650 -0.038187
N4    N     N_R   0.974920 0.971030 0.794350 -0.040816
N5    N     N_R   0.320260 0.527820 0.794570 -0.041347
N6    N     N_R   0.679740 0.527820 0.205430 -0.038343
N7    N     N_R   0.820260 0.027820 0.794570 -0.040137
N8    N     N_R   0.179740 0.027820 0.205430 -0.038417
N9    N     N_R   0.524590 0.527840 0.205200 -0.038429
N10   N     N_R   0.475410 0.527840 0.794800 -0.039901
N11   N     N_R   0.024590 0.027840 0.205200 -0.037764
N12   N     N_R   0.604590 0.396350 0.055660 -0.037593
N13   N     N_R   0.975410 0.027840 0.794800 -0.039578
N14   N     N_R   0.320750 0.471000 0.795020 -0.046037
N15   N     N_R   0.679250 0.471000 0.204980 -0.042642
N16   N     N_R   0.820750 0.971000 0.795020 -0.043978
N17   N     N_R   0.179250 0.971000 0.204980 -0.043069
N18   N     N_R   0.393620 0.602490 0.942710 -0.039306
N19   N     N_R   0.606380 0.602490 0.057290 -0.040816
N20   N     N_R   0.893620 0.102490 0.942710 -0.041003
N21   N     N_R   0.106380 0.102490 0.057290 -0.040923
N22   N     N_R   0.451720 0.396350 0.057510 -0.038011
N23   N     N_R   0.895410 0.896350 0.944340 -0.037453
N24   N     N_R   0.548280 0.396350 0.942490 -0.037207
N25   N     N_R   0.951720 0.896350 0.057510 -0.038476
N26   N     N_R   0.048280 0.896350 0.942490 -0.037500
N27   N     N_R   0.104590 0.896350 0.055660 -0.037889
N28   N     N_R   0.449930 0.602500 0.055880 -0.041242
N29   N     N_R   0.550070 0.602500 0.944120 -0.040521
N30   N     N_R   0.949930 0.102500 0.055880 -0.041857
N31   N     N_R   0.050070 0.102500 0.944120 -0.040658
N32   N     N_R   0.525080 0.471030 0.205650 -0.038395
Ni1   Ni    Ni4+2 0.435420 0.434270 0.870230 0.206269
Ni2   Ni    Ni4+2 0.564580 0.434270 0.129770 0.203687
Ni3   Ni    Ni4+2 0.935420 0.934270 0.870230 0.206287
Ni4   Ni    Ni4+2 0.064580 0.934270 0.129770 0.203202
Ni5   Ni    Ni4+2 0.563430 0.564580 0.128740 0.210655
Ni6   Ni    Ni4+2 0.436570 0.564580 0.871260 0.214254
Ni7   Ni    Ni4+2 0.063430 0.064580 0.128740 0.208908
Ni8   Ni    Ni4+2 0.936570 0.064580 0.871260 0.213663

loop_
_geom_bond_atom_site_label_1
_geom_bond_atom_site_label_2
_ccdc_geom_bond_type
N26   Ni3   S    
C23   C58   S    
C79   H35   S    
C5    C103  A    
C10   C85   A    
C16   C21   D    
C65   C79   S    
C29   C33   A    
N7    N16   A    
N13   Ni8   S    
C95   H54   S    
C93   N14   A    
C36   H76   S    
C19   H66   S    
C58   H14   S    
N5    N14   A    
N14   Ni1   S    
C1    N1    A    
N3    N11   A    
C54   C60   S    
N31   Ni8   S    
N23   N25   A    
C47   H38   S    
C11   C19   S    
N8    N17   A    
N7    Ni8   S    
C8    C82   A    
N29   Ni6   S    
C64   C68   A    
N23   Ni3   S    
C35   C37   A    
C3    H74   S    
C9    C69   S    
C3    C7    A    
C32   C38   A    
C86   H46   S    
C72   C100  A    
C76   H27   S    
C43   C52   A    
C57   C59   S    
C57   H8    S    
C5    C17   A    
C11   C86   A    
C49   C54   S    
C55   C62   S    
C12   C22   S    
C37   C42   A    
C31   C83   S    
C60   H20   S    
C51   C55   S    
C28   N23   A    
C41   C49   A    
C38   H3    S    
C2    C90   A    
C103  N24   A    
C103  H72   S    
N15   Ni2   S    
C18   H65   S    
C22   H70   S    
C24   C29   A    
C44   C53   A    
C6    C28   A    
C32   H45   S    
N1    N22   A    
N25   Ni4   S    
C10   C20   S    
C80   H40   S    
N19   Ni5   S    
N2    Ni1   S    
C95   N15   A    
C85   H44   S    
C71   H22   S    
N18   Ni6   S    
C25   C60   S    
C7    C43   S    
C14   H62   S    
C56   H7    S    
C34   C36   A    
C12   C87   A    
C33   H56   S    
C42   C51   A    
C80   N32   A    
C64   C76   S    
C63   C77   S    
C39   H34   S    
C26   C31   A    
C87   H47   S    
C35   H75   S    
C77   H32   S    
C88   H48   S    
C15   H63   S    
C36   C41   A    
C61   C99   A    
C81   N2    A    
N10   Ni6   S    
C9    C92   A    
N12   Ni2   S    
C98   H58   S    
C76   H31   S    
N9    Ni5   S    
C46   H37   S    
C29   C61   S    
C23   C27   A    
C17   N12   A    
C59   H19   S    
C15   C20   D    
C66   C78   S    
N6    Ni5   S    
C63   C67   A    
C58   H18   S    
C33   C40   A    
C50   C98   A    
C74   C75   A    
C98   N18   A    
C46   C61   A    
N18   N28   A    
C97   N17   A    
N6    N15   A    
C84   N4    A    
C76   C77   S    
N21   Ni7   S    
C92   H52   S    
C2    C67   S    
N5    Ni6   S    
N11   Ni7   S    
C71   C73   A    
N16   Ni3   S    
C30   C34   A    
N26   N27   A    
C25   C30   A    
N4    Ni3   S    
C87   N7    A    
C10   C93   A    
C68   C73   A    
C84   H43   S    
C91   N11   A    
C82   N3    A    
C45   H36   S    
C68   C94   S    
N30   Ni7   S    
C54   H5    S    
C39   N27   A    
N19   N29   A    
C77   H28   S    
C96   N16   A    
C93   H53   S    
C91   H51   S    
C102  N22   A    
C89   H49   S    
C104  H73   S    
C48   N31   A    
C88   N8    A    
C38   C43   A    
C17   H12   S    
N12   N24   A    
C13   C21   S    
C69   C74   A    
C100  H60   S    
C8    C91   A    
C104  N25   A    
N22   Ni2   S    
C101  H61   S    
C75   H26   S    
N17   Ni4   S    
C99   H59   S    
C100  N20   A    
C20   H68   S    
N32   Ni2   S    
C92   N13   A    
C45   N28   A    
C81   H41   S    
C55   H6    S    
N20   Ni8   S    
C31   C35   A    
C54   H9    S    
C47   N30   A    
C90   H50   S    
C82   H42   S    
C80   C94   A    
C46   N29   A    
C78   H33   S    
C6    C44   S    
C27   C50   S    
C57   H13   S    
C90   N10   A    
N8    Ni7   S    
C11   C95   A    
N28   Ni5   S    
C79   H30   S    
C5    C41   S    
C102  H71   S    
C59   H15   S    
C83   C101  A    
C85   N5    A    
C27   C32   A    
C18   C22   D    
C3    N26   A    
C8    C70   S    
C14   C19   D    
N9    N32   A    
C53   C57   S    
C89   C94   A    
C62   H21   S    
C30   C72   S    
C28   H23   S    
C86   N6    A    
C55   H10   S    
C24   C53   A    
C73   H24   S    
C21   H69   S    
C6    C104  A    
C48   C83   A    
C40   H4    S    
C1    C4    A    
N20   N30   A    
C26   C62   S    
C37   H2    S    
C101  N21   A    
C26   C51   A    
N3    Ni4   S    
C78   C79   S    
C23   C52   A    
C66   C70   A    
C4    C42   S    
C45   C50   A    
C16   H64   S    
C24   C59   S    
C65   C69   A    
N24   Ni1   S    
C13   C88   A    
N27   Ni4   S    
C56   H11   S    
C56   C58   S    
C60   H16   S    
C67   C71   A    
C13   C97   A    
C78   H29   S    
C25   C49   A    
C47   C72   A    
C9    C84   A    
C63   C64   A    
C4    C102  A    
C52   C56   S    
C40   C44   A    
C96   H55   S    
C89   N9    A    
C48   H39   S    
C16   C18   S    
C65   C66   A    
C74   H25   S    
C99   N19   A    
C70   C75   A    
C7    C39   A    
C14   C15   S    
C12   C96   A    
C2    C81   A    
N1    Ni1   S    
N2    N10   A    
N21   N31   A    
C62   H17   S    
C34   H67   S    
N4    N13   A    
C97   H57   S    
C1    H1    S    
