data_mof_unit_18963.cif
_audit_creation_date              2012-12-11T14:30:14-0500
_audit_creation_method            fapswitch 2.2
_symmetry_space_group_name_H-M    P1
_symmetry_Int_Tables_number       1
_space_group_crystal_system       triclinic
_cell_length_a                    12.7961
_cell_length_b                    12.781895
_cell_length_c                    26.994051
_cell_angle_alpha                 90.003747
_cell_angle_beta                  89.992279
_cell_angle_gamma                 120.040445
_cell_volume                      3822.03290327

loop_
_atom_site_label
_atom_site_type_symbol
_atom_type_description
_atom_site_fract_x
_atom_site_fract_y
_atom_site_fract_z
_atom_type_partial_charge
C1    C     C_R   0.556407 0.456054 0.821389 0.567196
C2    C     C_R   0.455194 0.563305 0.176319 0.566382
C3    C     C_R   0.851551 0.284562 0.458066 -0.060809
C4    C     C_R   0.270939 0.840338 0.008565 -0.062172
C5    C     C_R   0.715739 0.566684 0.457575 -0.061427
C6    C     C_R   0.421393 0.150474 0.509631 -0.068438
C7    C     C_R   0.151187 0.436555 0.957644 -0.062110
C8    C     C_R   0.729584 0.572135 0.508429 -0.061796
C9    C     C_R   0.285107 0.848744 0.957698 -0.062181
C10   C     C_R   0.843565 0.271052 0.508940 -0.061568
C11   C     C_R   0.563946 0.715135 0.957688 -0.062197
C12   C     C_2   0.886111 0.700563 0.064444 0.639960
C13   C     C_R   0.443564 0.899662 0.321399 0.565961
C14   C     C_2   0.725908 0.884032 0.455522 0.606028
C15   C     C_2   0.298443 0.185221 0.064278 0.640091
C16   C     C_2   0.109509 0.841447 0.454827 0.609514
C17   C     C_2   0.814367 0.113837 0.064334 0.640011
C18   C     C_2   0.157855 0.274823 0.455544 0.606007
C19   C     C_2   0.709683 0.894752 0.563662 0.641748
C20   C     C_2   0.877240 0.720407 0.956354 0.603543
C21   C     C_2   0.185842 0.293405 0.563740 0.635468
C22   C     C_2   0.842920 0.122583 0.956224 0.603338
C23   C     C_2   0.101044 0.816074 0.562631 0.638563
C24   C     C_R   0.108091 0.544748 0.176324 0.566511
C25   C     C_2   0.278769 0.156711 0.956158 0.603533
C26   C     C_R   0.029216 0.531876 0.968580 -0.009097
C27   C     C_R   0.528654 0.040123 0.520695 -0.005892
C28   C     C_R   0.468075 0.497521 0.968541 -0.008919
C29   C     C_R   0.957905 0.488754 0.520333 -0.002121
C30   C     C_R   0.502467 0.970707 0.968569 -0.009058
C31   C     C_R   0.512217 0.467151 0.520022 -0.002608
C32   C     C_R   0.529899 0.027740 0.468855 -0.010438
C33   C     C_R   0.892620 0.437227 0.676413 0.567372
C34   C     C_R   0.042414 0.530702 0.020374 -0.002406
C35   C     C_R   0.498071 0.466769 0.468232 -0.007911
C36   C     C_R   0.488148 0.957489 0.020363 -0.002479
C37   C     C_R   0.970557 0.502430 0.468493 -0.009004
C38   C     C_R   0.469174 0.511821 0.020338 -0.002403
C39   C     C_R   0.924672 0.646564 0.979034 0.017973
C40   C     C_R   0.646402 0.938520 0.530904 0.029948
C41   C     C_R   0.352871 0.278021 0.978901 0.017673
C42   C     C_R   0.060370 0.708410 0.530493 0.029217
C43   C     C_R   0.721720 0.075258 0.978950 0.017573
C44   C     C_R   0.543963 0.100391 0.821386 0.566998
C45   C     C_R   0.292819 0.352765 0.530697 0.029099
C46   C     C_R   0.650116 0.928753 0.478579 0.015786
C47   C     C_R   0.934338 0.641973 0.031308 0.031719
C48   C     C_R   0.278833 0.349113 0.478412 0.016972
C49   C     C_R   0.707524 0.065614 0.031229 0.031418
C50   C     C_R   0.069194 0.721678 0.478151 0.016193
C51   C     C_R   0.357384 0.292197 0.031182 0.031537
C52   C     C_R   0.929846 0.559611 0.898317 -0.126206
C53   C     C_R   0.585099 0.012399 0.603697 -0.092505
C54   C     C_R   0.440195 0.370301 0.898244 -0.126288
C55   C     C_R   0.563640 0.454797 0.676177 0.565696
C56   C     C_R   0.988892 0.573219 0.603506 -0.090916
C57   C     C_R   0.629587 0.070123 0.898277 -0.126286
C58   C     C_R   0.428639 0.411432 0.603149 -0.095729
C59   C     C_R   0.561193 0.932100 0.398073 -0.126208
C60   C     C_R   0.011058 0.582771 0.103691 -0.084561
C61   C     C_R   0.370827 0.438073 0.397891 -0.125616
C62   C     C_R   0.571660 0.988807 0.103647 -0.085035
C63   C     C_R   0.067828 0.629420 0.397923 -0.124771
C64   C     C_R   0.416803 0.428168 0.103619 -0.084855
C65   C     C_R   0.070179 0.525994 0.123692 0.015998
C66   C     C_R   0.899622 0.443644 0.821394 0.567254
C67   C     C_R   0.491136 0.964398 0.368562 0.017715
C68   C     C_R   0.473851 0.544158 0.123670 0.015771
C69   C     C_R   0.035356 0.526890 0.368421 0.018569
C70   C     C_R   0.455782 0.929708 0.123685 0.016007
C71   C     C_R   0.473115 0.507969 0.368289 0.018165
C72   C     C_R   0.524478 0.067321 0.624072 0.022109
C73   C     C_R   0.964158 0.491557 0.868524 0.018925
C74   C     C_R   0.544339 0.472106 0.623406 0.014302
C75   C     C_R   0.527223 0.035810 0.868517 0.018521
C76   C     C_R   0.931288 0.457112 0.623778 0.016282
C77   C     C_R   0.544404 0.107307 0.676483 0.566770
C78   C     C_R   0.508544 0.472798 0.868502 0.018578
C79   C     C_R   0.963635 0.582732 0.948295 -0.050255
C80   C     C_R   0.584205 0.993350 0.552063 -0.031965
C81   C     C_R   0.417000 0.380964 0.948212 -0.050132
C82   C     C_R   0.006238 0.591264 0.551773 -0.034362
C83   C     C_R   0.618908 0.036300 0.948250 -0.050217
C84   C     C_R   0.410182 0.412698 0.551582 -0.032881
C85   C     C_R   0.583737 0.965296 0.448157 -0.050502
C86   C     C_R   0.992333 0.582524 0.052080 -0.027946
C87   C     C_R   0.381638 0.414513 0.447815 -0.049734
C88   C     C_R   0.456049 0.556276 0.321348 0.566156
C89   C     C_R   0.590098 0.007575 0.052035 -0.028154
C90   C     C_R   0.033708 0.618745 0.447858 -0.051115
C91   C     C_R   0.417062 0.409736 0.052001 -0.028011
C92   C     C_R   0.048195 0.460929 0.886509 0.239187
C93   C     C_R   0.454578 0.097658 0.592504 0.239886
C94   C     C_R   0.539415 0.587645 0.886519 0.239030
C95   C     C_R   0.896977 0.356293 0.591977 0.214061
C96   C     C_R   0.412500 0.951732 0.886531 0.238742
C97   C     C_R   0.644847 0.539146 0.591608 0.216854
C98   C     C_R   0.457501 0.045916 0.387012 0.237337
C99   C     C_R   0.436637 0.891846 0.176326 0.566027
C100  C     C_R   0.105677 0.460802 0.091760 0.211582
C101  C     C_R   0.588118 0.540158 0.386354 0.238944
C102  C     C_R   0.355077 0.894208 0.091787 0.211969
C103  C     C_R   0.952712 0.411797 0.386659 0.238817
C104  C     C_R   0.539257 0.644988 0.091776 0.211597
C105  C     C_R   0.078920 0.478705 0.937069 0.052020
C106  C     C_R   0.467602 0.095988 0.541116 0.047728
C107  C     C_R   0.521561 0.600578 0.937072 0.052060
C108  C     C_R   0.899652 0.371549 0.540603 0.056186
C109  C     C_R   0.399548 0.921011 0.937092 0.051492
C110  C     C_R   0.100310 0.543909 0.321378 0.566496
C111  C     C_R   0.629411 0.526572 0.540205 0.053849
C112  C     C_R   0.473874 0.075123 0.437715 0.046269
C113  C     C_R   0.102578 0.473551 0.040394 0.057075
C114  C     C_R   0.601155 0.522333 0.436880 0.049983
C115  C     C_R   0.370846 0.897325 0.040418 0.056766
C116  C     C_R   0.922335 0.399054 0.437243 0.050860
C117  C     C_R   0.526561 0.629238 0.040404 0.056976
C118  C     C_R   0.159592 0.430732 0.008511 -0.062107
C119  C     C_R   0.427986 0.143779 0.458731 -0.060041
C120  C     C_R   0.569693 0.729277 0.008558 -0.062031
Cl1   Cl    Cl    0.146062 0.355223 0.114277 -0.580225
Cl2   Cl    Cl    0.285823 0.889765 0.846329 -0.521000
Cl3   Cl    Cl    0.857593 0.210518 0.614633 -0.586711
Cl4   Cl    Cl    0.604549 0.714506 0.846336 -0.525253
Cl5   Cl    Cl    0.390992 0.106732 0.347154 -0.523470
Cl6   Cl    Cl    0.644979 0.791007 0.114341 -0.579730
Cl7   Cl    Cl    0.892081 0.284452 0.346737 -0.524837
Cl8   Cl    Cl    0.209173 0.853712 0.114340 -0.580622
Cl9   Cl    Cl    0.715039 0.606739 0.346265 -0.523005
Cl10  Cl    Cl    0.343192 0.129758 0.615392 -0.561038
Cl11  Cl    Cl    0.110085 0.396189 0.846274 -0.525178
Cl12  Cl    Cl    0.790318 0.645361 0.614377 -0.585418
Cr1   Cr    Cr6+3 0.487630 0.241180 0.750000 1.145198
Cr2   Cr    Cr6+3 0.753550 0.512370 0.750000 1.142818
Cr3   Cr    Cr6+3 0.758820 0.246450 0.750000 1.139881
Cr4   Cr    Cr6+3 0.241180 0.487630 0.250000 1.141750
Cr5   Cr    Cr6+3 0.512370 0.753550 0.250000 1.141806
Cr6   Cr    Cr6+3 0.246450 0.758820 0.250000 1.141966
H1    H     H_    0.983441 0.629969 0.128984 0.200670
H2    H     H_    0.717779 0.133236 0.883540 0.180550
H3    H     H_    0.016572 0.648508 0.628604 0.201459
H4    H     H_    0.414920 0.282013 0.883501 0.180470
H5    H     H_    0.209273 0.389720 0.022356 0.173308
H6    H     H_    0.387938 0.184926 0.436509 0.199062
H7    H     H_    0.610931 0.820066 0.022435 0.173494
H8    H     H_    0.809415 0.203453 0.435739 0.196259
H9    H     H_    0.180232 0.790684 0.022429 0.173562
H10   H     H_    0.796650 0.606428 0.435174 0.198064
H11   H     H_    0.377491 0.197097 0.523846 0.171738
H12   H     H_    0.588573 0.871038 0.383020 0.182025
H13   H     H_    0.194162 0.398878 0.935116 0.193443
H14   H     H_    0.820220 0.615058 0.522350 0.178850
H15   H     H_    0.204412 0.805788 0.935196 0.193388
H16   H     H_    0.794789 0.180383 0.522955 0.174784
H17   H     H_    0.601882 0.795937 0.935192 0.193569
H18   H     H_    0.783425 0.681999 0.124108 0.387845
H19   H     H_    0.847015 0.906412 0.402721 0.379331
H20   H     H_    0.316355 0.100957 0.124051 0.388080
H21   H     H_    0.083637 0.936024 0.401138 0.378742
H22   H     H_    0.898624 0.216467 0.124028 0.387805
H23   H     H_    0.369427 0.353262 0.128886 0.200760
H24   H     H_    0.057045 0.153803 0.403007 0.380080
H25   H     H_    0.698607 0.797460 0.624178 0.389838
H26   H     H_    0.896317 0.841315 0.903957 0.381752
H27   H     H_    0.102843 0.309920 0.624236 0.388893
H28   H     H_    0.944385 0.103300 0.903772 0.381745
H29   H     H_    0.080533 0.956610 0.582783 0.408843
H30   H     H_    0.157998 0.055249 0.903674 0.381816
H31   H     H_    0.129669 0.717966 0.383066 0.181428
H32   H     H_    0.646481 0.016423 0.128916 0.200785
H33   H     H_    0.282452 0.411760 0.383089 0.181016
H34   H     H_    0.635356 0.988047 0.628729 0.203086
H35   H     H_    0.866774 0.584684 0.883599 0.180417
H36   H     H_    0.353971 0.361717 0.628253 0.200967
O1    O     O_R   0.460870 0.120930 0.805240 -0.448353
O2    O     O_R   0.120930 0.460870 0.194760 -0.433281
O3    O     O_R   0.539130 0.660060 0.305240 -0.449090
O4    O     O_R   0.339940 0.879070 0.194760 -0.432985
O5    O     O_R   0.498910 0.350470 0.801870 -0.509531
O6    O     O_R   0.851560 0.501090 0.698130 -0.472316
O7    O     O_R   0.649530 0.148440 0.801870 -0.509690
O8    O     O_R   0.498910 0.350470 0.698130 -0.480302
O9    O     O_R   0.851560 0.501090 0.801870 -0.509259
O10   O     O_R   0.649530 0.148440 0.698130 -0.476991
O11   O     O_R   0.350470 0.498910 0.301870 -0.510013
O12   O     O_R   0.660060 0.539130 0.694760 -0.430312
O13   O     O_R   0.501090 0.851560 0.198130 -0.472965
O14   O     O_R   0.148440 0.649530 0.301870 -0.509684
O15   O     O_R   0.350470 0.498910 0.198130 -0.473006
O16   O     O_R   0.501090 0.851560 0.301870 -0.509783
O17   O     O_R   0.148440 0.649530 0.198130 -0.472655
O18   O     O_3   0.666667 0.333333 0.750000 -0.314998
O19   O     O_3   0.333333 0.666667 0.250000 -0.313449
O20   O     O_2   0.923032 0.808959 0.061098 -0.357480
O21   O     O_R   0.800500 0.631149 0.100357 -0.679037
O22   O     O_2   0.724622 0.794607 0.472009 -0.477428
O23   O     O_R   0.879070 0.339940 0.805240 -0.449554
O24   O     O_R   0.799856 0.945496 0.415145 -0.663347
O25   O     O_2   0.190114 0.113933 0.060872 -0.357437
O26   O     O_R   0.367439 0.168712 0.100251 -0.679026
O27   O     O_2   0.194726 0.932434 0.471964 -0.480191
O28   O     O_R   0.048094 0.849982 0.413560 -0.662569
O29   O     O_2   0.885631 0.076822 0.060957 -0.357447
O30   O     O_R   0.830800 0.199513 0.100269 -0.679174
O31   O     O_2   0.071027 0.278450 0.471998 -0.478836
O32   O     O_R   0.143468 0.199809 0.415309 -0.661443
O33   O     O_2   0.818309 0.934854 0.559263 -0.367903
O34   O     O_R   0.460870 0.120930 0.694760 -0.421561
O35   O     O_R   0.644563 0.809949 0.600491 -0.676037
O36   O     O_2   0.786891 0.716481 0.973086 -0.483129
O37   O     O_R   0.937149 0.795538 0.916053 -0.661170
O38   O     O_2   0.113393 0.185470 0.559548 -0.397364
O39   O     O_R   0.170494 0.361563 0.600509 -0.675789
O40   O     O_2   0.929580 0.212938 0.972941 -0.482872
O41   O     O_R   0.857798 0.062544 0.915898 -0.661502
O42   O     O_2   0.182144 0.842440 0.592589 -0.461472
O43   O     O_R   0.046277 0.886755 0.558515 -0.566039
O44   O     O_2   0.282146 0.069893 0.972876 -0.482703
O45   O     O_R   0.660060 0.539130 0.805240 -0.449471
O46   O     O_R   0.204008 0.141917 0.915812 -0.661325
O47   O     O_R   0.879070 0.339940 0.694760 -0.432194
O48   O     O_R   0.120930 0.460870 0.305240 -0.449241
O49   O     O_R   0.539130 0.660060 0.194760 -0.432968
O50   O     O_R   0.339940 0.879070 0.305240 -0.448964

loop_
_geom_bond_atom_site_label_1
_geom_bond_atom_site_label_2
_ccdc_geom_bond_type
C36   C89   A    
C66   O9    A    
Cr4   O2    S    
C56   C76   A    
C5    C114  A    
C44   C75   S    
C101  Cl9   S    
C43   C83   A    
Cr2   O12   S    
C4    C115  A    
C10   C108  A    
Cr6   O17   S    
C42   C82   A    
C44   O1    A    
Cr2   O9    S    
C28   C38   A    
C10   H16   S    
C99   O13   A    
H25   O35   S    
C88   O3    A    
C14   C46   S    
C37   C116  A    
Cr1   O34   S    
C40   C46   A    
C14   O24   S    
C110  O14   A    
C23   C42   S    
C37   C90   A    
C18   O31   D    
C64   C68   A    
C8    H14   S    
C16   C50   S    
C100  Cl1   S    
C102  Cl8   S    
C3    C116  A    
C76   C95   A    
C97   C111  A    
C45   C48   A    
H26   O37   S    
Cr2   O45   S    
C62   C89   A    
C77   O10   A    
C54   C78   A    
C62   C70   A    
C35   C114  A    
H19   O24   S    
C34   C86   A    
C20   O37   S    
Cr2   O18   S    
C30   C83   A    
C17   O29   D    
C14   O22   D    
C102  C115  A    
C61   C87   A    
C67   C98   A    
C51   C91   A    
C55   C74   S    
C35   C87   A    
C38   C117  A    
C98   Cl5   S    
C17   C49   S    
C63   C69   A    
C50   C90   A    
H20   O26   S    
C40   C80   A    
C29   C108  A    
C61   H33   S    
C20   O36   D    
C52   C79   A    
C103  Cl7   S    
C53   C72   A    
C53   H34   S    
C11   H17   S    
H28   O41   S    
C46   C85   A    
C59   C67   A    
C61   C71   A    
C66   C73   S    
C71   C101  A    
C9    H15   S    
C120  H7    S    
C5    H10   S    
C22   O41   S    
H24   O32   S    
C33   O6    A    
C19   O33   D    
C101  C114  A    
C6    H11   S    
C7    C118  A    
C25   O44   D    
C58   H36   S    
Cr3   O10   S    
C12   C47   S    
C16   O28   S    
C11   C120  A    
C26   C105  A    
C26   C34   A    
C75   C96   A    
C74   C97   A    
C21   C45   S    
C23   O42   D    
C69   C103  A    
C9    C109  A    
Cr3   O47   S    
C104  Cl6   S    
Cr5   O19   S    
C94   C107  A    
C98   C112  A    
C30   C109  A    
C1    C78   S    
C47   C86   A    
C53   C80   A    
C73   C92   A    
C99   O4    A    
C118  H5    S    
C19   C40   S    
C8    C111  A    
C25   C41   S    
C20   C39   S    
C60   C86   A    
Cr1   O5    S    
H21   O28   S    
C27   C106  A    
C4    H9    S    
C38   C91   A    
Cr6   O4    S    
C31   C84   A    
C71   C88   S    
C57   H2    S    
C34   C113  A    
C39   C79   A    
C17   O30   S    
Cr6   O14   S    
C59   C85   A    
Cr5   O16   S    
H22   O30   S    
C72   C77   S    
C2    O15   A    
C62   H32   S    
C93   C106  A    
C5    C8    A    
C15   O25   D    
C69   C110  S    
Cr1   O8    S    
C33   C76   S    
C22   C43   S    
Cr6   O50   S    
C41   C81   A    
H18   O21   S    
C7    C105  A    
C6    C106  A    
C48   C87   A    
Cr4   O48   S    
C1    O45   A    
H30   O46   S    
C57   C83   A    
Cr1   O1    S    
C24   C65   S    
C42   C50   A    
C7    H13   S    
C72   C93   A    
H27   O39   S    
C88   O11   A    
C54   H4    S    
C60   C65   A    
C52   C73   A    
C15   C51   S    
C22   O40   D    
C11   C107  A    
C12   O21   S    
C21   O39   S    
C117  C120  A    
C45   C84   A    
C56   H3    S    
C13   O50   A    
C119  H6    S    
C93   Cl10  S    
C24   O2    A    
C6    C119  A    
C70   C99   S    
C58   C74   A    
C39   C47   A    
C104  C117  A    
C13   C67   S    
C59   H12   S    
C95   Cl3   S    
C77   O34   A    
C31   C111  A    
C32   C112  A    
C27   C32   A    
C19   O35   S    
C12   O20   D    
C43   C49   A    
C100  C113  A    
C68   C104  A    
C97   Cl12  S    
C49   C89   A    
C64   H23   S    
C65   C100  A    
C18   C48   S    
Cr3   O23   S    
C112  C119  A    
C70   C102  A    
C56   C82   A    
C92   Cl11  S    
Cr4   O11   S    
C96   Cl2   S    
Cr6   O19   S    
C96   C109  A    
Cr5   O49   S    
C2    C68   S    
C26   C79   A    
C21   O38   D    
C30   C36   A    
Cr4   O15   S    
C18   O32   S    
C57   C75   A    
C103  C116  A    
C28   C81   A    
Cr4   O19   S    
C110  O48   A    
C15   O26   S    
C1    O5    A    
C78   C94   A    
C55   O12   A    
C32   C85   A    
C44   O7    A    
C63   C90   A    
C2    O49   A    
C55   O8    A    
C41   C51   A    
C24   O17   A    
C31   C35   A    
C58   C84   A    
C23   O43   S    
Cr3   O18   S    
C66   O23   A    
C63   H31   S    
C95   C108  A    
C13   O16   A    
C60   H1    S    
C113  C118  A    
C92   C105  A    
C29   C82   A    
Cr5   O3    S    
C27   C80   A    
C3    H8    S    
C29   C37   A    
C3    C10   A    
Cr3   O7    S    
C25   O46   S    
C28   C107  A    
C64   C91   A    
Cr2   O6    S    
C4    C9    A    
C36   C115  A    
C52   H35   S    
H29   O43   S    
C54   C81   A    
C16   O27   D    
Cr1   O18   S    
C33   O47   A    
Cr5   O13   S    
C94   Cl4   S    
