data_mof_unit_45182.cif
_audit_creation_date              2012-12-10T18:50:45-0500
_audit_creation_method            fapswitch 2.2
_symmetry_space_group_name_H-M    P1
_symmetry_Int_Tables_number       1
_space_group_crystal_system       triclinic
_cell_length_a                    10.68051
_cell_length_b                    9.853745
_cell_length_c                    15.73604
_cell_angle_alpha                 90.27671
_cell_angle_beta                  90.163095
_cell_angle_gamma                 89.932663
_cell_volume                      1656.08126388

loop_
_atom_site_label
_atom_site_type_symbol
_atom_type_description
_atom_site_fract_x
_atom_site_fract_y
_atom_site_fract_z
_atom_type_partial_charge
C1    C     C_R   0.259956 0.500065 0.500148 0.864290
C2    C     C_3   0.643011 0.454134 0.951203 0.577558
C3    C     C_3   0.634715 0.447576 0.050438 -0.492867
C4    C     C_1   0.504607 0.498981 0.825444 0.174895
C5    C     C_1   0.504196 0.498863 0.174098 -0.004779
C6    C     C_1   0.502339 0.499121 0.249393 -0.171908
C7    C     C_R   0.064116 0.387265 0.468019 -0.173392
C8    C     C_R   0.064127 0.612993 0.532677 -0.162237
C9    C     C_R   0.935844 0.387497 0.467698 -0.206628
C10   C     C_R   0.935770 0.612863 0.532805 -0.155544
C11   C     C_R   0.872394 0.500034 0.500334 -0.015416
C12   C     C_R   0.127534 0.500113 0.500351 -0.003224
C13   C     C_R   0.572867 0.073354 0.556635 0.468478
C14   C     C_R   0.567420 0.927910 0.559742 0.438463
C15   C     C_R   0.500283 0.499715 0.338258 0.887074
C16   C     C_R   0.430659 0.927833 0.442066 -0.186196
C17   C     C_R   0.429384 0.071423 0.442781 -0.193686
C18   C     C_R   0.739983 0.499972 0.500176 0.877629
C19   C     C_R   0.500442 0.500231 0.661632 0.920322
C20   C     C_3   0.482433 0.644212 0.050348 -0.415928
C21   C     C_3   0.399055 0.405968 0.049177 -0.475464
C22   C     C_3   0.409539 0.390047 0.951862 0.231598
C23   C     C_3   0.474192 0.643995 0.952189 0.271025
C24   C     C_1   0.502659 0.500295 0.750224 0.006109
C25   C     C_3   0.505576 0.498699 0.082622 0.101669
C26   C     C_3   0.505970 0.497246 0.916791 -0.196004
H1    H     H_    0.375167 0.873236 0.395589 0.175894
H2    H     H_    0.372517 0.125463 0.397074 0.171017
H3    H     H_    0.395189 0.685246 0.079340 0.228856
H4    H     H_    0.307751 0.451809 0.067092 0.250879
H5    H     H_    0.404097 0.304188 0.079531 0.181679
H6    H     H_    0.559568 0.712156 0.071730 0.201541
H7    H     H_    0.450684 0.289568 0.941459 0.201308
H8    H     H_    0.544640 0.715224 0.927413 0.174136
H9    H     H_    0.710404 0.508482 0.080806 0.225288
H10   H     H_    0.649081 0.342562 0.073890 0.194009
H11   H     H_    0.113453 0.300354 0.442048 0.152758
H12   H     H_    0.113540 0.699987 0.558487 0.168334
H13   H     H_    0.886548 0.301179 0.441026 0.149211
H14   H     H_    0.886349 0.699743 0.558767 0.178848
N1    N     N_R   0.499970 0.857200 0.499980 -0.127280
N2    N     N_R   0.499970 0.142800 0.499980 -0.131042
O1    O     O_R   0.316750 0.614620 0.499990 -0.628503
O2    O     O_R   0.316750 0.385380 0.499990 -0.622189
O3    O     O_R   0.499990 0.614720 0.377140 -0.615824
O4    O     O_R   0.499990 0.385280 0.377140 -0.623293
O5    O     O_R   0.683220 0.614710 0.500000 -0.593717
O6    O     O_R   0.683220 0.385290 0.500000 -0.605461
O7    O     O_R   0.499980 0.614620 0.622860 -0.588491
O8    O     O_R   0.499980 0.385380 0.622860 -0.547775
Zn1   Zn    Zn3+2 0.499980 0.653120 0.500000 0.999861
Zn2   Zn    Zn3+2 0.499980 0.346880 0.500000 1.010697
S1    S     S_3+6 0.331465 0.725979 0.917779 0.060342
O9    O     O_2   0.338041 0.872326 0.944866 -0.262514
O10   O     O_2   0.319090 0.720955 0.822677 -0.291173
O11   O     O_3   0.205335 0.655999 0.963585 -0.462734
H15   H     H_    0.132826 0.705914 0.939791 0.418392
S2    S     S_3+6 0.259321 0.364897 0.899255 0.118366
O12   O     O_2   0.237112 0.462794 0.828082 -0.189678
O13   O     O_2   0.257325 0.224064 0.861973 -0.253005
O14   O     O_3   0.140306 0.378016 0.968668 -0.435675
H16   H     H_    0.140179 0.291086 0.000027 0.362195
S3    S     S_3+6 0.765744 0.576283 0.922304 0.043309
O15   O     O_2   0.751754 0.708400 0.969491 -0.357900
O16   O     O_2   0.892840 0.521149 0.944453 -0.162848
O17   O     O_3   0.761556 0.606010 0.817214 -0.572195
H17   H     H_    0.829483 0.672264 0.807009 0.396454
S4    S     S_3+6 0.696002 0.287189 0.910990 0.062227
O18   O     O_2   0.671698 0.274532 0.817219 -0.243195
O19   O     O_2   0.834354 0.269596 0.925065 -0.198584
O20   O     O_3   0.624716 0.156664 0.960068 -0.579423
H18   H     H_    0.684280 0.124889 0.004058 0.374705
O21   O     O_3   0.646519 0.146884 0.612676 -0.568948
C27   C     C_3   0.774211 0.122637 0.595183 -0.161137
H19   H     H_    0.829818 0.207430 0.622432 0.214707
H20   H     H_    0.794531 0.118504 0.525781 0.103781
H21   H     H_    0.806660 0.028024 0.626265 0.189096
O22   O     O_3   0.632799 0.856278 0.620827 -0.623178
C28   C     C_3   0.576754 0.878510 0.700969 -0.134304
H22   H     H_    0.612850 0.801365 0.745873 0.206518
H23   H     H_    0.472965 0.867116 0.698667 0.177890
H24   H     H_    0.602205 0.979458 0.727337 0.221930

loop_
_geom_bond_atom_site_label_1
_geom_bond_atom_site_label_2
_ccdc_geom_bond_type
S3    O16   D    
C11   C18   S    
O21   C27   S    
C18   O5    A    
S1    O9    D    
C21   H5    S    
C27   H20   S    
C2    S4    S    
C5    C6    T    
C4    C24   T    
C20   C25   S    
O3    Zn1   S    
S2    O13   D    
O4    Zn2   S    
C9    H13   S    
O11   H15   S    
C10   H14   S    
C23   C26   S    
C17   N2    A    
C6    C15   S    
C1    O1    A    
C16   C17   A    
O7    Zn1   S    
C27   H21   S    
O8    Zn2   S    
O2    Zn2   S    
S2    O14   S    
O17   H17   S    
S3    O17   S    
C21   C22   S    
C1    C12   S    
C8    H12   S    
C13   N2    A    
C23   S1    S    
C20   H3    S    
S1    O10   D    
C7    C12   A    
C27   H19   S    
C3    C25   S    
C28   H23   S    
O22   C28   S    
S4    O18   D    
O5    Zn1   S    
S2    O12   D    
C28   H22   S    
C19   O7    A    
C1    O2    A    
C20   C23   S    
C3    H9    S    
C8    C12   A    
C23   H8    S    
C7    H11   S    
C2    C26   S    
C9    C11   A    
C14   N1    A    
C5    C25   S    
C8    C10   A    
C13   O21   S    
C15   O3    A    
C2    S3    S    
C20   H6    S    
S1    O11   S    
C7    C9    A    
C22   H7    S    
C21   C25   S    
C17   H2    S    
C18   O6    A    
C22   S2    S    
C28   H24   S    
C4    C26   S    
C21   H4    S    
C2    C3    S    
O20   H18   S    
C19   O8    A    
O1    Zn1   S    
C3    H10   S    
C16   H1    S    
S4    O20   S    
C19   C24   S    
C14   O22   S    
O14   H16   S    
C10   C11   A    
S3    O15   D    
O6    Zn2   S    
S4    O19   D    
C22   C26   S    
C15   O4    A    
C13   C14   A    
C16   N1    A    
N1    Zn1   S    
N2    Zn2   S    
