data_mof_unit_37222.cif
_audit_creation_date              2012-12-11T16:26:24-0500
_audit_creation_method            fapswitch 2.2
_symmetry_space_group_name_H-M    P1
_symmetry_Int_Tables_number       1
_space_group_crystal_system       triclinic
_cell_length_a                    13.978351
_cell_length_b                    13.978304
_cell_length_c                    31.965019
_cell_angle_alpha                 89.999737
_cell_angle_beta                  90.001158
_cell_angle_gamma                 120.006288
_cell_volume                      5408.64528464

loop_
_atom_site_label
_atom_site_type_symbol
_atom_type_description
_atom_site_fract_x
_atom_site_fract_y
_atom_site_fract_z
_atom_type_partial_charge
C1    C     C_R   0.567371 0.443972 0.810626 0.556763
C2    C     C_R   0.443925 0.567541 0.189310 0.556689
C3    C     C_2   0.971942 0.314142 0.434883 0.616013
C4    C     C_2   0.343443 0.030088 0.065405 0.616102
C5    C     C_2   0.686178 0.657048 0.434764 0.616309
C6    C     C_2   0.308339 0.956388 0.567375 0.616975
C7    C     C_2   0.046357 0.353822 0.932223 0.617181
C8    C     C_2   0.647317 0.691860 0.567478 0.617342
C9    C     C_2   0.308015 0.955515 0.932486 0.616919
C10   C     C_2   0.045912 0.353522 0.567713 0.617125
C11   C     C_2   0.647165 0.691923 0.932485 0.617350
C12   C     C_R   0.432464 0.876388 0.310686 0.556522
C13   C     C_R   0.123653 0.556080 0.189301 0.556626
C14   C     C_1   0.008109 0.513338 0.017981 0.079115
C15   C     C_1   0.506101 0.993735 0.481806 0.079350
C16   C     C_1   0.486936 0.494169 0.018086 0.079345
C17   C     C_1   0.007728 0.513126 0.481975 0.079169
C18   C     C_1   0.505806 0.993275 0.018142 0.079330
C19   C     C_1   0.487085 0.494041 0.481884 0.079415
C20   C     C_1   0.507636 0.996443 0.519315 0.081235
C21   C     C_R   0.876593 0.432627 0.689374 0.556554
C22   C     C_1   0.005373 0.512221 0.980472 0.081451
C23   C     C_1   0.488226 0.492477 0.519398 0.081494
C24   C     C_1   0.507365 0.995989 0.980632 0.081383
C25   C     C_1   0.004990 0.511995 0.519483 0.081375
C26   C     C_1   0.488071 0.492591 0.980573 0.081527
C27   C     C_R   0.934464 0.471770 0.851295 -0.006806
C28   C     C_R   0.537356 0.065865 0.648630 -0.006812
C29   C     C_R   0.528339 0.462655 0.851329 -0.006786
C30   C     C_R   0.934378 0.471710 0.648688 -0.006821
C31   C     C_R   0.537340 0.065778 0.851351 -0.006805
C32   C     C_R   0.556025 0.123410 0.810628 0.556639
C33   C     C_R   0.528367 0.462641 0.648661 -0.006806
C34   C     C_R   0.470004 0.931999 0.351825 -0.007204
C35   C     C_R   0.068438 0.538116 0.148080 -0.007200
C36   C     C_R   0.461963 0.530086 0.351854 -0.007207
C37   C     C_R   0.469920 0.931897 0.148153 -0.007208
C38   C     C_R   0.068353 0.538087 0.351901 -0.007190
C39   C     C_R   0.461938 0.530127 0.148133 -0.007220
C40   C     C_R   0.938317 0.561413 0.873516 0.225616
C41   C     C_R   0.623092 0.061844 0.626441 0.225555
C42   C     C_R   0.438511 0.376913 0.873498 0.225551
C43   C     C_R   0.567372 0.443971 0.689373 0.556732
C44   C     C_R   0.938215 0.561343 0.626465 0.225605
C45   C     C_R   0.623111 0.061884 0.873567 0.225562
C46   C     C_R   0.438552 0.376889 0.626490 0.225582
C47   C     C_R   0.560119 0.936483 0.373883 0.225775
C48   C     C_R   0.063667 0.623656 0.126077 0.225710
C49   C     C_R   0.376409 0.439752 0.373853 0.225781
C50   C     C_R   0.560034 0.936387 0.126095 0.225778
C51   C     C_R   0.063616 0.623634 0.373912 0.225706
C52   C     C_R   0.376384 0.439784 0.126138 0.225795
C53   C     C_R   0.969047 0.577097 0.915520 -0.086870
C54   C     C_R   0.876602 0.432633 0.810624 0.556612
C55   C     C_R   0.608294 0.031688 0.584374 -0.086897
C56   C     C_R   0.422924 0.391785 0.915533 -0.086754
C57   C     C_R   0.968822 0.576952 0.584449 -0.086893
C58   C     C_R   0.608225 0.031580 0.915617 -0.086895
C59   C     C_R   0.423023 0.391724 0.584445 -0.086750
C60   C     C_R   0.573758 0.963385 0.416276 -0.087303
C61   C     C_R   0.037327 0.610697 0.083629 -0.087316
C62   C     C_R   0.389497 0.426161 0.416269 -0.087146
C63   C     C_R   0.573579 0.963138 0.083688 -0.087334
C64   C     C_R   0.037150 0.610606 0.416349 -0.087315
C65   C     C_R   0.556023 0.123414 0.689371 0.556624
C66   C     C_R   0.389423 0.426238 0.083713 -0.087156
C67   C     C_R   0.998314 0.507004 0.935742 -0.029052
C68   C     C_R   0.509234 0.003209 0.564053 -0.029160
C69   C     C_R   0.493324 0.490931 0.935836 -0.028968
C70   C     C_R   0.997983 0.506793 0.564215 -0.029118
C71   C     C_R   0.509050 0.002827 0.935895 -0.029107
C72   C     C_R   0.493463 0.490849 0.564135 -0.029037
C73   C     C_R   0.501112 0.988325 0.437046 -0.031123
C74   C     C_R   0.013294 0.513501 0.062745 -0.031218
C75   C     C_R   0.486843 0.499105 0.437121 -0.031101
C76   C     C_R   0.443928 0.567537 0.310688 0.556718
C77   C     C_R   0.500836 0.987921 0.062903 -0.031196
C78   C     C_R   0.012966 0.513341 0.437212 -0.031164
C79   C     C_R   0.486726 0.499235 0.062849 -0.031165
C80   C     C_R   0.007132 0.425200 0.912992 0.050568
C81   C     C_R   0.418619 0.994603 0.586743 0.050336
C82   C     C_R   0.575369 0.581540 0.913151 0.050433
C83   C     C_R   0.006810 0.424986 0.586960 0.050509
C84   C     C_R   0.418417 0.994077 0.913173 0.050402
C85   C     C_R   0.575492 0.581480 0.586819 0.050389
C86   C     C_R   0.418469 0.996432 0.414609 0.049067
C87   C     C_R   0.432454 0.876378 0.189311 0.556492
C88   C     C_R   0.005590 0.422816 0.085098 0.048839
C89   C     C_R   0.577549 0.582037 0.414754 0.048938
C90   C     C_R   0.418177 0.996013 0.085334 0.049010
C91   C     C_R   0.005224 0.422657 0.414845 0.048880
C92   C     C_R   0.577439 0.582183 0.085210 0.048902
C93   C     C_R   0.974424 0.408451 0.870935 -0.138177
C94   C     C_R   0.434315 0.026642 0.628871 -0.138296
C95   C     C_R   0.591981 0.565761 0.871059 -0.138142
C96   C     C_R   0.974230 0.408318 0.629031 -0.138258
C97   C     C_R   0.434204 0.026282 0.871060 -0.138259
C98   C     C_R   0.123646 0.556077 0.310696 0.556652
C99   C     C_R   0.592044 0.565731 0.628923 -0.138138
C100  C     C_R   0.403944 0.967681 0.372154 -0.138888
C101  C     C_R   0.033680 0.436716 0.127612 -0.139016
C102  C     C_R   0.563506 0.596468 0.372272 -0.138775
C103  C     C_R   0.403757 0.967423 0.127804 -0.138918
C104  C     C_R   0.033441 0.436625 0.372343 -0.138987
C105  C     C_R   0.563442 0.596568 0.127699 -0.138796
C106  C     C_2   0.972484 0.314375 0.065036 0.615982
C107  C     C_2   0.343862 0.030696 0.434518 0.616156
C108  C     C_2   0.686029 0.657254 0.065187 0.616269
Cl1   Cl    Cl    0.900721 0.653988 0.851843 -0.503104
Cl2   Cl    Cl    0.656197 0.905014 0.148682 -0.500479
Cl3   Cl    Cl    0.094307 0.750865 0.351219 -0.500149
Cl4   Cl    Cl    0.249150 0.343287 0.148842 -0.500197
Cl5   Cl    Cl    0.752885 0.098490 0.648256 -0.502792
Cl6   Cl    Cl    0.345545 0.247023 0.851704 -0.502935
Cl7   Cl    Cl    0.900760 0.654004 0.648157 -0.503092
Cl8   Cl    Cl    0.753061 0.098900 0.851816 -0.502913
Cl9   Cl    Cl    0.345521 0.247042 0.648297 -0.502881
Cl10  Cl    Cl    0.656160 0.904905 0.351321 -0.500521
Cl11  Cl    Cl    0.094143 0.750788 0.148803 -0.500102
Cl12  Cl    Cl    0.249108 0.343334 0.351168 -0.500245
Cr1   Cr    Cr6+3 0.504240 0.249200 0.750000 1.162453
Cr2   Cr    Cr6+3 0.744960 0.495760 0.750000 1.162387
Cr3   Cr    Cr6+3 0.750800 0.255040 0.750000 1.162473
Cr4   Cr    Cr6+3 0.249200 0.504240 0.250000 1.162583
Cr5   Cr    Cr6+3 0.495760 0.744960 0.250000 1.162567
Cr6   Cr    Cr6+3 0.255040 0.750800 0.250000 1.162674
H1    H     H_    0.040254 0.678929 0.066374 0.176734
H2    H     H_    0.676543 0.035500 0.933147 0.175283
H3    H     H_    0.964820 0.641287 0.566904 0.175421
H4    H     H_    0.358405 0.323478 0.933031 0.175200
H5    H     H_    0.032547 0.368984 0.144500 0.223400
H6    H     H_    0.337563 0.969077 0.355201 0.223073
H7    H     H_    0.631188 0.663146 0.144594 0.223468
H8    H     H_    0.032280 0.368893 0.355445 0.223359
H9    H     H_    0.337369 0.968812 0.144753 0.223119
H10   H     H_    0.631250 0.663035 0.355373 0.223443
H11   H     H_    0.366575 0.024866 0.645991 0.221923
H12   H     H_    0.638819 0.960148 0.433592 0.176822
H13   H     H_    0.976337 0.342608 0.853774 0.221696
H14   H     H_    0.658030 0.633481 0.646035 0.221973
H15   H     H_    0.366453 0.024414 0.853915 0.221866
H16   H     H_    0.976151 0.342477 0.646190 0.221675
H17   H     H_    0.657981 0.633501 0.853949 0.221939
H18   H     H_    0.973365 0.170470 0.067476 0.361709
H19   H     H_    0.199977 0.031587 0.431859 0.361826
H20   H     H_    0.830292 0.801744 0.067689 0.361826
H21   H     H_    0.972558 0.170104 0.432404 0.361725
H22   H     H_    0.199464 0.030791 0.068059 0.361816
H23   H     H_    0.321170 0.360946 0.066455 0.176810
H24   H     H_    0.830492 0.801485 0.432252 0.361840
H25   H     H_    0.161509 0.951141 0.570441 0.362246
H26   H     H_    0.052936 0.212961 0.929004 0.362285
H27   H     H_    0.788746 0.838905 0.570553 0.362308
H28   H     H_    0.160877 0.949575 0.929299 0.362297
H29   H     H_    0.052382 0.212597 0.570928 0.362265
H30   H     H_    0.788640 0.838897 0.929444 0.362310
H31   H     H_    0.040113 0.678842 0.433613 0.176699
H32   H     H_    0.638655 0.959921 0.066377 0.176861
H33   H     H_    0.321245 0.360883 0.433531 0.176748
H34   H     H_    0.676597 0.035498 0.566869 0.175296
H35   H     H_    0.965048 0.641429 0.933067 0.175341
H36   H     H_    0.358511 0.323405 0.566947 0.175284
O1    O     O_R   0.480350 0.140770 0.796330 -0.481483
O2    O     O_R   0.140770 0.480350 0.203670 -0.482851
O3    O     O_R   0.519650 0.660420 0.296330 -0.482538
O4    O     O_R   0.339580 0.859230 0.203670 -0.482736
O5    O     O_R   0.514930 0.348530 0.793250 -0.441708
O6    O     O_R   0.833600 0.485070 0.706750 -0.441759
O7    O     O_R   0.651470 0.166400 0.793250 -0.441658
O8    O     O_R   0.514930 0.348530 0.706750 -0.441735
O9    O     O_R   0.833600 0.485070 0.793250 -0.441754
O10   O     O_R   0.651470 0.166400 0.706750 -0.441687
O11   O     O_R   0.348530 0.514930 0.293250 -0.441653
O12   O     O_R   0.660420 0.519650 0.703670 -0.481330
O13   O     O_R   0.485070 0.833600 0.206750 -0.441669
O14   O     O_R   0.166400 0.651470 0.293250 -0.441560
O15   O     O_R   0.348530 0.514930 0.206750 -0.441675
O16   O     O_R   0.485070 0.833600 0.293250 -0.441656
O17   O     O_R   0.166400 0.651470 0.206750 -0.441584
O18   O     O_3   0.666667 0.333333 0.750000 -0.303289
O19   O     O_3   0.333333 0.666667 0.250000 -0.304407
O20   O     O_2   0.918621 0.287240 0.032670 -0.489851
O21   O     O_R   0.000937 0.241641 0.083832 -0.641301
O22   O     O_2   0.370931 0.084746 0.466842 -0.490192
O23   O     O_R   0.859230 0.339580 0.796330 -0.481325
O24   O     O_R   0.243023 0.003175 0.415623 -0.641185
O25   O     O_2   0.713074 0.630357 0.032842 -0.489891
O26   O     O_R   0.759016 0.758351 0.084003 -0.640979
O27   O     O_2   0.918057 0.287027 0.467241 -0.489934
O28   O     O_R   0.000246 0.241320 0.416067 -0.641299
O29   O     O_2   0.370397 0.084016 0.033052 -0.490073
O30   O     O_R   0.242610 0.002524 0.084313 -0.641220
O31   O     O_2   0.713229 0.630110 0.467098 -0.489928
O32   O     O_R   0.759191 0.758136 0.415948 -0.640971
O33   O     O_2   0.281251 0.900453 0.535517 -0.492185
O34   O     O_R   0.480350 0.140770 0.703670 -0.481553
O35   O     O_R   0.233872 0.982326 0.586270 -0.641048
O36   O     O_2   0.102724 0.383145 0.963972 -0.492513
O37   O     O_R   0.020935 0.253578 0.913303 -0.640921
O38   O     O_2   0.618199 0.718923 0.535688 -0.492164
O39   O     O_R   0.747767 0.766453 0.586336 -0.640786
O40   O     O_2   0.281036 0.899698 0.964372 -0.492280
O41   O     O_R   0.233303 0.980980 0.913503 -0.641121
O42   O     O_2   0.102192 0.382771 0.535942 -0.492432
O43   O     O_R   0.020474 0.253280 0.586642 -0.640992
O44   O     O_2   0.617971 0.719056 0.964238 -0.492213
O45   O     O_R   0.660420 0.519650 0.796330 -0.481306
O46   O     O_R   0.747687 0.766438 0.913664 -0.640803
O47   O     O_R   0.859230 0.339580 0.703670 -0.481441
O48   O     O_R   0.140770 0.480350 0.296330 -0.482800
O49   O     O_R   0.519650 0.660420 0.203670 -0.482590
O50   O     O_R   0.339580 0.859230 0.296330 -0.482656

loop_
_geom_bond_atom_site_label_1
_geom_bond_atom_site_label_2
_ccdc_geom_bond_type
H22   O30   S    
C12   O16   A    
C32   O7    A    
C58   H2    S    
C33   C46   A    
C29   C42   A    
H25   O35   S    
C108  O25   D    
Cr5   O3    S    
C86   C107  S    
C35   C101  A    
C91   C104  A    
C38   C98   S    
C38   C104  A    
C34   C47   A    
H28   O41   S    
Cr5   O49   S    
C27   C54   S    
C52   C66   A    
Cr2   O18   S    
C66   C79   A    
C98   O48   A    
C107  O24   S    
C2    O49   A    
C21   O6    A    
C104  H8    S    
C18   C24   T    
C68   C81   A    
C14   C74   S    
C36   C102  A    
C8    O39   S    
C10   O43   S    
C53   C67   A    
C13   C35   S    
C3    O27   D    
C89   C102  A    
C43   O12   A    
C58   C71   A    
C49   Cl12  S    
C1    O5    A    
H21   O28   S    
C95   H17   S    
Cr1   O1    S    
C32   O1    A    
C60   C73   A    
C50   Cl2   S    
C88   C106  S    
C3    C91   S    
C8    C85   S    
Cr2   O9    S    
C4    O30   S    
C41   C55   A    
C30   C96   A    
C69   C82   A    
C36   C76   S    
C42   C56   A    
C47   C60   A    
C2    C39   S    
C42   Cl6   S    
C47   Cl10  S    
H24   O32   S    
C44   Cl7   S    
C54   O23   A    
C64   H31   S    
C34   C100  A    
C49   C62   A    
C2    O15   A    
C57   C70   A    
C48   Cl11  S    
C9    O41   S    
C27   C40   A    
Cr1   O34   S    
C4    C90   S    
Cr3   O10   S    
C59   C72   A    
C65   O34   A    
C25   C70   S    
C108  O26   S    
Cr1   O8    S    
H18   O21   S    
H20   O26   S    
C6    C81   S    
C50   C63   A    
C4    O29   D    
C30   C44   A    
C13   O17   A    
H30   O46   S    
C35   C48   A    
Cr2   O45   S    
C6    O33   D    
C43   O8    A    
C92   C108  S    
C88   C101  A    
Cr1   O18   S    
H27   O39   S    
C11   C82   S    
C16   C26   T    
C15   C20   T    
Cr1   O5    S    
C77   C90   A    
Cr2   O6    S    
C51   C64   A    
C65   O10   A    
Cr5   O19   S    
C33   C43   S    
Cr6   O17   S    
C26   C69   S    
C12   O50   A    
C66   H23   S    
C3    O28   S    
C29   C95   A    
C55   C68   A    
C28   C94   A    
C38   C51   A    
H29   O43   S    
Cr2   O12   S    
C10   C83   S    
C46   Cl9   S    
C22   C67   S    
C33   C99   A    
Cr3   O23   S    
C19   C23   T    
C106  O20   D    
C85   C99   A    
C98   O14   A    
C31   C32   S    
C44   C57   A    
C90   C103  A    
C1    C29   S    
C79   C92   A    
C76   O3    A    
C61   H1    S    
C70   C83   A    
C97   H15   S    
Cr4   O15   S    
Cr3   O7    S    
C86   C100  A    
C101  H5    S    
C55   H34   S    
C11   O44   D    
C40   C53   A    
C78   C91   A    
C99   H14   S    
C27   C93   A    
C11   O46   S    
C84   C97   A    
C12   C34   S    
C45   C58   A    
Cr5   O13   S    
Cr6   O14   S    
C93   H13   S    
C13   O2    A    
C5    O31   D    
C71   C84   A    
C63   C77   A    
C57   H3    S    
C39   C105  A    
C76   O11   A    
C51   Cl3   S    
C82   C95   A    
C15   C73   S    
C105  H7    S    
C64   C78   A    
C54   O9    A    
C20   C68   S    
C37   C87   S    
C67   C80   A    
C41   Cl5   S    
Cr3   O18   S    
Cr6   O4    S    
C5    C89   S    
C6    O35   S    
C37   C103  A    
C100  H6    S    
C28   C41   A    
C40   Cl1   S    
Cr4   O11   S    
C102  H10   S    
C61   C74   A    
C87   O13   A    
C21   C30   S    
H19   O24   S    
C107  O22   D    
C16   C79   S    
C17   C25   T    
C14   C22   T    
C7    O36   D    
C19   C75   S    
C28   C65   S    
Cr4   O19   S    
C59   H36   S    
Cr6   O50   S    
C81   C94   A    
C45   Cl8   S    
C53   H35   S    
C48   C61   A    
C72   C85   A    
Cr4   O48   S    
C18   C77   S    
C83   C96   A    
Cr3   O47   S    
C37   C50   A    
C17   C78   S    
C21   O47   A    
C39   C52   A    
C23   C72   S    
C31   C97   A    
C7    O37   S    
C1    O45   A    
C103  H9    S    
C106  O21   S    
C8    O38   D    
C9    O40   D    
C75   C89   A    
C9    C84   S    
C96   H16   S    
C87   O4    A    
C92   C105  A    
C62   C75   A    
H26   O37   S    
C46   C59   A    
C56   C69   A    
C31   C45   A    
Cr5   O16   S    
C94   H11   S    
C52   Cl4   S    
C62   H33   S    
C5    O32   S    
Cr6   O19   S    
C73   C86   A    
C63   H32   S    
C74   C88   A    
C80   C93   A    
C10   O42   D    
C56   H4    S    
C36   C49   A    
C24   C71   S    
C60   H12   S    
C7    C80   S    
Cr4   O2    S    
