data_mof_unit_37572.cif
_audit_creation_date              2012-12-10T20:31:04-0500
_audit_creation_method            fapswitch 2.2
_symmetry_space_group_name_H-M    P1
_symmetry_Int_Tables_number       1
_space_group_crystal_system       triclinic
_cell_length_a                    15.011695
_cell_length_b                    10.674643
_cell_length_c                    9.853541
_cell_angle_alpha                 89.744434
_cell_angle_beta                  89.999681
_cell_angle_gamma                 90.077255
_cell_volume                      1578.9584596

loop_
_atom_site_label
_atom_site_type_symbol
_atom_type_description
_atom_site_fract_x
_atom_site_fract_y
_atom_site_fract_z
_atom_type_partial_charge
C1    C     C_R   0.503515 0.259947 0.500289 0.866824
C2    C     C_R   0.907310 0.506168 0.624499 0.119820
C3    C     C_R   0.953756 0.500190 0.252159 -0.216971
C4    C     C_R   0.046307 0.501366 0.252177 -0.222993
C5    C     C_R   0.092651 0.503810 0.375438 0.124137
C6    C     C_R   0.046309 0.505582 0.499943 0.062412
C7    C     C_R   0.092645 0.508331 0.624447 0.120152
C8    C     C_R   0.046267 0.510479 0.747687 -0.223267
C9    C     C_R   0.953711 0.509334 0.747714 -0.217386
C10   C     C_R   0.184755 0.503914 0.376474 -0.276677
C11   C     C_R   0.230609 0.504333 0.499985 -0.072789
C12   C     C_R   0.326553 0.501142 0.500005 0.885602
C13   C     C_R   0.184775 0.508227 0.623447 -0.265532
C14   C     C_R   0.518534 0.062967 0.623391 0.151643
C15   C     C_R   0.518574 0.128608 0.501011 -0.118676
C16   C     C_R   0.535664 0.065445 0.379148 -0.216202
C17   C     C_R   0.534724 0.935882 0.378507 -0.241145
C18   C     C_R   0.517364 0.871391 0.499953 -0.101840
C19   C     C_R   0.517875 0.935212 0.622721 0.141938
C20   C     C_3   0.454861 0.927082 0.739824 -0.482985
C21   C     C_3   0.455654 0.068937 0.740844 -0.507333
C22   C     C_R   0.422821 0.479820 0.071192 0.137998
C23   C     C_R   0.502765 0.740082 0.499709 0.878176
C24   C     C_R   0.574374 0.531360 0.071805 -0.122789
C25   C     C_R   0.574395 0.531274 0.927869 -0.123756
C26   C     C_R   0.422799 0.480545 0.928643 0.141255
C27   C     C_3   0.364865 0.367472 0.922180 -0.587344
C28   C     C_3   0.364319 0.366436 0.076671 0.317216
C29   C     C_R   0.673442 0.500211 0.499986 0.889554
C30   C     C_R   0.815174 0.504513 0.623573 -0.259418
C31   C     C_R   0.769374 0.501367 0.499976 -0.070608
C32   C     C_R   0.815195 0.499979 0.376358 -0.260025
C33   C     C_R   0.907331 0.501586 0.375397 0.119792
C34   C     C_R   0.953643 0.504536 0.499945 0.058505
H1    H     H_    0.779345 0.505765 0.719133 0.154064
H2    H     H_    0.541400 0.887473 0.282654 0.171068
H3    H     H_    0.389142 0.886658 0.711458 0.204505
H4    H     H_    0.486431 0.884751 0.831187 0.205636
H5    H     H_    0.390278 0.110951 0.713398 0.199988
H6    H     H_    0.488041 0.107965 0.832897 0.214319
H7    H     H_    0.634798 0.554928 0.125661 0.138637
H8    H     H_    0.634847 0.554725 0.873807 0.140696
H9    H     H_    0.298404 0.388188 0.878364 0.157149
H10   H     H_    0.399419 0.286566 0.876108 0.225493
H11   H     H_    0.298365 0.387176 0.122483 0.049548
H12   H     H_    0.779382 0.497593 0.280810 0.154506
H13   H     H_    0.918549 0.498008 0.156148 0.139127
H14   H     H_    0.081584 0.499931 0.156198 0.135866
H15   H     H_    0.220475 0.503638 0.281088 0.146288
H16   H     H_    0.220534 0.511276 0.718804 0.154523
H17   H     H_    0.081518 0.512583 0.843672 0.136822
H18   H     H_    0.918484 0.510707 0.843727 0.139045
H19   H     H_    0.543075 0.115049 0.283674 0.200868
N1    N     N_R   0.499390 0.499140 0.142800 -0.084493
N2    N     N_R   0.499390 0.499180 0.857150 -0.090398
O1    O     O_R   0.500010 0.316790 0.614690 -0.614344
O2    O     O_R   0.500000 0.316760 0.385350 -0.575371
O3    O     O_R   0.367850 0.499990 0.614680 -0.621290
O4    O     O_R   0.367840 0.499950 0.385340 -0.629007
O5    O     O_R   0.500000 0.683240 0.614650 -0.617548
O6    O     O_R   0.499990 0.683210 0.385310 -0.629499
O7    O     O_R   0.632160 0.500050 0.614660 -0.634104
O8    O     O_R   0.632150 0.500010 0.385320 -0.635348
Zn1   Zn    Zn3+2 0.500010 0.500020 0.653130 0.947747
Zn2   Zn    Zn3+2 0.499990 0.499980 0.346870 0.970391
O9    O     O_3   0.409679 0.262403 0.132696 -0.598977
C35   C     C_3   0.351883 0.157884 0.142361 0.084215
H20   H     H_    0.393810 0.072346 0.137127 0.162898
H21   H     H_    0.304026 0.152019 0.055961 0.123631
C36   C     C_3   0.301710 0.157724 0.278087 -0.339466
H22   H     H_    0.349263 0.172130 0.362645 0.235113
H23   H     H_    0.252565 0.235363 0.279860 0.206194
C37   C     C_3   0.252785 0.034115 0.301228 -0.955020
H24   H     H_    0.204193 0.017365 0.218228 0.264388
H25   H     H_    0.216229 0.037677 0.399101 0.267427
H26   H     H_    0.300986 0.955277 0.305547 0.267423

loop_
_geom_bond_atom_site_label_1
_geom_bond_atom_site_label_2
_ccdc_geom_bond_type
O8    Zn2   S    
C37   H24   S    
C19   C20   S    
C26   N2    A    
C29   O8    A    
C7    C8    A    
C22   N1    A    
N1    Zn2   S    
C26   C27   S    
C30   H1    S    
C14   C21   S    
C1    O1    A    
C5    C6    A    
C3    C33   A    
C24   N1    A    
C15   C16   A    
C18   C19   A    
C16   H19   S    
O7    Zn1   S    
C12   O4    A    
C27   H10   S    
C16   C17   A    
O1    Zn1   S    
C36   H22   S    
C1    C15   S    
C17   H2    S    
C12   O3    A    
C2    C34   A    
O9    C35   S    
C22   C28   S    
C24   H7    S    
C37   H25   S    
C9    H18   S    
C17   C18   A    
O3    Zn1   S    
C23   O5    A    
C28   H11   S    
C35   H20   S    
C24   C25   A    
C8    C9    A    
C6    C34   A    
C35   H21   S    
C2    C9    A    
C28   O9    S    
C1    O2    A    
C20   H4    S    
C31   C32   A    
C21   H5    S    
C23   O6    A    
N2    Zn1   S    
C36   C37   S    
C33   C34   A    
C8    H17   S    
C37   H26   S    
C3    C4    A    
C4    H14   S    
C27   H9    S    
C29   O7    A    
C32   H12   S    
C14   C19   A    
C25   N2    A    
O2    Zn2   S    
C4    C5    A    
C25   H8    S    
C11   C12   S    
C6    C7    A    
C2    C30   A    
O5    Zn1   S    
C35   C36   S    
C32   C33   A    
C5    C10   A    
C29   C31   S    
O4    Zn2   S    
C20   H3    S    
C11   C13   A    
C30   C31   A    
C21   H6    S    
C18   C23   S    
C3    H13   S    
C10   C11   A    
C13   H16   S    
O6    Zn2   S    
C7    C13   A    
C20   C21   S    
C22   C26   A    
C27   C28   S    
C14   C15   A    
C36   H23   S    
C10   H15   S    
