data_mof_unit_19649.cif
_audit_creation_date              2012-12-10T19:09:34-0500
_audit_creation_method            fapswitch 2.2
_symmetry_space_group_name_H-M    P1
_symmetry_Int_Tables_number       1
_space_group_crystal_system       triclinic
_cell_length_a                    15.030937
_cell_length_b                    15.037333
_cell_length_c                    9.69322
_cell_angle_alpha                 90.00257
_cell_angle_beta                  90.004431
_cell_angle_gamma                 89.997044
_cell_volume                      2190.91202566

loop_
_atom_site_label
_atom_site_type_symbol
_atom_type_description
_atom_site_fract_x
_atom_site_fract_y
_atom_site_fract_z
_atom_type_partial_charge
C1    C     C_R   0.120384 0.378051 0.500286 0.897099
C2    C     C_R   0.120445 0.621890 0.500303 0.898725
C3    C     C_R   0.620352 0.878020 0.499716 0.896822
C4    C     C_R   0.620436 0.121899 0.499707 0.898536
C5    C     C_3   0.909560 0.521728 0.081268 -0.183495
C6    C     C_3   0.909514 0.521581 0.918637 -0.255033
C7    C     C_3   0.410978 0.026896 0.081331 -0.255073
C8    C     C_3   0.411033 0.027042 0.918718 -0.182882
C9    C     C_R   0.878016 0.379404 0.499750 0.906293
C10   C     C_R   0.877918 0.620495 0.499764 0.908442
C11   C     C_R   0.378032 0.879387 0.500244 0.906046
C12   C     C_R   0.377953 0.120532 0.500234 0.908184
C13   C     C_3   0.847869 0.223771 0.558475 0.419115
C14   C     C_3   0.776581 0.294531 0.348553 0.428293
C15   C     C_3   0.775927 0.704816 0.348763 0.424191
C16   C     C_3   0.847900 0.776238 0.557622 0.418846
C17   C     C_3   0.276747 0.794392 0.651490 0.429460
C18   C     C_3   0.347838 0.723782 0.441304 0.418973
C19   C     C_3   0.347844 0.276192 0.441826 0.418889
C20   C     C_3   0.276283 0.205172 0.651310 0.424909
C21   C     C_3   0.206124 0.722010 0.651442 -0.445328
C22   C     C_3   0.275095 0.652080 0.439876 -0.448959
C23   C     C_3   0.275100 0.347893 0.440324 -0.449671
C24   C     C_3   0.205728 0.277611 0.651289 -0.444519
C25   C     C_3   0.775121 0.152073 0.559968 -0.449170
C26   C     C_3   0.705999 0.222110 0.348598 -0.445274
C27   C     C_3   0.705394 0.777283 0.348771 -0.444701
C28   C     C_3   0.775155 0.847936 0.559169 -0.449714
C29   C     C_3   0.729209 0.342599 0.587689 -0.342382
C30   C     C_3   0.729330 0.657527 0.588593 -0.342904
C31   C     C_3   0.229154 0.842639 0.412524 -0.342529
C32   C     C_3   0.229220 0.157420 0.411882 -0.343156
C33   C     C_3   0.809316 0.311678 0.498882 -0.060682
C34   C     C_3   0.809163 0.688166 0.498949 -0.059072
C35   C     C_3   0.309338 0.811652 0.501120 -0.061039
C36   C     C_3   0.309219 0.188224 0.501049 -0.059221
C37   C     C_3   0.188141 0.690386 0.501374 0.014571
C38   C     C_3   0.188033 0.309506 0.501300 0.015494
C39   C     C_3   0.688124 0.190404 0.498647 0.014681
C40   C     C_3   0.687979 0.809451 0.498701 0.015615
C41   C     C_3   0.156579 0.770868 0.414157 -0.406870
C42   C     C_3   0.156608 0.229173 0.413608 -0.406739
C43   C     C_3   0.656620 0.270842 0.586016 -0.406648
C44   C     C_3   0.656706 0.729267 0.586839 -0.406608
C45   C     C_3   0.024347 0.411884 0.081285 -0.249765
C46   C     C_3   0.024466 0.411920 0.918741 -0.221865
C47   C     C_3   0.062098 0.566322 0.918795 -0.225810
C48   C     C_3   0.062171 0.566256 0.081241 -0.241531
C49   C     C_3   0.519129 0.910528 0.081262 -0.220447
C50   C     C_3   0.519008 0.910500 0.918699 -0.250345
C51   C     C_3   0.566059 0.062304 0.918786 -0.240689
C52   C     C_3   0.565982 0.062383 0.081228 -0.226976
H1    H     H_    0.904309 0.200826 0.493115 0.039738
H2    H     H_    0.833129 0.272460 0.282567 0.061326
H3    H     H_    0.832244 0.726663 0.282145 0.059189
H4    H     H_    0.904122 0.798989 0.491658 0.040511
H5    H     H_    0.333356 0.772221 0.717276 0.060592
H6    H     H_    0.404352 0.700806 0.506492 0.039878
H7    H     H_    0.404205 0.299056 0.507428 0.040700
H8    H     H_    0.332736 0.227187 0.717529 0.058339
H9    H     H_    0.229674 0.665433 0.716088 0.132971
H10   H     H_    0.297513 0.593535 0.501062 0.118789
H11   H     H_    0.297405 0.406354 0.501807 0.119072
H12   H     H_    0.229236 0.334060 0.716254 0.134056
H13   H     H_    0.797487 0.093544 0.498698 0.118829
H14   H     H_    0.729527 0.165576 0.283834 0.133136
H15   H     H_    0.728793 0.833604 0.283457 0.134585
H16   H     H_    0.797345 0.906299 0.497378 0.119020
H17   H     H_    0.143696 0.747760 0.698833 0.239835
H18   H     H_    0.263503 0.628792 0.332301 0.226110
H19   H     H_    0.263704 0.371326 0.332779 0.226823
H20   H     H_    0.143194 0.251848 0.698326 0.239140
H21   H     H_    0.763608 0.128759 0.667543 0.226128
H22   H     H_    0.643527 0.247859 0.301333 0.239872
H23   H     H_    0.642762 0.751455 0.302114 0.239064
H24   H     H_    0.763954 0.871540 0.666667 0.226941
H25   H     H_    0.750353 0.354866 0.696105 0.206958
H26   H     H_    0.701816 0.406230 0.547175 0.200801
H27   H     H_    0.701843 0.593746 0.548813 0.200809
H28   H     H_    0.750792 0.645651 0.696959 0.204180
H29   H     H_    0.201784 0.906227 0.453242 0.200695
H30   H     H_    0.250207 0.855012 0.304100 0.207351
H31   H     H_    0.250485 0.145318 0.303484 0.204249
H32   H     H_    0.201797 0.093724 0.452084 0.200921
H33   H     H_    0.094144 0.798853 0.458185 0.180430
H34   H     H_    0.142058 0.749987 0.306272 0.186344
H35   H     H_    0.142210 0.250235 0.305771 0.185590
H36   H     H_    0.094127 0.201096 0.457320 0.179898
H37   H     H_    0.642151 0.249905 0.693883 0.186151
H38   H     H_    0.594168 0.298861 0.542090 0.180301
H39   H     H_    0.594156 0.701107 0.543472 0.179695
H40   H     H_    0.642483 0.750510 0.694644 0.185475
H41   H     H_    0.977941 0.359919 0.119955 0.155920
H42   H     H_    0.978270 0.359851 0.879840 0.202801
H43   H     H_    0.044656 0.633867 0.880509 0.177599
H44   H     H_    0.044861 0.633802 0.119672 0.149837
H45   H     H_    0.469847 0.861346 0.120041 0.204843
H46   H     H_    0.469535 0.861424 0.880099 0.158300
H47   H     H_    0.552793 0.130790 0.880514 0.150274
H48   H     H_    0.552552 0.130877 0.119333 0.174790
H49   H     H_    0.091660 0.393114 0.118927 0.157868
H50   H     H_    0.091880 0.393342 0.881388 0.151306
H51   H     H_    0.130402 0.552013 0.880554 0.145345
H52   H     H_    0.130486 0.551831 0.119385 0.156989
H53   H     H_    0.585260 0.887883 0.118742 0.152566
H54   H     H_    0.585031 0.887680 0.880976 0.157007
H55   H     H_    0.633363 0.043850 0.880504 0.156432
H56   H     H_    0.633285 0.044077 0.119674 0.145198
H57   H     H_    0.859594 0.473279 0.120136 0.219930
H58   H     H_    0.859684 0.472869 0.880017 0.161430
H59   H     H_    0.887690 0.587916 0.880911 0.190043
H60   H     H_    0.888023 0.588223 0.118588 0.186030
H61   H     H_    0.358307 0.981287 0.120008 0.159362
H62   H     H_    0.358236 0.981708 0.879737 0.221886
H63   H     H_    0.393577 0.094744 0.881487 0.180587
H64   H     H_    0.393218 0.094452 0.118979 0.194582
N1    N     N_3   0.998760 0.500000 0.138610 -0.055250
N2    N     N_3   0.998760 0.500000 0.861390 -0.048928
N3    N     N_3   0.498760 0.000000 0.138610 -0.049680
N4    N     N_3   0.498760 0.000000 0.861390 -0.054956
O1    O     O_R   0.092530 0.407440 0.616040 -0.632026
O2    O     O_R   0.092530 0.407440 0.383960 -0.644826
O3    O     O_R   0.092530 0.592560 0.383960 -0.645614
O4    O     O_R   0.092530 0.592560 0.616040 -0.631433
O5    O     O_R   0.592530 0.907440 0.616040 -0.644635
O6    O     O_R   0.592530 0.907440 0.383960 -0.631869
O7    O     O_R   0.592530 0.092560 0.383960 -0.631268
O8    O     O_R   0.592530 0.092560 0.616040 -0.645715
O9    O     O_R   0.907330 0.407420 0.616040 -0.593279
O10   O     O_R   0.907330 0.407420 0.383960 -0.608331
O11   O     O_R   0.907330 0.592580 0.383960 -0.612194
O12   O     O_R   0.907330 0.592580 0.616040 -0.594139
O13   O     O_R   0.407330 0.907420 0.616040 -0.607699
O14   O     O_R   0.407330 0.907420 0.383960 -0.593645
O15   O     O_R   0.407330 0.092580 0.383960 -0.594432
O16   O     O_R   0.407330 0.092580 0.616040 -0.611895
Zn1   Zn    Zn3+2 0.999890 0.500000 0.654960 0.941581
Zn2   Zn    Zn3+2 0.999890 0.500000 0.345040 0.929745
Zn3   Zn    Zn3+2 0.499890 0.000000 0.654960 0.930085
Zn4   Zn    Zn3+2 0.499890 0.000000 0.345040 0.941253
F1    F     F_    0.879891 0.236104 0.691410 -0.662533
F2    F     F_    0.741460 0.371623 0.291399 -0.633013
F3    F     F_    0.740579 0.627534 0.292559 -0.634293
F4    F     F_    0.880363 0.764279 0.690392 -0.659880
F5    F     F_    0.241746 0.871451 0.708937 -0.632503
F6    F     F_    0.379709 0.736187 0.308312 -0.663287
F7    F     F_    0.380030 0.264003 0.308952 -0.660404
F8    F     F_    0.241083 0.128002 0.708089 -0.634440

loop_
_geom_bond_atom_site_label_1
_geom_bond_atom_site_label_2
_ccdc_geom_bond_type
C16   C28   S    
C14   F2    S    
C6    H59   S    
C19   C23   S    
N1    Zn2   S    
C45   H41   S    
C14   C33   S    
C3    O6    A    
C7    C8    S    
C45   C46   S    
O5    Zn3   S    
C41   H34   S    
C46   H50   S    
O3    Zn2   S    
O6    Zn4   S    
C43   H37   S    
C31   H30   S    
C50   N4    S    
N3    Zn4   S    
C32   C36   S    
C28   H16   S    
O8    Zn3   S    
C38   C42   S    
C19   C36   S    
C11   O13   A    
O14   Zn4   S    
C5    C6    S    
C26   C39   S    
C28   C40   S    
C48   H52   S    
C29   C33   S    
C46   N2    S    
O1    Zn1   S    
C32   H31   S    
C1    O2    A    
C8    H63   S    
C16   C34   S    
C10   O11   A    
C18   H6    S    
C47   N2    S    
C29   H26   S    
C20   C24   S    
C12   O15   A    
C24   C38   S    
C20   F8    S    
C13   F1    S    
C12   C36   S    
N2    Zn1   S    
C48   H44   S    
C18   C35   S    
C15   C34   S    
C21   H9    S    
C44   H40   S    
C8    H62   S    
C30   H28   S    
C23   H11   S    
C24   H12   S    
C29   C43   S    
C9    C33   S    
C6    H58   S    
C30   C44   S    
O16   Zn3   S    
C27   H23   S    
O9    Zn1   S    
C13   H1    S    
C51   H47   S    
O15   Zn4   S    
C32   H32   S    
C50   H46   S    
C43   H38   S    
C47   H51   S    
C30   C34   S    
C51   C52   S    
C26   H14   S    
C7    N3    S    
O4    Zn1   S    
C25   H13   S    
O2    Zn2   S    
C11   O14   A    
C4    O8    A    
C49   H53   S    
C10   O12   A    
C19   H7    S    
O12   Zn1   S    
C9    O10   A    
C22   C37   S    
C52   H48   S    
C19   F7    S    
C21   H17   S    
C15   H3    S    
C7    H64   S    
C17   F5    S    
C17   C21   S    
C16   H4    S    
C13   C33   S    
C23   H19   S    
C22   H10   S    
C15   C27   S    
C47   C48   S    
C46   H42   S    
C4    C39   S    
C27   C40   S    
C51   N4    S    
C21   C37   S    
C10   C34   S    
N4    Zn3   S    
C14   C26   S    
C44   H39   S    
C45   H49   S    
C1    C38   S    
C15   F3    S    
C30   H27   S    
C14   H2    S    
C3    C40   S    
O13   Zn3   S    
C2    O4    A    
C31   C35   S    
C42   H36   S    
O7    Zn4   S    
O10   Zn2   S    
C24   H20   S    
C45   N1    S    
C8    N4    S    
C47   H43   S    
C31   C41   S    
C4    O7    A    
C16   F4    S    
C18   C22   S    
C13   C25   S    
C39   C43   S    
C3    O5    A    
C48   N1    S    
C5    H60   S    
C9    O9    A    
C23   C38   S    
C41   H33   S    
C31   H29   S    
C7    H61   S    
C11   C35   S    
O11   Zn2   S    
C25   C39   S    
C2    C37   S    
C49   N3    S    
C5    H57   S    
C26   H22   S    
C22   H18   S    
C25   H21   S    
C37   C41   S    
C1    O1    A    
C27   H15   S    
C49   H45   S    
C20   C36   S    
C52   N3    S    
C40   C44   S    
C29   H25   S    
C52   H56   S    
C18   F6    S    
C51   H55   S    
C49   C50   S    
C12   O16   A    
C5    N1    S    
C50   H54   S    
C32   C42   S    
C42   H35   S    
C17   C35   S    
C20   H8    S    
C6    N2    S    
C2    O3    A    
C17   H5    S    
C28   H24   S    
