data_mof_unit_24467.cif
_audit_creation_date              2013-03-05T15:58:07-0500
_audit_creation_method            fapswitch 2.2
_symmetry_space_group_name_H-M    P1
_symmetry_Int_Tables_number       1
_space_group_crystal_system       triclinic
_cell_length_a                    15.044761
_cell_length_b                    13.925217
_cell_length_c                    10.863018
_cell_angle_alpha                 89.993252
_cell_angle_beta                  86.697951
_cell_angle_gamma                 89.749298
_cell_volume                      2272.01905265

loop_
_atom_site_label
_atom_site_type_symbol
_atom_site_description
_atom_site_fract_x
_atom_site_fract_y
_atom_site_fract_z
_atom_type_partial_charge
O1    O     O_R   0.370250 0.582280 0.500040 -0.551271
O2    O     O_R   0.370250 0.417720 0.500040 -0.529215
C1    C     C_R   0.329202 0.500066 0.498300 0.852902
O3    O     O_R   0.499970 0.582270 0.317700 -0.550363
O4    O     O_R   0.499970 0.417730 0.317700 -0.518715
C2    C     C_R   0.500183 0.500084 0.260049 0.806512
Cu1   Cu    Cu3+1 0.499990 0.597420 0.500010 1.120205
Cu2   Cu    Cu3+1 0.499990 0.402580 0.500010 1.107996
O5    O     O_R   0.629730 0.582260 0.499980 -0.505947
O6    O     O_R   0.629730 0.417740 0.499980 -0.550818
O7    O     O_R   0.500000 0.582270 0.682320 -0.553028
O8    O     O_R   0.500000 0.417730 0.682320 -0.574964
C3    C     C_R   0.670602 0.500151 0.505283 0.814085
C4    C     C_R   0.496331 0.500167 0.739919 0.862954
C5    C     C_3   0.485342 0.605387 0.072186 0.071829
C6    C     C_3   0.415315 0.441164 0.081100 0.042790
H1    H     H_    0.417974 0.629524 0.107891 0.156338
H2    H     H_    0.355175 0.480160 0.119696 0.133243
C7    C     C_3   0.489281 0.605769 0.930485 0.116366
C8    C     C_3   0.413482 0.438045 0.937118 0.149998
H3    H     H_    0.553656 0.637699 0.896377 0.166470
H4    H     H_    0.426983 0.363192 0.906326 0.206876
H5    H     H_    0.643385 0.497992 0.086214 0.234104
H6    H     H_    0.595941 0.383007 0.095275 0.262087
H7    H     H_    0.637772 0.491574 0.876307 0.230267
H8    H     H_    0.584602 0.377949 0.887475 0.229182
C9    C     C_3   0.584336 0.456547 0.061047 -0.294997
C10   C     C_3   0.497687 0.500319 0.122067 -0.194707
C11   C     C_3   0.491510 0.500751 0.878238 -0.196044
C12   C     C_3   0.579376 0.453833 0.919479 -0.515893
C13   C     C_R   0.816864 0.448687 0.420675 -0.114308
C14   C     C_R   0.767237 0.501289 0.510190 -0.113795
C15   C     C_R   0.810236 0.553578 0.601498 -0.027074
C16   C     C_R   0.904311 0.556082 0.596123 0.062001
C17   C     C_R   0.953429 0.500222 0.506580 0.056230
C18   C     C_R   0.909277 0.445802 0.419931 0.029310
C19   C     C_R   0.950763 0.614019 0.677140 -0.113703
C20   C     C_R   0.043124 0.614038 0.672644 -0.136492
C21   C     C_R   0.091408 0.556612 0.587180 0.094164
C22   C     C_R   0.046993 0.498877 0.503618 0.036262
C23   C     C_R   0.096246 0.440125 0.417368 -0.010752
C24   C     C_R   0.050824 0.383520 0.333089 0.320033
C25   C     C_R   0.957875 0.388894 0.333529 -0.193519
C26   C     C_R   0.183761 0.556622 0.583965 -0.063172
C27   C     C_R   0.232665 0.499893 0.498893 -0.061089
C28   C     C_R   0.189544 0.441856 0.416197 -0.131313
H9    H     H_    0.783128 0.409803 0.350844 0.205939
H10   H     H_    0.916528 0.661193 0.743402 0.192784
H11   H     H_    0.076905 0.659319 0.736171 0.187450
H12   H     H_    0.217554 0.599199 0.649690 0.227605
H13   H     H_    0.229585 0.400597 0.349631 0.219816
H14   H     H_    0.923199 0.346031 0.268298 0.206488
C29   C     C_R   0.427043 0.796611 0.545358 0.467913
C30   C     C_R   0.431187 0.205394 0.557863 0.423146
N1    N     N_R   0.499930 0.743810 0.499950 -0.289004
N2    N     N_R   0.499930 0.256190 0.499950 -0.295719
C31   C     C_R   0.572031 0.794464 0.446655 0.455517
C32   C     C_R   0.567617 0.206322 0.436225 0.459393
C33   C     C_R   0.569481 0.897093 0.431188 -0.133763
C34   C     C_R   0.566227 0.103660 0.425182 -0.130184
C35   C     C_R   0.500014 0.949202 0.492475 0.041471
C36   C     C_R   0.499405 0.052050 0.491917 0.047764
C37   C     C_R   0.429488 0.898507 0.552290 -0.070768
C38   C     C_R   0.430549 0.103224 0.556688 -0.077611
C39   C     C_R   0.632861 0.949345 0.354365 -0.070624
C40   C     C_R   0.628808 0.051109 0.347936 -0.059505
C41   C     C_R   0.361456 0.051013 0.617983 -0.084256
C42   C     C_R   0.360138 0.950948 0.613969 -0.067612
H15   H     H_    0.307137 0.086897 0.669119 0.213210
H16   H     H_    0.304556 0.915152 0.661632 0.210269
N3    N     N_R   0.549266 0.675633 0.114759 0.181612
O9    O     O_R   0.633051 0.671288 0.077664 -0.296679
O10   O     O_R   0.519078 0.752978 0.170232 -0.282476
N4    N     N_R   0.411613 0.342960 0.131529 0.167999
O11   O     O_R   0.469430 0.277763 0.094714 -0.300356
O12   O     O_R   0.345351 0.318028 0.206678 -0.286944
N5    N     N_R   0.097319 0.319379 0.247924 0.145320
O13   O     O_R   0.151941 0.255504 0.288233 -0.254673
O14   O     O_R   0.072680 0.312356 0.135415 -0.265453
N6    N     N_R   0.343167 0.751546 0.571460 0.119912
O15   O     O_R   0.316707 0.733538 0.684851 -0.307748
O16   O     O_R   0.284013 0.756126 0.488795 -0.354628
N7    N     N_R   0.359337 0.255204 0.621709 0.147806
O17   O     O_R   0.363577 0.271302 0.738911 -0.328598
O18   O     O_R   0.281795 0.256580 0.574400 -0.303831
N8    N     N_R   0.654083 0.746088 0.415249 0.139660
O19   O     O_R   0.663055 0.693583 0.316490 -0.278438
O20   O     O_R   0.724255 0.766601 0.474605 -0.305221
N9    N     N_R   0.645650 0.256507 0.392601 0.124869
O21   O     O_R   0.720272 0.241370 0.444568 -0.351742
O22   O     O_R   0.645448 0.307551 0.292503 -0.376093
C43   C     C_2   0.697197 0.900193 0.266688 0.954779
O23   O     O_2   0.671855 0.867117 0.170730 -0.477423
O24   O     O_R   0.787418 0.897215 0.290839 -0.659413
H17   H     H_    0.824886 0.863217 0.223466 0.363875
C44   C     C_2   0.680774 0.099500 0.245406 0.933925
O25   O     O_2   0.762103 0.101072 0.243706 -0.504469
O26   O     O_R   0.635897 0.141227 0.149617 -0.680125
H18   H     H_    0.677946 0.171622 0.084676 0.354925
N10   N     N_R   0.419400 0.668669 0.886625 0.168997
O27   O     O_R   0.442630 0.752580 0.843160 -0.295760
O28   O     O_R   0.336103 0.654390 0.920218 -0.280559
N11   N     N_R   0.324627 0.462609 0.895887 0.171356
O29   O     O_R   0.314664 0.482401 0.780591 -0.335992
O30   O     O_R   0.254112 0.436817 0.962767 -0.255941
C45   C     C_2   0.758842 0.597936 0.708321 0.788540
O31   O     O_2   0.776636 0.575852 0.813086 -0.586892
O32   O     O_R   0.694097 0.667788 0.690412 -0.685811
H19   H     H_    0.669261 0.697215 0.770477 0.350950

loop_
_geom_bond_atom_site_label_1
_geom_bond_atom_site_label_2
_geom_bond_distance
_ccdc_geom_bond_type
C6    C10   1.576367 S    
C39   C43   1.483446 S    
C16   C19   1.410604 A    
C23   C24   1.415431 A    
C3    C14   1.458050 S    
C17   C18   1.406448 A    
H6    C9    1.106008 S    
Cu1   N1    2.038509 S    
Cu2   N2    2.038517 S    
Cu1   Cu2   2.713188 S    
C8    N11   1.472962 S    
N5    O13   1.301224 A    
C31   N8    1.427690 S    
C5    C7    1.537040 S    
C19   C20   1.387585 A    
N4    O12   1.299996 A    
C6    N4    1.473178 S    
C40   C44   1.486592 S    
C7    H3    1.111468 S    
C20   C21   1.395165 A    
O7    C4    1.303103 A    
N8    O20   1.301155 A    
C25   H14   1.084410 S    
C31   C33   1.439551 A    
C45   O31   1.222992 D    
C32   C34   1.434979 A    
O26   H18   1.013840 S    
O32   H19   1.012563 S    
C34   C36   1.405325 A    
C16   C17   1.417622 A    
C35   C37   1.404772 A    
O5    C3    1.298720 A    
N10   O27   1.301860 A    
C36   C38   1.409147 A    
C2    C10   1.501533 S    
C13   C14   1.396891 A    
C44   O26   1.397716 S    
C23   C28   1.403283 A    
H5    C9    1.108843 S    
N9    O22   1.299148 A    
C6    C8    1.566516 S    
C29   N1    1.384596 A    
C34   C40   1.424501 A    
C13   H9    1.083099 S    
C9    C12   1.544433 S    
C35   C36   1.432193 A    
O3    Cu1   1.991684 S    
N10   O28   1.301010 A    
C30   N7    1.427525 S    
C8    C11   1.572253 S    
N5    O14   1.301253 A    
C30   N2    1.377337 A    
C33   C35   1.405475 A    
N4    O11   1.301509 A    
C41   C42   1.394374 A    
C38   C41   1.406866 A    
C29   N6    1.425572 S    
N6    O16   1.301566 A    
C21   C22   1.411248 A    
C20   H11   1.084177 S    
N8    O19   1.298607 A    
C27   C28   1.397466 A    
C28   H13   1.078308 S    
C1    C27   1.452035 S    
O1    C1    1.303814 A    
Cu1   O7    1.991626 S    
C11   C12   1.560650 S    
N7    O17   1.298006 A    
Cu2   O8    1.991675 S    
C44   O25   1.222937 D    
C43   O24   1.397677 S    
C15   C16   1.413758 A    
N11   O30   1.302611 A    
C6    H2    1.114168 S    
C19   H10   1.081373 S    
O3    C2    1.304566 A    
C22   C23   1.418159 A    
N7    O18   1.301648 A    
O8    C4    1.306902 A    
H8    C12   1.113501 S    
N1    C31   1.394151 A    
C24   C25   1.399801 A    
C4    C11   1.500155 S    
C7    C11   1.568254 S    
N11   O29   1.299327 A    
C26   C27   1.391463 A    
N3    O10   1.301443 A    
C26   H12   1.079035 S    
H7    C12   1.106574 S    
C5    H1    1.114641 S    
C37   C42   1.408447 A    
O1    Cu1   1.964158 S    
Cu2   O6    1.964191 S    
O2    Cu2   1.962324 S    
C15   C45   1.489498 S    
C8    H4    1.109057 S    
N6    O15   1.297276 A    
O6    C3    1.307166 A    
O4    Cu2   1.991634 S    
C7    N10   1.465975 S    
C21   C26   1.387850 A    
C5    N3    1.468074 S    
C14   C15   1.417991 A    
C17   C22   1.406207 A    
N3    O9    1.302218 A    
C33   C39   1.431572 A    
C29   C37   1.421671 A    
C5    C10   1.574092 S    
O4    C2    1.306521 A    
C45   O32   1.395116 S    
C43   O23   1.221285 D    
N2    C32   1.382444 A    
O2    C1    1.300681 A    
O24   H17   1.013777 S    
C32   N9    1.426251 S    
Cu1   O5    1.962354 S    
C30   C38   1.422878 A    
C24   N5    1.436368 S    
C42   H16   1.081442 S    
C39   C40   1.420014 A    
C9    C10   1.550464 S    
C13   C18   1.390284 A    
C18   C25   1.399851 A    
C41   H15   1.081806 S    
N9    O21   1.301694 A    
