data_mof_unit_47430.cif
_audit_creation_date              2013-03-05T15:45:10-0500
_audit_creation_method            fapswitch 2.2
_symmetry_space_group_name_H-M    P1
_symmetry_Int_Tables_number       1
_space_group_crystal_system       triclinic
_cell_length_a                    10.898772
_cell_length_b                    10.91494
_cell_length_c                    9.783664
_cell_angle_alpha                 110.149177
_cell_angle_beta                  99.381065
_cell_angle_gamma                 90.426467
_cell_volume                      1075.47345431

loop_
_atom_site_label
_atom_site_type_symbol
_atom_site_description
_atom_site_fract_x
_atom_site_fract_y
_atom_site_fract_z
_atom_type_partial_charge
O1    O     O_R   0.511700 0.332330 0.577400 -0.597778
O2    O     O_R   0.474680 0.295500 0.332650 -0.513992
C1    C     C_R   0.498088 0.253721 0.441807 0.817192
O3    O     O_R   0.338160 0.518420 0.622400 -0.599793
O4    O     O_R   0.301140 0.481590 0.377650 -0.511662
C2    C     C_R   0.261906 0.504790 0.500954 0.848844
Cu1   Cu    Cu3+1 0.521920 0.521810 0.644910 1.004388
Cu2   Cu    Cu3+1 0.478080 0.478190 0.355090 1.094727
O5    O     O_R   0.525320 0.704500 0.667350 -0.556546
O6    O     O_R   0.488300 0.667670 0.422600 -0.571612
O7    O     O_R   0.698860 0.518410 0.622350 -0.589390
O8    O     O_R   0.661840 0.481580 0.377600 -0.558762
C3    C     C_R   0.512451 0.746518 0.558118 0.839435
C4    C     C_R   0.737187 0.488103 0.498626 0.877029
C5    C     C_R   0.155855 0.632073 0.771066 -0.187286
H1    H     H_    0.241646 0.682998 0.772551 0.199632
C6    C     C_R   0.119771 0.649244 0.907193 0.365297
C7    C     C_R   0.005750 0.591145 0.907828 -0.166721
H2    H     H_    0.977606 0.596914 0.010872 0.217824
C8    C     C_R   0.926287 0.524889 0.775385 -0.130456
H3    H     H_    0.843978 0.475150 0.784669 0.222244
C9    C     C_R   0.957711 0.516209 0.637267 0.063226
C10   C     C_R   0.081227 0.552696 0.635770 -0.015542
C11   C     C_R   0.126887 0.505363 0.500463 -0.248186
C12   C     C_R   0.043281 0.440228 0.366310 0.257241
C13   C     C_R   0.915973 0.427541 0.366303 0.231729
C14   C     C_R   0.871485 0.472260 0.501035 -0.228856
H4    H     H_    0.574434 0.856491 0.376837 0.211940
C15   C     C_2   0.507750 0.113080 0.409962 0.118022
C16   C     C_2   0.579524 0.066526 0.505932 -0.141072
H5    H     H_    0.520876 0.955360 0.694818 0.207093
C17   C     C_2   0.531311 0.886206 0.587479 -0.264560
C18   C     C_2   0.564331 0.926963 0.483576 -0.137143
H6    H     H_    0.415972 0.418678 0.845126 0.157155
H7    H     H_    0.583861 0.581515 0.154915 0.157311
N1    N     N_2   0.445130 0.445430 0.137370 -0.259457
C19   C     C_2   0.510839 0.509984 0.081451 0.053086
H8    H     H_    0.624705 0.620636 0.934600 0.216857
N2    N     N_2   0.554930 0.554500 0.862630 -0.274723
C20   C     C_2   0.489347 0.489793 0.918501 0.003311
H9    H     H_    0.376052 0.378481 0.065222 0.231886
N3    N     N_R   0.086793 0.380085 0.229371 0.166573
O9    O     O_R   0.107139 0.449633 0.149827 -0.326663
O10   O     O_R   0.088970 0.253468 0.174712 -0.275626
N4    N     N_R   0.438509 0.025232 0.272649 0.159211
O11   O     O_R   0.323294 0.045191 0.230218 -0.260308
O12   O     O_R   0.498426 0.947548 0.176289 -0.300337
N5    N     N_R   0.201794 0.719085 0.043828 0.155018
O13   O     O_R   0.319081 0.742595 0.044690 -0.309402
O14   O     O_R   0.162081 0.751969 0.169263 -0.300290
N6    N     N_R   0.833312 0.360772 0.229041 0.161600
O15   O     O_R   0.831139 0.399043 0.116609 -0.355380
O16   O     O_R   0.764229 0.257668 0.214250 -0.301026
C21   C     C_2   0.678391 0.148508 0.628794 0.883811
O17   O     O_2   0.738788 0.235894 0.612758 -0.601176
O18   O     O_R   0.707624 0.120747 0.759183 -0.721565
H10   H     H_    0.777747 0.181778 0.832663 0.383630

loop_
_geom_bond_atom_site_label_1
_geom_bond_atom_site_label_2
_geom_bond_distance
_ccdc_geom_bond_type
C12   N3    1.434099 S    
O4    Cu2   1.975629 S    
C10   C11   1.419301 A    
C15   C16   1.359005 D    
C4    C14   1.472471 S    
C3    C17   1.457325 S    
H5    C17   1.086110 S    
C6    N5    1.437193 S    
C8    C9    1.419662 A    
Cu2   O8    1.977476 S    
C2    C11   1.470832 S    
C17   C18   1.337619 D    
C8    H3    1.077499 S    
N5    O14   1.301625 A    
C6    C7    1.392822 A    
N1    H9    1.030656 S    
Cu1   Cu2   2.668320 S    
O1    Cu1   1.938416 S    
C13   N6    1.437975 S    
O18   H10   1.013924 S    
Cu1   O7    1.975629 S    
C16   C21   1.493006 S    
C13   C14   1.406953 A    
O4    C2    1.289034 A    
N3    O10   1.300754 A    
O3    Cu1   1.977476 S    
H6    C20   1.084933 S    
O3    C2    1.295786 A    
N1    C19   1.301700 D    
H7    C19   1.085001 S    
O8    C4    1.305957 A    
H4    C18   1.086141 S    
O2    C1    1.289183 A    
C19   C20   1.510128 S    
C7    C8    1.389717 A    
C9    C14   1.426259 A    
N4    O12   1.300928 A    
H8    N2    1.030671 S    
O7    C4    1.280699 A    
C21   O18   1.398543 S    
N3    O9    1.300706 A    
C5    C10   1.418722 A    
N6    O15   1.301260 A    
Cu1   O5    1.928848 S    
C11   C12   1.419871 A    
C1    C15   1.465695 S    
C7    H2    1.082490 S    
Cu2   N1    2.004526 S    
N2    C20   1.301681 D    
C5    C6    1.401217 A    
O5    C3    1.289127 A    
C21   O17   1.222740 D    
N5    O13   1.300011 A    
Cu1   N2    2.004674 S    
C16   C18   1.466505 S    
N6    O16   1.301519 A    
C12   C13   1.393352 A    
N4    O11   1.301153 A    
Cu2   O6    1.938416 S    
O2    Cu2   1.928848 S    
C9    C10   1.404804 A    
C5    H1    1.079672 S    
C15   N4    1.437001 S    
O1    C1    1.291444 A    
O6    C3    1.290200 A    
