data_mof_unit_7168.cif
_audit_creation_date              2012-10-26T17:43:25-0400
_audit_creation_method            fapswitch 2.2
_symmetry_space_group_name_H-M    P1
_symmetry_Int_Tables_number       1
_space_group_crystal_system       triclinic
_cell_length_a                    18.360942
_cell_length_b                    18.360939
_cell_length_c                    21.779328
_cell_angle_alpha                 90.0
_cell_angle_beta                  90.000047
_cell_angle_gamma                 89.978821
_cell_volume                      7342.33663401

loop_
_atom_site_label
_atom_site_type_symbol
_atom_type_description
_atom_site_fract_x
_atom_site_fract_y
_atom_site_fract_z
_atom_type_partial_charge
C1    C     C_R   0.000007 0.360082 0.999946 0.591610
C2    C     C_1   0.282530 0.000010 0.000037 0.060641
C3    C     C_1   0.999989 0.717469 0.999963 0.060639
C4    C     C_1   0.717469 0.999989 0.000037 0.060640
C5    C     C_1   0.500010 0.782530 0.499963 0.060639
C6    C     C_1   0.782530 0.500011 0.500037 0.060638
C7    C     C_1   0.499989 0.217469 0.499963 0.060637
C8    C     C_1   0.217470 0.499989 0.500037 0.060642
C9    C     C_R   1.000000 0.500000 0.881128 0.556817
C10   C     C_R   0.500000 1.000000 0.881134 0.554141
C11   C     C_R   1.000000 0.500000 0.118866 0.554141
C12   C     C_R   0.360082 0.000007 0.000054 0.591610
C13   C     C_R   0.500000 0.000000 0.118872 0.556817
C14   C     C_R   0.500000 1.000000 0.381128 0.556817
C15   C     C_R   1.000000 0.500000 0.381134 0.554141
C16   C     C_R   0.500000 1.000000 0.618866 0.554141
C17   C     C_R   1.000000 0.500000 0.618872 0.556817
C18   C     C_R   0.074591 0.614237 0.809768 0.226247
C19   C     C_R   0.615625 0.926979 0.809085 0.223553
C20   C     C_R   0.925409 0.385763 0.809767 0.226247
C21   C     C_R   0.384374 0.073020 0.809084 0.223554
C22   C     C_R   0.073021 0.384374 0.190915 0.223553
C23   C     C_R   0.999993 0.639918 0.999946 0.591610
C24   C     C_R   0.614236 0.074592 0.190232 0.226248
C25   C     C_R   0.926979 0.615626 0.190915 0.223554
C26   C     C_R   0.385763 0.925409 0.190232 0.226247
C27   C     C_R   0.574591 0.114237 0.309768 0.226247
C28   C     C_R   0.115626 0.426979 0.309085 0.223554
C29   C     C_R   0.425408 0.885763 0.309767 0.226247
C30   C     C_R   0.884374 0.573020 0.309084 0.223553
C31   C     C_R   0.573021 0.884374 0.690915 0.223553
C32   C     C_R   0.114237 0.574591 0.690232 0.226248
C33   C     C_R   0.426980 0.115625 0.690915 0.223554
C34   C     C_R   0.639918 0.999993 0.000054 0.591609
C35   C     C_R   0.885763 0.425409 0.690232 0.226247
C36   C     C_R   0.131881 0.651631 0.780408 0.253407
C37   C     C_R   0.654698 0.871652 0.778517 0.255732
C38   C     C_R   0.868119 0.348369 0.780407 0.253407
C39   C     C_R   0.345302 0.128347 0.778516 0.255731
C40   C     C_R   0.128348 0.345302 0.221483 0.255731
C41   C     C_R   0.651630 0.131882 0.219593 0.253408
C42   C     C_R   0.871652 0.654698 0.221483 0.255731
C43   C     C_R   0.348369 0.868119 0.219592 0.253407
C44   C     C_R   0.631880 0.151632 0.280407 0.253408
C45   C     C_R   0.500007 0.860082 0.499946 0.591610
C46   C     C_R   0.154698 0.371652 0.278517 0.255731
C47   C     C_R   0.368119 0.848369 0.280407 0.253407
C48   C     C_R   0.845302 0.628348 0.278517 0.255731
C49   C     C_R   0.628348 0.845302 0.721483 0.255732
C50   C     C_R   0.151631 0.631881 0.719593 0.253407
C51   C     C_R   0.371652 0.154698 0.721483 0.255731
C52   C     C_R   0.848369 0.368119 0.719592 0.253407
C53   C     C_R   0.139675 0.999996 0.000002 0.532298
C54   C     C_R   0.000004 0.860325 0.999998 0.532296
C55   C     C_R   0.860325 0.000004 0.000002 0.532300
C56   C     C_R   0.860082 0.500007 0.500054 0.591610
C57   C     C_R   0.999996 0.139675 0.999998 0.532300
C58   C     C_R   0.639675 0.499996 0.500002 0.532297
C59   C     C_R   0.500004 0.360325 0.499998 0.532296
C60   C     C_R   0.360325 0.500004 0.500002 0.532298
C61   C     C_R   0.499996 0.639675 0.499998 0.532297
C62   C     C_R   0.052597 0.541729 0.718525 -0.079181
C63   C     C_R   0.541522 0.947257 0.718542 -0.077399
C64   C     C_R   0.947402 0.458271 0.718525 -0.079181
C65   C     C_R   0.458478 0.052743 0.718542 -0.077399
C66   C     C_R   0.052743 0.458478 0.281458 -0.077400
C67   C     C_R   0.499993 0.139918 0.499946 0.591610
C68   C     C_R   0.541728 0.052598 0.281475 -0.079181
C69   C     C_R   0.947257 0.541522 0.281458 -0.077399
C70   C     C_R   0.458271 0.947402 0.281475 -0.079181
C71   C     C_R   0.552597 0.041729 0.218525 -0.079182
C72   C     C_R   0.041522 0.447257 0.218542 -0.077399
C73   C     C_R   0.447402 0.958271 0.218525 -0.079180
C74   C     C_R   0.958478 0.552743 0.218542 -0.077399
C75   C     C_R   0.552743 0.958478 0.781458 -0.077398
C76   C     C_R   0.041729 0.552598 0.781475 -0.079181
C77   C     C_R   0.447257 0.041522 0.781458 -0.077400
C78   C     C_R   0.139918 0.499993 0.500054 0.591610
C79   C     C_R   0.958271 0.447402 0.781475 -0.079181
C80   C     C_R   1.000000 0.500000 0.685986 0.008743
C81   C     C_R   0.500000 1.000000 0.685940 0.010575
C82   C     C_R   1.000000 0.500000 0.314060 0.010575
C83   C     C_R   0.500000 0.000000 0.314014 0.008743
C84   C     C_R   0.500000 0.000000 0.185986 0.008743
C85   C     C_R   1.000000 0.500000 0.185940 0.010576
C86   C     C_R   0.500000 0.000000 0.814060 0.010575
C87   C     C_R   1.000000 0.500000 0.814014 0.008743
C88   C     C_1   0.999995 0.217225 0.999981 0.018190
C89   C     C_1   0.000011 0.282530 0.999963 0.060638
C90   C     C_1   0.217225 0.999995 0.000019 0.018193
C91   C     C_1   0.000004 0.782775 0.999981 0.018189
C92   C     C_1   0.782775 0.000005 0.000019 0.018194
C93   C     C_1   0.499995 0.717225 0.499981 0.018191
C94   C     C_1   0.717225 0.499995 0.500019 0.018190
C95   C     C_1   0.500004 0.282775 0.499981 0.018187
C96   C     C_1   0.282775 0.500004 0.500019 0.018196
Cu1   Cu    Cu3+1 0.927460 0.500000 0.000000 1.142914
Cu2   Cu    Cu3+1 0.000000 0.000000 0.061780 1.121372
Cu3   Cu    Cu3+1 0.500000 0.500000 0.438220 1.121363
Cu4   Cu    Cu3+1 0.500000 0.500000 0.561780 1.121374
Cu5   Cu    Cu3+1 0.500000 0.072540 0.000000 1.142916
Cu6   Cu    Cu3+1 0.072540 0.500000 0.000000 1.142919
Cu7   Cu    Cu3+1 0.500000 0.927460 0.000000 1.142918
Cu8   Cu    Cu3+1 0.427460 0.000000 0.500000 1.142915
Cu9   Cu    Cu3+1 1.000000 0.572540 0.500000 1.142916
Cu10  Cu    Cu3+1 0.572540 0.000000 0.500000 1.142916
Cu11  Cu    Cu3+1 1.000000 0.427460 0.500000 1.142917
Cu12  Cu    Cu3+1 1.000000 0.000000 0.938220 1.121359
H1    H     H_    0.818927 0.238627 0.915407 0.357261
H2    H     H_    0.684851 0.624841 0.379551 0.362828
H3    H     H_    0.681074 0.261372 0.415407 0.357263
H4    H     H_    0.315162 0.375162 0.379540 0.362828
H5    H     H_    0.375156 0.315143 0.620442 0.362826
H6    H     H_    0.738627 0.318927 0.584593 0.357262
H7    H     H_    0.624840 0.684847 0.620452 0.362829
H8    H     H_    0.261373 0.681073 0.584593 0.357262
H9    H     H_    0.993398 0.637086 0.862563 0.315663
H10   H     H_    0.637015 0.006246 0.863938 0.320994
H11   H     H_    0.006601 0.362914 0.862563 0.315662
H12   H     H_    0.184833 0.124834 0.879534 0.362830
H13   H     H_    0.362985 0.993754 0.863938 0.320993
H14   H     H_    0.993754 0.362985 0.136062 0.320994
H15   H     H_    0.637086 0.993399 0.137437 0.315662
H16   H     H_    0.006246 0.637015 0.136062 0.320994
H17   H     H_    0.362914 0.006602 0.137437 0.315663
H18   H     H_    0.493398 0.137086 0.362563 0.315662
H19   H     H_    0.137015 0.506246 0.363938 0.320993
H20   H     H_    0.506601 0.862914 0.362563 0.315662
H21   H     H_    0.862985 0.493754 0.363938 0.320994
H22   H     H_    0.493754 0.862985 0.636062 0.320993
H23   H     H_    0.181073 0.761373 0.915407 0.357262
H24   H     H_    0.137086 0.493398 0.637437 0.315663
H25   H     H_    0.506246 0.137015 0.636062 0.320994
H26   H     H_    0.862914 0.506601 0.637437 0.315662
H27   H     H_    0.815150 0.875158 0.879552 0.362828
H28   H     H_    0.875159 0.815150 0.120449 0.362828
H29   H     H_    0.238620 0.818942 0.084594 0.357262
H30   H     H_    0.124842 0.184851 0.120448 0.362828
H31   H     H_    0.761364 0.181089 0.084591 0.357265
H32   H     H_    0.318927 0.738627 0.415407 0.357261
O1    O     O_R   0.938740 0.394190 0.000020 -0.473986
O2    O     O_R   0.894190 0.561260 0.500020 -0.481589
O3    O     O_3   0.357235 0.047454 0.863898 -0.614472
O4    O     O_3   0.047455 0.357235 0.136101 -0.614479
O5    O     O_3   0.643353 0.047031 0.136767 -0.616202
O6    O     O_3   0.952546 0.642765 0.136101 -0.614478
O7    O     O_3   0.356647 0.952970 0.136767 -0.616210
O8    O     O_3   0.547030 0.143353 0.363233 -0.616206
O9    O     O_3   0.142765 0.452545 0.363899 -0.614473
O10   O     O_3   0.452969 0.856647 0.363233 -0.616206
O11   O     O_3   0.857235 0.547454 0.363898 -0.614478
O12   O     O_3   0.547455 0.857235 0.636101 -0.614477
O13   O     O_R   0.561260 0.105810 0.500020 -0.473984
O14   O     O_3   0.143353 0.547031 0.636767 -0.616206
O15   O     O_3   0.452546 0.142765 0.636101 -0.614481
O16   O     O_3   0.856647 0.452969 0.636767 -0.616206
O17   O     O_R   0.105810 0.438740 0.500020 -0.481587
O18   O     O_R   0.438740 0.105810 0.499980 -0.481590
O19   O     O_R   0.894190 0.438740 0.499980 -0.473985
O20   O     O_R   0.561260 0.894190 0.499980 -0.481588
O21   O     O_R   0.105810 0.561260 0.499980 -0.473986
O22   O     O_R   0.938740 0.500000 0.909860 -0.483883
O23   O     O_R   0.500000 0.061260 0.909860 -0.487554
O24   O     O_R   0.061260 0.500000 0.909860 -0.483883
O25   O     O_R   0.394190 0.061260 0.000020 -0.481586
O26   O     O_R   0.500000 0.938740 0.909860 -0.487553
O27   O     O_R   0.938740 0.500000 0.090140 -0.487554
O28   O     O_R   0.500000 0.938740 0.090140 -0.483883
O29   O     O_R   0.061260 0.500000 0.090140 -0.487553
O30   O     O_R   0.500000 0.061260 0.090140 -0.483884
O31   O     O_R   0.438740 0.000000 0.409860 -0.483883
O32   O     O_R   0.000000 0.561260 0.409860 -0.487553
O33   O     O_R   0.561260 0.000000 0.409860 -0.483883
O34   O     O_R   1.000000 0.438740 0.409860 -0.487553
O35   O     O_R   0.438740 0.000000 0.590140 -0.487553
O36   O     O_R   0.061260 0.605810 0.000020 -0.473984
O37   O     O_R   1.000000 0.438740 0.590140 -0.483884
O38   O     O_R   0.561260 0.000000 0.590140 -0.487553
O39   O     O_R   1.000000 0.561260 0.590140 -0.483883
O40   O     O_R   0.105780 0.999970 0.947820 -0.489676
O41   O     O_R   0.999970 0.894220 0.947820 -0.493485
O42   O     O_R   0.894220 0.000030 0.947820 -0.489672
O43   O     O_R   0.000030 0.105780 0.947820 -0.493490
O44   O     O_R   0.105780 0.000030 0.052180 -0.493488
O45   O     O_R   0.999970 0.105780 0.052180 -0.489669
O46   O     O_R   0.894220 0.999970 0.052180 -0.493482
O47   O     O_R   0.605810 0.938740 0.000020 -0.481589
O48   O     O_R   0.000030 0.894220 0.052180 -0.489673
O49   O     O_R   0.605780 0.499970 0.447820 -0.489671
O50   O     O_R   0.499970 0.394220 0.447820 -0.493488
O51   O     O_R   0.394220 0.500030 0.447820 -0.489676
O52   O     O_R   0.500030 0.605780 0.447820 -0.493485
O53   O     O_R   0.605780 0.500030 0.552180 -0.493486
O54   O     O_R   0.499970 0.605780 0.552180 -0.489673
O55   O     O_R   0.394220 0.499970 0.552180 -0.493483
O56   O     O_R   0.500030 0.394220 0.552180 -0.489668
O57   O     O_2   0.742053 0.280632 0.810949 -0.191555
O58   O     O_R   0.938740 0.605810 0.999980 -0.481589
O59   O     O_2   0.851639 0.205353 0.800018 -0.221714
O60   O     O_3   0.837411 0.284765 0.897723 -0.457554
O61   O     O_2   0.282528 0.227469 0.851534 -0.218700
O62   O     O_2   0.209429 0.184061 0.764665 -0.194616
O63   O     O_3   0.224658 0.098957 0.857936 -0.463041
O64   O     O_2   0.257947 0.719367 0.810949 -0.191555
O65   O     O_2   0.148361 0.794647 0.800019 -0.221714
O66   O     O_3   0.162589 0.715234 0.897723 -0.457551
O67   O     O_2   0.717469 0.772530 0.851537 -0.218716
O68   O     O_2   0.790570 0.815935 0.764668 -0.194598
O69   O     O_R   0.394190 0.938740 0.999980 -0.473986
O70   O     O_3   0.775341 0.901041 0.857937 -0.463040
O71   O     O_2   0.772530 0.717469 0.148464 -0.218716
O72   O     O_2   0.815936 0.790570 0.235333 -0.194598
O73   O     O_3   0.901041 0.775342 0.142063 -0.463040
O74   O     O_2   0.280631 0.742054 0.189051 -0.191545
O75   O     O_2   0.205353 0.851641 0.199982 -0.221721
O76   O     O_3   0.284764 0.837411 0.102277 -0.457553
O77   O     O_2   0.227469 0.282531 0.148463 -0.218715
O78   O     O_2   0.184065 0.209430 0.235332 -0.194598
O79   O     O_3   0.098959 0.224658 0.142063 -0.463039
O80   O     O_R   0.061260 0.394190 0.999980 -0.481588
O81   O     O_2   0.719365 0.257948 0.189051 -0.191566
O82   O     O_2   0.794646 0.148364 0.199981 -0.221702
O83   O     O_3   0.715233 0.162590 0.102277 -0.457557
O84   O     O_2   0.242052 0.780633 0.310949 -0.191555
O85   O     O_2   0.351637 0.705354 0.300018 -0.221714
O86   O     O_3   0.337411 0.784765 0.397723 -0.457552
O87   O     O_2   0.782531 0.727469 0.351536 -0.218716
O88   O     O_2   0.709430 0.684064 0.264667 -0.194598
O89   O     O_3   0.724658 0.598958 0.357937 -0.463039
O90   O     O_2   0.757946 0.219369 0.310949 -0.191557
O91   O     O_R   0.605810 0.061260 0.999980 -0.473985
O92   O     O_2   0.648360 0.294647 0.300019 -0.221711
O93   O     O_3   0.662589 0.215235 0.397723 -0.457554
O94   O     O_2   0.217470 0.272530 0.351535 -0.218705
O95   O     O_2   0.290570 0.315937 0.264667 -0.194611
O96   O     O_3   0.275341 0.401041 0.357937 -0.463039
O97   O     O_2   0.272531 0.217468 0.648462 -0.218722
O98   O     O_2   0.315933 0.290569 0.735332 -0.194590
O99   O     O_3   0.401041 0.275342 0.642064 -0.463037
O100  O     O_2   0.780633 0.242053 0.689051 -0.191556
O101  O     O_2   0.705353 0.351639 0.699981 -0.221712
O102  O     O_R   0.438740 0.894190 0.500020 -0.473985
O103  O     O_3   0.784765 0.337411 0.602277 -0.457552
O104  O     O_2   0.727469 0.782530 0.648464 -0.218713
O105  O     O_2   0.684063 0.709430 0.735333 -0.194602
O106  O     O_3   0.598958 0.724658 0.642063 -0.463040
O107  O     O_2   0.219367 0.757947 0.689051 -0.191556
O108  O     O_2   0.294647 0.648361 0.699982 -0.221712
O109  O     O_3   0.215235 0.662589 0.602277 -0.457553
O110  O     O_3   0.047031 0.643353 0.863233 -0.616207
O111  O     O_3   0.642765 0.952545 0.863899 -0.614478
O112  O     O_3   0.952969 0.356647 0.863233 -0.616206
S1    S     S_3+6 0.822828 0.277564 0.821660 0.128375
S2    S     S_3+6 0.763779 0.662309 0.312877 0.129068
S3    S     S_3+6 0.677171 0.222436 0.321660 0.128376
S4    S     S_3+6 0.236221 0.337691 0.312877 0.129066
S5    S     S_3+6 0.337690 0.236220 0.687122 0.129070
S6    S     S_3+6 0.777564 0.322828 0.678339 0.128376
S7    S     S_3+6 0.662309 0.763779 0.687123 0.129067
S8    S     S_3+6 0.222436 0.677172 0.678340 0.128377
S9    S     S_3+6 0.263778 0.162308 0.812876 0.129066
S10   S     S_3+6 0.177172 0.722436 0.821661 0.128377
S11   S     S_3+6 0.736220 0.837690 0.812878 0.129068
S12   S     S_3+6 0.837690 0.736220 0.187123 0.129068
S13   S     S_3+6 0.277563 0.822829 0.178340 0.128378
S14   S     S_3+6 0.162310 0.263780 0.187122 0.129069
S15   S     S_3+6 0.722434 0.177173 0.178339 0.128375
S16   S     S_3+6 0.322827 0.777565 0.321660 0.128376

loop_
_geom_bond_atom_site_label_1
_geom_bond_atom_site_label_2
_ccdc_geom_bond_type
C47   S16   S    
C58   O49   A    
C39   C51   A    
C53   O40   A    
C10   O23   A    
O82   S15   D    
Cu9   O32   S    
O79   S14   S    
H13   O3    S    
C3    C23   S    
C34   O91   A    
C8    C96   T    
H14   O4    S    
C2    C12   S    
Cu7   O69   S    
Cu8   Cu10  S    
C72   C85   A    
C31   C49   A    
C33   C65   A    
C45   O20   A    
Cu4   O53   S    
C40   C46   A    
O66   S10   S    
C23   O58   A    
C28   C46   A    
O71   S12   D    
O68   S11   D    
C50   S8    S    
Cu12  O41   S    
C63   C81   A    
C67   O13   A    
C52   S6    S    
C30   C48   A    
O75   S13   D    
C12   O69   A    
C43   S13   S    
C56   O19   A    
H10   O111  S    
Cu3   O51   S    
Cu3   O52   S    
Cu10  O20   S    
C20   O112  S    
C38   C52   A    
O65   S10   D    
Cu6   O36   S    
O104  S7    D    
C26   C73   A    
Cu2   Cu12  S    
C18   O110  S    
Cu12  O40   S    
O98   S5    D    
C3    C91   T    
C25   C74   A    
C59   O50   A    
C55   O46   A    
C46   S4    S    
C2    C90   T    
H30   O79   S    
Cu2   O48   S    
O106  S7    S    
C19   C37   A    
H3    O93   S    
C29   O10   S    
O108  S8    D    
C27   C44   A    
Cu10  O33   S    
C66   C72   A    
H15   O5    S    
C15   O34   A    
C27   O8    S    
C6    C94   T    
C21   C39   A    
C61   O52   A    
H24   O14   S    
Cu1   O22   S    
C35   C64   A    
C27   C68   A    
O64   S10   D    
Cu8   O35   S    
C43   C47   A    
C73   C84   A    
O83   S15   S    
Cu1   Cu6   S    
O74   S13   D    
Cu6   O80   S    
O60   S1    S    
C20   C38   A    
H7    O106  S    
C56   O2    A    
C17   O39   A    
Cu6   O29   S    
C21   C77   A    
H6    O103  S    
C51   S5    S    
O57   S1    D    
C28   O9    S    
Cu5   Cu7   S    
C54   O48   A    
C79   C87   A    
Cu11  O37   S    
C8    C78   S    
C24   C41   A    
C64   C80   A    
C62   C76   A    
C9    O22   A    
O92   S3    D    
C59   C95   S    
C14   C83   S    
Cu9   O39   S    
C22   C72   A    
Cu11  O17   S    
C16   O38   A    
C26   C43   A    
O89   S2    S    
O87   S2    D    
Cu4   O56   S    
C4    C34   S    
C65   C77   A    
O101  S6    D    
O73   S12   S    
C11   O27   A    
C31   C63   A    
Cu5   O23   S    
H26   O16   S    
C35   O16   S    
C21   O3    S    
C42   S12   S    
O90   S3    D    
C39   S9    S    
C53   O44   A    
Cu8   O18   S    
Cu9   O2    S    
Cu3   O49   S    
H18   O8    S    
O59   S1    D    
C13   O28   A    
C23   O36   A    
C29   C70   A    
H4    O96   S    
H16   O6    S    
C17   C80   S    
C64   C79   A    
O103  S6    S    
C36   S10   S    
C67   O18   A    
C71   C84   A    
C9    O24   A    
C28   C66   A    
C37   S11   S    
H21   O11   S    
O84   S16   D    
C55   C92   S    
O81   S15   D    
H2    O89   S    
Cu9   Cu11  S    
C66   C82   A    
C37   C49   A    
C78   O17   A    
C65   C81   A    
Cu3   Cu4   S    
C13   C84   S    
H5    O99   S    
C62   C80   A    
C10   O26   A    
Cu10  O13   S    
C22   C40   A    
Cu11  O19   S    
C38   S1    S    
C70   C73   A    
C33   O15   S    
C54   O41   A    
Cu7   O47   S    
C69   C74   A    
Cu5   O91   S    
C42   C48   A    
O96   S4    S    
Cu5   O25   S    
C70   C83   A    
C76   C87   A    
Cu1   O1    S    
C25   O6    S    
Cu7   O26   S    
Cu8   O31   S    
C32   O14   S    
C60   C96   S    
C16   O35   A    
H20   O10   S    
C13   O30   A    
C29   C47   A    
C77   C86   A    
C11   O29   A    
O86   S16   S    
H29   O76   S    
H17   O7    S    
C34   O47   A    
C41   C44   A    
Cu9   O21   S    
C41   S15   S    
C33   C51   A    
O109  S8    S    
C48   S2    S    
C20   C79   A    
O62   S9    D    
O94   S4    D    
C15   C82   S    
O88   S2    D    
C30   C69   A    
C36   C50   A    
H28   O73   S    
Cu4   O55   S    
H31   O83   S    
O70   S11   S    
O107  S8    D    
C35   C52   A    
O72   S12   D    
C1    C89   S    
O85   S16   D    
Cu12  O43   S    
H25   O15   S    
C68   C83   A    
C57   O45   A    
Cu1   O58   S    
O99   S5    S    
C32   C50   A    
C6    C56   S    
C14   O31   A    
H1    O60   S    
C12   O25   A    
C25   C42   A    
O95   S4    D    
Cu3   O50   S    
C5    C93   T    
H9    O110  S    
O63   S9    S    
C44   S3    S    
Cu5   O30   S    
Cu11  O34   S    
Cu4   O54   S    
C59   O56   A    
C14   O33   A    
O97   S5    D    
C7    C95   T    
C58   O53   A    
H32   O86   S    
Cu2   O45   S    
C57   C88   S    
Cu12  O42   S    
O61   S9    D    
C19   C75   A    
C58   C94   S    
C19   O111  S    
C32   C62   A    
C54   C91   S    
Cu2   O46   S    
Cu1   O27   S    
H11   O112  S    
H19   O9    S    
H22   O12   S    
C31   O12   S    
C49   S7    S    
C57   O43   A    
C10   C86   S    
C30   O11   S    
C63   C75   A    
O67   S11   D    
C11   C85   S    
C68   C71   A    
Cu8   O102  S    
C45   O102  A    
C16   C81   S    
O78   S14   D    
C55   O42   A    
C15   O32   A    
C69   C82   A    
C1    O80   A    
C61   C93   S    
C74   C85   A    
Cu2   O44   S    
C26   O7    S    
O105  S7    D    
O76   S13   S    
C1    O1    A    
C24   O5    S    
O93   S3    S    
C7    C67   S    
C5    C45   S    
C60   O51   A    
Cu7   O28   S    
H27   O70   S    
C88   C89   T    
C24   C71   A    
C78   O21   A    
Cu6   O24   S    
O77   S14   D    
H8    O109  S    
C22   O4    S    
C53   C90   S    
H12   O63   S    
C75   C86   A    
C17   O37   A    
O100  S6    D    
H23   O66   S    
C18   C36   A    
C61   O54   A    
Cu10  O38   S    
C9    C87   S    
C60   O55   A    
C18   C76   A    
C4    C92   T    
C40   S14   S    
