data_mof_unit_57494.cif
_audit_creation_date              2012-12-10T18:53:40-0500
_audit_creation_method            fapswitch 2.2
_symmetry_space_group_name_H-M    P1
_symmetry_Int_Tables_number       1
_space_group_crystal_system       triclinic
_cell_length_a                    10.724213
_cell_length_b                    9.813032
_cell_length_c                    19.294965
_cell_angle_alpha                 90.010402
_cell_angle_beta                  90.103539
_cell_angle_gamma                 90.012318
_cell_volume                      2030.54171061

loop_
_atom_site_label
_atom_site_type_symbol
_atom_type_description
_atom_site_fract_x
_atom_site_fract_y
_atom_site_fract_z
_atom_type_partial_charge
C1    C     C_R   0.259773 0.499988 0.499808 0.951390
C2    C     C_R   0.740230 0.500020 0.499894 0.940345
C3    C     C_R   0.501710 0.494367 0.930411 0.350213
C4    C     C_R   0.500844 0.494427 0.069727 0.345028
C5    C     C_R   0.500219 0.499882 0.365386 0.999838
C6    C     C_R   0.499838 0.499900 0.634647 1.021987
C7    C     C_R   0.063775 0.375882 0.495938 -0.181546
C8    C     C_R   0.936244 0.624226 0.501574 -0.181895
C9    C     C_R   0.936129 0.375863 0.496273 -0.112571
C10   C     C_R   0.063863 0.624170 0.502050 -0.167965
C11   C     C_R   0.872651 0.500040 0.499266 0.005350
C12   C     C_R   0.127353 0.499998 0.499275 0.021714
C13   C     C_R   0.601742 0.072041 0.522760 0.022618
C14   C     C_R   0.398060 0.928020 0.477537 0.015183
C15   C     C_R   0.398253 0.071975 0.477249 0.000106
C16   C     C_R   0.601931 0.928087 0.522473 0.014610
C17   C     C_R   0.428242 0.595334 0.251754 0.424508
C18   C     C_R   0.429659 0.398985 0.747278 0.407827
C19   C     C_R   0.570874 0.596974 0.748236 0.414370
C20   C     C_R   0.573066 0.400624 0.253020 0.329781
C21   C     C_R   0.431877 0.593694 0.179759 -0.193824
C22   C     C_R   0.434925 0.396472 0.819300 -0.190725
C23   C     C_R   0.567862 0.595192 0.820237 -0.190491
C24   C     C_R   0.568654 0.398103 0.180994 -0.181309
C25   C     C_R   0.500098 0.494969 0.144737 -0.070759
C26   C     C_R   0.501919 0.494871 0.855399 -0.077167
C27   C     C_R   0.500739 0.498984 0.289486 -0.332630
C28   C     C_R   0.499815 0.499032 0.710607 -0.334009
H1    H     H_    0.112179 0.279115 0.493404 0.151599
H2    H     H_    0.887888 0.721072 0.503491 0.153069
H3    H     H_    0.887647 0.279073 0.494022 0.171896
H4    H     H_    0.112313 0.720952 0.504546 0.152015
H5    H     H_    0.378509 0.667545 0.150389 0.210992
H6    H     H_    0.383036 0.320315 0.847865 0.211571
H7    H     H_    0.620041 0.670231 0.849518 0.211898
H8    H     H_    0.622373 0.323237 0.152594 0.210135
H9    H     H_    0.682917 0.126505 0.541220 0.126282
H10   H     H_    0.316592 0.873609 0.459470 0.141111
H11   H     H_    0.317080 0.126386 0.458793 0.127422
H12   H     H_    0.683376 0.873731 0.540567 0.140115
N1    N     N_R   0.500000 0.857200 0.500000 -0.092120
N2    N     N_R   0.500000 0.142800 0.500000 -0.080569
N3    N     N_R   0.502679 0.375059 0.034456 -0.137813
N4    N     N_R   0.500559 0.613644 0.965712 -0.138399
N5    N     N_R   0.502445 0.375022 0.965689 -0.138025
N6    N     N_R   0.499527 0.613665 0.034418 -0.139627
O1    O     O_R   0.316770 0.614620 0.500000 -0.635687
O2    O     O_R   0.683230 0.385380 0.500000 -0.617407
O3    O     O_R   0.683230 0.614620 0.500000 -0.639234
O4    O     O_R   0.316770 0.385380 0.500000 -0.636457
O5    O     O_R   0.499990 0.614700 0.398140 -0.563887
O6    O     O_R   0.500010 0.385300 0.601860 -0.568427
O7    O     O_R   0.500010 0.614700 0.601860 -0.558615
O8    O     O_R   0.499990 0.385300 0.398140 -0.557952
Zn1   Zn    Zn3+2 0.500000 0.653120 0.500000 1.055066
Zn2   Zn    Zn3+2 0.500000 0.346880 0.500000 1.069653
S1    S     S_3+6 0.327715 0.716488 0.291040 0.044654
O9    O     O_2   0.404679 0.829780 0.321397 -0.269614
O10   O     O_2   0.239537 0.775457 0.238299 -0.267789
O11   O     O_3   0.244018 0.641336 0.353810 -0.582210
H13   H     H_    0.186886 0.713262 0.370712 0.371580
S2    S     S_3+6 0.328210 0.279830 0.706667 0.057603
O12   O     O_2   0.403927 0.169143 0.673129 -0.256024
O13   O     O_2   0.242327 0.216514 0.759103 -0.264119
O14   O     O_3   0.241795 0.359392 0.646325 -0.573638
H14   H     H_    0.185960 0.287886 0.627604 0.377951
S3    S     S_3+6 0.669088 0.720338 0.708883 0.046632
O15   O     O_2   0.590082 0.831923 0.678558 -0.265184
O16   O     O_2   0.756269 0.781294 0.761583 -0.267369
O17   O     O_3   0.754021 0.646961 0.646079 -0.581228
H15   H     H_    0.813098 0.718571 0.631021 0.372651
S4    S     S_3+6 0.676557 0.284101 0.293995 0.066671
O18   O     O_2   0.602666 0.171726 0.327302 -0.217540
O19   O     O_2   0.764390 0.221966 0.242203 -0.259494
O20   O     O_3   0.760685 0.364723 0.354968 -0.560664
H16   H     H_    0.804770 0.438565 0.329933 0.348547

loop_
_geom_bond_atom_site_label_1
_geom_bond_atom_site_label_2
_ccdc_geom_bond_type
C7    H1    S    
C4    C25   S    
C4    N6    A    
C24   H8    S    
S1    O10   D    
C21   H5    S    
O2    Zn2   S    
C23   C26   A    
N1    Zn1   S    
S2    O13   D    
N2    Zn2   S    
C5    C27   S    
C20   S4    S    
C6    C28   S    
C20   C24   A    
C19   S3    S    
O17   H15   S    
C1    O4    A    
C13   H9    S    
C1    C12   S    
S4    O20   S    
C2    C11   S    
C13   N2    A    
N4    N6    A    
O7    Zn1   S    
C7    C12   A    
C22   H6    S    
O8    Zn2   S    
C3    N4    A    
S3    O15   D    
C17   C27   A    
C5    O8    A    
C18   C28   A    
C24   C25   A    
S4    O19   D    
C1    O1    A    
S1    O11   S    
C2    O2    A    
O3    Zn1   S    
C3    N5    A    
O4    Zn2   S    
O11   H13   S    
S3    O16   D    
C19   C23   A    
O20   H16   S    
S2    O12   D    
C2    O3    A    
C14   H10   S    
C9    C11   A    
C19   C28   A    
N3    N5    A    
C15   H11   S    
C10   C12   A    
C16   H12   S    
C14   N1    A    
C4    N3    A    
C23   H7    S    
C6    O7    A    
O1    Zn1   S    
C7    C9    A    
C21   C25   A    
S2    O14   S    
C18   C22   A    
C3    C26   S    
C18   S2    S    
C15   N2    A    
S4    O18   D    
C20   C27   A    
S3    O17   S    
C8    H2    S    
S1    O9    D    
C8    C11   A    
O5    Zn1   S    
C17   C21   A    
C9    H3    S    
C10   H4    S    
C8    C10   A    
O14   H14   S    
C22   C26   A    
C13   C16   A    
C14   C15   A    
C5    O5    A    
C6    O6    A    
C16   N1    A    
O6    Zn2   S    
C17   S1    S    
