data_mof_unit_35736.cif
_audit_creation_date              2012-12-11T15:17:37-0500
_audit_creation_method            fapswitch 2.2
_symmetry_space_group_name_H-M    P1
_symmetry_Int_Tables_number       1
_space_group_crystal_system       triclinic
_cell_length_a                    15.665393
_cell_length_b                    15.665498
_cell_length_c                    34.462102
_cell_angle_alpha                 89.861464
_cell_angle_beta                  89.859439
_cell_angle_gamma                 119.483467
_cell_volume                      7361.89881128

loop_
_atom_site_label
_atom_site_type_symbol
_atom_type_description
_atom_site_fract_x
_atom_site_fract_y
_atom_site_fract_z
_atom_type_partial_charge
C1    C     C_R   0.577447 0.441987 0.554577 0.585124
C2    C     C_R   0.558095 0.135562 0.554718 0.589741
C3    C     C_R   0.864374 0.422140 0.554651 0.596833
C4    C     C_R   0.441984 0.577461 0.054583 0.582679
C5    C     C_R   0.135582 0.558102 0.054727 0.587065
C6    C     C_R   0.422124 0.864356 0.054659 0.595520
C7    C     C_R   0.996561 0.509825 0.710782 0.373237
C8    C     C_R   0.487424 0.489335 0.710160 0.372185
C9    C     C_R   0.477734 0.925889 0.699819 0.373367
C10   C     C_R   0.510184 0.997056 0.210725 0.374429
C11   C     C_R   0.489510 0.487039 0.210093 0.373154
C12   C     C_R   0.925823 0.477821 0.199813 0.374113
C13   C     C_R   0.017772 0.439588 0.851751 -0.104913
C14   C     C_R   0.560374 0.582455 0.850544 -0.110429
C15   C     C_R   0.343459 0.836090 0.835418 -0.104556
C16   C     C_R   0.439769 0.018072 0.351690 -0.106880
C17   C     C_R   0.582654 0.560150 0.350469 -0.111911
C18   C     C_R   0.836063 0.343493 0.335405 -0.105698
C19   C     C_R   0.046928 0.449513 0.890308 -0.108669
C20   C     C_R   0.550718 0.600851 0.889275 -0.119097
C21   C     C_R   0.332720 0.825474 0.875579 -0.121368
C22   C     C_R   0.449612 0.047098 0.390262 -0.111250
C23   C     C_R   0.600974 0.550593 0.389218 -0.120928
C24   C     C_R   0.825476 0.332746 0.375568 -0.122247
C25   C     C_R   0.074244 0.615808 0.890535 -0.128848
C26   C     C_R   0.386778 0.460348 0.890659 -0.118927
C27   C     C_R   0.487835 0.827218 0.879956 -0.122198
C28   C     C_R   0.615886 0.074350 0.390522 -0.130831
C29   C     C_R   0.460409 0.386694 0.390636 -0.121047
C30   C     C_R   0.827163 0.487829 0.379961 -0.123666
C31   C     C_R   0.045314 0.606008 0.851839 -0.112505
C32   C     C_R   0.396540 0.441769 0.851869 -0.105956
C33   C     C_R   0.499107 0.838820 0.839737 -0.106839
C34   C     C_R   0.606167 0.045551 0.351810 -0.113848
C35   C     C_R   0.441905 0.396359 0.351829 -0.107581
C36   C     C_R   0.838739 0.499111 0.339741 -0.108222
C37   C     C_R   0.021321 0.519329 0.831641 0.036203
C38   C     C_R   0.481639 0.505570 0.831031 0.035886
C39   C     C_R   0.427614 0.844724 0.817119 0.037917
C40   C     C_R   0.519544 0.021658 0.331591 0.036698
C41   C     C_R   0.505772 0.481385 0.330968 0.036352
C42   C     C_R   0.844656 0.427639 0.317113 0.038159
C43   C     C_R   0.080162 0.539348 0.909363 0.030416
C44   C     C_R   0.462032 0.542891 0.909033 0.028048
C45   C     C_R   0.405581 0.822818 0.898337 0.017270
C46   C     C_R   0.539399 0.080240 0.409343 0.030076
C47   C     C_R   0.542944 0.461972 0.409007 0.027854
C48   C     C_R   0.822804 0.405587 0.398335 0.017526
C49   C     C_R   0.578214 0.442431 0.445523 0.549802
C50   C     C_R   0.558022 0.135521 0.445592 0.558644
C51   C     C_R   0.809342 0.392043 0.440719 0.553564
C52   C     C_R   0.442436 0.578211 0.945526 0.549825
C53   C     C_R   0.135517 0.558017 0.945594 0.558589
C54   C     C_R   0.392043 0.809343 0.940720 0.552044
C55   C     C_R   0.920955 0.458630 0.590910 -0.059567
C56   C     C_R   0.539395 0.462145 0.590583 -0.057159
C57   C     C_R   0.534449 0.070575 0.589000 -0.057635
C58   C     C_R   0.458615 0.920969 0.090914 -0.051227
C59   C     C_R   0.462158 0.539406 0.090585 -0.050570
C60   C     C_R   0.070666 0.534479 0.089032 -0.050029
C61   C     C_R   0.971536 0.414676 0.608601 0.236334
C62   C     C_R   0.580159 0.556604 0.607424 0.239446
C63   C     C_R   0.437254 0.000435 0.599809 0.240971
C64   C     C_R   0.414741 0.971675 0.108581 0.211449
C65   C     C_R   0.556675 0.580001 0.107379 0.215092
C66   C     C_R   0.000272 0.437310 0.099782 0.215652
C67   C     C_R   0.000116 0.436107 0.647403 -0.128206
C68   C     C_R   0.558168 0.564686 0.646145 -0.126380
C69   C     C_R   0.420694 0.951622 0.635526 -0.126708
C70   C     C_R   0.436443 0.000544 0.147349 -0.142576
C71   C     C_R   0.564785 0.557747 0.146066 -0.140506
C72   C     C_R   0.951318 0.420816 0.135471 -0.140206
C73   C     C_R   0.982348 0.502456 0.668451 -0.013445
C74   C     C_R   0.494212 0.481423 0.667866 -0.012861
C75   C     C_R   0.498636 0.968894 0.660294 -0.010275
C76   C     C_R   0.502765 0.982746 0.168399 -0.003382
C77   C     C_R   0.481517 0.493896 0.167808 -0.002892
C78   C     C_R   0.968889 0.498744 0.160297 0.000674
C79   C     C_R   0.943363 0.554558 0.649258 0.396511
C80   C     C_R   0.444583 0.390122 0.649404 0.394754
C81   C     C_R   0.595189 0.033040 0.647981 0.400123
C82   C     C_R   0.554704 0.943557 0.149229 0.391097
C83   C     C_R   0.390147 0.444525 0.149391 0.395542
C84   C     C_R   0.033394 0.595265 0.148063 0.400905
C85   C     C_R   0.913129 0.532641 0.610983 -0.119388
C86   C     C_R   0.467226 0.380952 0.611244 -0.120558
C87   C     C_R   0.612400 0.083138 0.612863 -0.120302
C88   C     C_R   0.532643 0.913155 0.110979 -0.112165
C89   C     C_R   0.380943 0.467312 0.111261 -0.110932
C90   C     C_R   0.083510 0.612438 0.112952 -0.110804
C91   C     C_R   0.008752 0.514634 0.789277 0.333385
C92   C     C_R   0.485191 0.497740 0.788652 0.333004
C93   C     C_R   0.443306 0.866279 0.775130 0.334416
C94   C     C_R   0.514926 0.009197 0.289222 0.334546
C95   C     C_R   0.497973 0.484853 0.288584 0.334078
C96   C     C_R   0.866196 0.443354 0.275122 0.335629
Cr1   Cr    Cr6+3 0.522350 0.263930 0.500020 1.088841
Cr2   Cr    Cr6+3 0.736070 0.258420 0.500020 1.094517
Cr3   Cr    Cr6+3 0.741580 0.477650 0.500020 1.094635
Cr4   Cr    Cr6+3 0.263930 0.522350 0.000020 1.096616
Cr5   Cr    Cr6+3 0.258420 0.736070 0.000020 1.103298
Cr6   Cr    Cr6+3 0.477650 0.741580 0.000020 1.104181
H1    H     H_    0.877172 0.569590 0.597985 0.200058
H2    H     H_    0.432566 0.308075 0.598847 0.192783
H3    H     H_    0.687476 0.135420 0.605117 0.193323
H4    H     H_    0.569504 0.877090 0.097997 0.199863
H5    H     H_    0.308032 0.432816 0.098899 0.193341
H6    H     H_    0.136021 0.687478 0.105255 0.191405
H7    H     H_    0.049418 0.388861 0.904370 0.156452
H8    H     H_    0.610351 0.664377 0.902918 0.151896
H9    H     H_    0.267475 0.819927 0.888860 0.133030
H10   H     H_    0.388942 0.049571 0.404317 0.152832
H11   H     H_    0.664499 0.610241 0.402855 0.148760
H12   H     H_    0.819962 0.267510 0.388843 0.131532
H13   H     H_    0.033903 0.398605 0.661655 0.209702
H14   H     H_    0.593533 0.636046 0.659812 0.209892
H15   H     H_    0.346198 0.900647 0.644348 0.209406
H16   H     H_    0.399215 0.034574 0.161607 0.177225
H17   H     H_    0.636123 0.592777 0.159725 0.177235
H18   H     H_    0.899967 0.346426 0.144248 0.177970
H19   H     H_    0.997488 0.371063 0.837193 0.157019
H20   H     H_    0.627683 0.631658 0.835427 0.155052
H21   H     H_    0.286727 0.839853 0.818866 0.153685
H22   H     H_    0.371282 0.997857 0.337114 0.154273
H23   H     H_    0.631905 0.627408 0.335332 0.152565
H24   H     H_    0.839839 0.286779 0.318846 0.151800
H25   H     H_    0.098232 0.685409 0.904813 0.133159
H26   H     H_    0.317833 0.414101 0.905357 0.144041
H27   H     H_    0.543872 0.822502 0.896644 0.144081
H28   H     H_    0.685451 0.098270 0.404818 0.130466
H29   H     H_    0.414112 0.317795 0.405356 0.141347
H30   H     H_    0.822434 0.543852 0.396655 0.142115
H31   H     H_    0.047336 0.668257 0.837233 0.149959
H32   H     H_    0.335146 0.381055 0.837691 0.154897
H33   H     H_    0.564237 0.844083 0.826437 0.152220
H34   H     H_    0.668438 0.047595 0.337212 0.147729
H35   H     H_    0.381191 0.334947 0.337658 0.152577
H36   H     H_    0.843971 0.564233 0.326447 0.150024
N1    N     N_R   0.004667 0.438456 0.769116 -0.206651
N2    N     N_R   0.558656 0.570495 0.767819 -0.208180
N3    N     N_R   0.370720 0.863385 0.752768 -0.205285
N4    N     N_R   0.438818 0.005232 0.269051 -0.210597
N5    N     N_R   0.570781 0.558231 0.267739 -0.211807
N6    N     N_R   0.863220 0.370756 0.252742 -0.208490
N7    N     N_R   0.998388 0.435946 0.730667 -0.208595
N8    N     N_R   0.559935 0.566210 0.729351 -0.206936
N9    N     N_R   0.387542 0.892426 0.715883 -0.209932
N10   N     N_R   0.436340 0.998976 0.230602 -0.215392
N11   N     N_R   0.566468 0.559488 0.229272 -0.213608
N12   N     N_R   0.892268 0.387597 0.215858 -0.216336
N13   N     N_R   0.000998 0.586270 0.730914 -0.091577
N14   N     N_R   0.413611 0.416812 0.730977 -0.092468
N15   N     N_R   0.549679 0.926532 0.721930 -0.089982
N16   N     N_R   0.586571 0.001392 0.230866 -0.097105
N17   N     N_R   0.416948 0.413296 0.230923 -0.097255
N18   N     N_R   0.926542 0.549780 0.221941 -0.096907
N19   N     N_R   0.007570 0.588944 0.769415 -0.206505
N20   N     N_R   0.412175 0.421191 0.769480 -0.205004
N21   N     N_R   0.532817 0.897230 0.758813 -0.200803
N22   N     N_R   0.589214 0.007942 0.269369 -0.209335
N23   N     N_R   0.421354 0.411882 0.269426 -0.207931
N24   N     N_R   0.897229 0.532897 0.258823 -0.204602
O1    O     O_R   0.498680 0.159540 0.541860 -0.430486
O2    O     O_R   0.840460 0.339140 0.541860 -0.426190
O3    O     O_R   0.660860 0.501320 0.541860 -0.429527
O4    O     O_R   0.159540 0.498680 0.041860 -0.432388
O5    O     O_R   0.339140 0.840460 0.041860 -0.427993
O6    O     O_R   0.501320 0.660860 0.041860 -0.431076
O7    O     O_R   0.532760 0.358060 0.540030 -0.515958
O8    O     O_R   0.641940 0.174700 0.540030 -0.510434
O9    O     O_R   0.825300 0.467240 0.540030 -0.510467
O10   O     O_R   0.358060 0.532760 0.040030 -0.514194
O11   O     O_R   0.174700 0.641940 0.040030 -0.508020
O12   O     O_R   0.467240 0.825300 0.040030 -0.508124
O13   O     O_R   0.498590 0.161190 0.456930 -0.501371
O14   O     O_R   0.838810 0.337400 0.456930 -0.484097
O15   O     O_R   0.662600 0.501410 0.456930 -0.520378
O16   O     O_R   0.161190 0.498590 0.956930 -0.500498
O17   O     O_R   0.337400 0.838810 0.956930 -0.481297
O18   O     O_R   0.501410 0.662600 0.956930 -0.519461
O19   O     O_R   0.532680 0.359580 0.461300 -0.508369
O20   O     O_R   0.640420 0.173100 0.461300 -0.527938
O21   O     O_R   0.826900 0.467320 0.461300 -0.488336
O22   O     O_R   0.359580 0.532680 0.961300 -0.507281
O23   O     O_R   0.173100 0.640420 0.961300 -0.526900
O24   O     O_R   0.467320 0.826900 0.961300 -0.484811
O25   O     O_3   0.666667 0.333333 0.499990 -0.309975
O26   O     O_3   0.333333 0.666667 0.999990 -0.313700
S1    S     S_3+6 0.000379 0.332768 0.584090 0.065577
O27   O     O_2   0.911600 0.232197 0.583955 -0.241439
O28   O     O_2   0.031047 0.366985 0.543024 -0.238723
O29   O     O_3   0.092536 0.327493 0.606877 -0.492735
H37   H     H_    0.103161 0.279694 0.591835 0.389332
S2    S     S_3+6 0.658534 0.666109 0.581904 0.064252
O30   O     O_2   0.761106 0.681454 0.582049 -0.236124
O31   O     O_2   0.624104 0.659170 0.540754 -0.252791
O32   O     O_3   0.658408 0.762201 0.603544 -0.493235
H38   H     H_    0.704381 0.820060 0.587976 0.388892
S3    S     S_3+6 0.334605 0.969484 0.569709 0.061967
O33   O     O_2   0.306607 0.048281 0.572609 -0.233018
O34   O     O_2   0.359707 0.960818 0.528296 -0.257226
O35   O     O_3   0.238955 0.862019 0.583983 -0.498668
H39   H     H_    0.184811 0.851273 0.566309 0.385215
S4    S     S_3+6 0.332763 0.000401 0.084009 0.081499
O36   O     O_2   0.367194 0.031389 0.042999 -0.192338
O37   O     O_2   0.232266 0.911462 0.083353 -0.251124
O38   O     O_3   0.326726 0.092598 0.106477 -0.469882
H40   H     H_    0.273871 0.060547 0.126100 0.367585
S5    S     S_3+6 0.666120 0.658317 0.081763 0.079357
O39   O     O_2   0.659122 0.623659 0.040659 -0.207060
O40   O     O_2   0.681385 0.760897 0.081415 -0.248138
O41   O     O_3   0.762970 0.658736 0.103019 -0.471315
H41   H     H_    0.786475 0.711689 0.122580 0.368589
S6    S     S_3+6 0.969135 0.334768 0.069556 0.077845
O42   O     O_2   0.960113 0.360017 0.028216 -0.212100
O43   O     O_2   0.048133 0.306882 0.071855 -0.242149
O44   O     O_3   0.861588 0.238532 0.083483 -0.475111
H42   H     H_    0.878602 0.204142 0.103581 0.365669
F1    F     F_    0.926842 0.621082 0.668110 -0.560129
F2    F     F_    0.380125 0.307843 0.668885 -0.564269
F3    F     F_    0.673256 0.052092 0.670667 -0.561572
F4    F     F_    0.621217 0.927023 0.168082 -0.571470
F5    F     F_    0.307857 0.380175 0.168895 -0.569799
F6    F     F_    0.052746 0.673313 0.170814 -0.570356

loop_
_geom_bond_atom_site_label_1
_geom_bond_atom_site_label_2
_ccdc_geom_bond_type
C25   C31   A    
S2    O31   D    
C24   H12   S    
C18   H24   S    
Cr1   O13   S    
C53   O23   A    
Cr4   O10   S    
Cr6   O18   S    
C6    C58   S    
C36   C42   A    
C79   C85   A    
Cr2   O8    S    
C31   H31   S    
Cr4   O16   S    
C53   O16   A    
C25   C43   A    
Cr3   O25   S    
C2    C57   S    
C26   C44   A    
C47   C49   S    
C29   H29   S    
Cr3   O9    S    
C27   C33   A    
C7    N7    A    
C26   C32   A    
C28   C46   A    
C17   C23   A    
C15   H21   S    
C29   C47   A    
C18   C24   A    
N13   N19   A    
C30   C48   A    
C8    N14   A    
C1    C56   S    
Cr3   O15   S    
C51   O21   A    
C18   C42   A    
S6    O43   D    
C55   C85   A    
S2    O32   S    
C96   N6    A    
C77   C83   A    
C68   C74   A    
C38   C92   S    
S5    O41   S    
Cr2   O14   S    
C54   O17   A    
Cr4   O4    S    
C59   C89   A    
C69   H15   S    
Cr5   O5    S    
C49   O15   A    
C67   H13   S    
C39   C93   S    
C92   N20   A    
C72   C78   A    
C11   C77   S    
C21   H9    S    
C96   N24   A    
C33   C39   A    
C10   C76   S    
C43   C53   S    
C48   C51   S    
C66   C72   A    
C63   C69   A    
C19   C43   A    
Cr1   O1    S    
C12   C78   S    
S3    O35   S    
C80   C86   A    
C67   C73   A    
C32   C38   A    
Cr5   O26   S    
C13   C37   A    
C85   H1    S    
C11   N17   A    
C83   F5    S    
C27   C45   A    
S2    O30   D    
C64   S4    S    
C60   C66   A    
S3    O33   D    
C94   N22   A    
C74   C80   A    
C61   S1    S    
S4    O36   D    
C89   H5    S    
C50   O20   A    
C84   C90   A    
C12   N18   A    
Cr5   O23   S    
C20   C44   A    
C44   C52   S    
C11   N11   A    
C88   H4    S    
C57   C63   A    
C21   C45   A    
C19   H7    S    
C58   C64   A    
C83   C89   A    
N14   N20   A    
C17   C41   A    
C23   C47   A    
O35   H39   S    
C13   C19   A    
O38   H40   S    
C94   N4    A    
C14   C20   A    
C51   O14   A    
C61   C67   A    
C7    C73   S    
C84   F6    S    
N2    N8    A    
C37   C91   S    
S6    O42   D    
C75   C81   A    
C26   H26   S    
C6    O12   A    
O44   H42   S    
C65   C71   A    
N6    N12   A    
C9    N9    A    
C78   C84   A    
N17   N23   A    
C57   C87   A    
C16   C22   A    
C50   O13   A    
C24   C48   A    
C66   S6    S    
S1    O29   S    
C52   O18   A    
N16   N22   A    
Cr2   O25   S    
Cr5   O17   S    
C12   N12   A    
C14   C38   A    
C13   H19   S    
C33   H33   S    
C79   F1    S    
C87   H3    S    
S4    O38   S    
C34   H34   S    
C72   H18   S    
C2    O1    A    
C8    C74   S    
S5    O39   D    
C73   C79   A    
Cr6   O24   S    
C5    O4    A    
C56   C86   A    
C23   H11   S    
C20   H8    S    
N4    N10   A    
C15   C39   A    
C81   C87   A    
C35   C41   A    
C3    O2    A    
C16   C40   A    
C49   O19   A    
C22   C46   A    
C68   H14   S    
C45   C54   S    
C64   C70   A    
C71   H17   S    
C3    O9    A    
C70   C76   A    
C27   H27   S    
C56   C62   A    
C5    O11   A    
C62   S2    S    
C76   C82   A    
C92   N2    A    
C40   C94   S    
C71   C77   A    
N5    N11   A    
C93   N3    A    
N15   N21   A    
S1    O27   D    
Cr1   O25   S    
C46   C50   S    
C6    O5    A    
N1    N7    A    
Cr6   O6    S    
C4    O10   A    
C5    C60   S    
Cr4   O26   S    
C1    O3    A    
C4    O6    A    
C65   S5    S    
C8    N8    A    
C95   N5    A    
C52   O22   A    
S4    O37   D    
S6    O44   S    
C58   C88   A    
C86   H2    S    
C80   F2    S    
Cr2   O2    S    
Cr1   O19   S    
C82   F4    S    
C60   C90   A    
Cr2   O20   S    
Cr6   O12   S    
C81   F3    S    
C29   C35   A    
C3    C55   S    
C30   C36   A    
C42   C96   S    
O29   H37   S    
C95   N23   A    
C16   H22   S    
Cr1   O7    S    
C90   H6    S    
C2    O8    A    
C35   H35   S    
C32   H32   S    
C10   N16   A    
C17   H23   S    
C41   C95   S    
C70   H16   S    
C91   N1    A    
C55   C61   A    
C4    C59   S    
C1    O7    A    
S5    O40   D    
C63   S3    S    
C69   C75   A    
C28   H28   S    
C62   C68   A    
C28   C34   A    
C25   H25   S    
O32   H38   S    
Cr4   O22   S    
Cr6   O26   S    
C91   N19   A    
N3    N9    A    
C9    N15   A    
C30   H30   S    
C31   C37   A    
C15   C21   A    
C7    N13   A    
O41   H41   S    
C93   N21   A    
C54   O24   A    
S3    O34   D    
C14   H20   S    
C82   C88   A    
C34   C40   A    
Cr3   O21   S    
C9    C75   S    
S1    O28   D    
C36   H36   S    
N18   N24   A    
C59   C65   A    
C22   H10   S    
C10   N10   A    
Cr5   O11   S    
Cr3   O3    S    
