data_mof_unit_46225.cif
_audit_creation_date              2013-03-05T15:46:21-0500
_audit_creation_method            fapswitch 2.2
_symmetry_space_group_name_H-M    P1
_symmetry_Int_Tables_number       1
_space_group_crystal_system       triclinic
_cell_length_a                    10.20798
_cell_length_b                    10.68026
_cell_length_c                    10.704904
_cell_angle_alpha                 90.992418
_cell_angle_beta                  95.684625
_cell_angle_gamma                 80.27383
_cell_volume                      1144.65765745

loop_
_atom_site_label
_atom_site_type_symbol
_atom_site_description
_atom_site_fract_x
_atom_site_fract_y
_atom_site_fract_z
_atom_type_partial_charge
O1    O     O_R   0.568950 0.489660 0.307530 -0.602870
O2    O     O_R   0.348880 0.522640 0.340350 -0.545664
C1    C     C_R   0.443704 0.503059 0.266633 0.895768
O3    O     O_R   0.610060 0.300270 0.483590 -0.620416
O4    O     O_R   0.389990 0.333260 0.516410 -0.590664
C2    C     C_R   0.504656 0.259279 0.510216 0.866076
Zn1   Zn    Zn3+2 0.646940 0.477980 0.478090 1.087088
Zn2   Zn    Zn3+2 0.353060 0.522020 0.521910 1.060591
O5    O     O_R   0.651120 0.477360 0.659650 -0.572154
O6    O     O_R   0.431050 0.510340 0.692470 -0.624633
O7    O     O_R   0.610010 0.666740 0.483590 -0.585893
O8    O     O_R   0.389940 0.699730 0.516410 -0.604975
C3    C     C_R   0.556276 0.486677 0.732968 0.927612
C4    C     C_R   0.495700 0.739811 0.486969 0.873675
H1    H     H_    0.314588 0.141064 0.582172 0.222655
C5    C     C_R   0.755977 0.062854 0.493886 -0.204880
H2    H     H_    0.783585 0.140202 0.551515 0.212390
C6    C     C_R   0.856821 0.983692 0.436516 0.277322
C7    C     C_R   0.822985 0.884853 0.357360 0.216987
C8    C     C_R   0.692648 0.856160 0.352695 -0.145797
C9    C     C_R   0.600764 0.921736 0.432600 0.023534
C10   C     C_R   0.623709 0.038317 0.482083 0.036138
C11   C     C_R   0.512507 0.123636 0.519794 -0.121827
C12   C     C_R   0.396859 0.079424 0.544794 -0.109103
H3    H     H_    0.301592 0.919799 0.554418 0.221309
C13   C     C_R   0.387525 0.954230 0.524841 -0.094421
C14   C     C_R   0.490014 0.874124 0.471431 -0.112178
H4    H     H_    0.395087 0.422964 0.884852 0.198496
H5    H     H_    0.611121 0.405866 0.108617 0.238673
C15   C     C_2   0.411020 0.488253 0.132958 -0.207627
C16   C     C_2   0.510104 0.436211 0.065138 -0.151125
H6    H     H_    0.686475 0.472413 0.910570 0.213690
C17   C     C_2   0.588501 0.462444 0.865545 -0.285320
C18   C     C_2   0.492603 0.433868 0.930382 -0.180252
N1    N     N_2   0.157290 0.551390 0.551110 -0.220362
C19   C     C_2   0.077287 0.478007 0.499536 0.291722
N2    N     N_2   0.842740 0.448550 0.448960 -0.053676
C20   C     C_2   0.931576 0.498594 0.520835 0.267048
H7    H     H_    0.115637 0.629177 0.600540 0.203920
C21   C     C_1   0.275641 0.531687 0.077777 0.309086
N3    N     N_1   0.167594 0.566357 0.033918 -0.041472
N4    N     N_R   0.892991 0.562809 0.633233 0.191089
O9    O     O_R   0.939610 0.511679 0.741462 -0.373966
O10   O     O_R   0.840875 0.682628 0.628436 -0.374176
N5    N     N_R   0.129800 0.367790 0.430679 0.233122
O11   O     O_R   0.104982 0.257973 0.462301 -0.342077
O12   O     O_R   0.168110 0.380215 0.320063 -0.301766
N6    N     N_R   0.869539 0.417252 0.326302 0.300868
O13   O     O_R   0.831213 0.316300 0.275657 -0.327564
O14   O     O_R   0.899258 0.502650 0.253539 -0.323716
N7    N     N_R   0.991177 0.008365 0.455642 0.243754
O15   O     O_R   0.039094 0.040432 0.566525 -0.373614
O16   O     O_R   0.063176 0.006952 0.361709 -0.278631
N8    N     N_R   0.921859 0.809443 0.288333 0.242566
O17   O     O_R   0.033685 0.753108 0.346503 -0.352854
O18   O     O_R   0.899884 0.795278 0.167481 -0.311706
C22   C     C_1   0.648926 0.772201 0.255749 0.332591
N9    N     N_1   0.614385 0.706866 0.176304 -0.152390

loop_
_geom_bond_atom_site_label_1
_geom_bond_atom_site_label_2
_geom_bond_distance
_ccdc_geom_bond_type
O4    Zn2   1.988306 S    
N1    H7    1.030039 S    
C11   C12   1.394109 A    
C22   N9    1.156577 T    
C21   N3    1.157357 T    
N2    C20   1.308175 D    
C4    C14   1.437728 S    
C1    C15   1.448940 S    
N1    C19   1.303064 D    
Zn2   O8    1.999311 S    
H6    C17   1.087465 S    
C19   C20   1.505883 S    
C17   C18   1.332688 D    
C9    C14   1.415669 A    
C16   C18   1.436206 S    
C15   C21   1.450876 S    
C19   N5    1.432256 S    
H5    C16   1.087295 S    
O1    Zn1   1.915565 S    
C9    C10   1.391726 A    
C3    C17   1.442528 S    
N2    N6    1.391293 S    
Zn1   O7    1.988307 S    
C13   C14   1.397333 A    
O4    C2    1.303786 A    
N4    O10   1.300048 A    
O3    Zn1   1.999312 S    
C2    C11   1.442214 S    
C7    N8    1.437302 S    
N6    O14   1.302136 A    
N6    O13   1.299904 A    
O8    C4    1.294728 A    
C6    N7    1.434224 S    
C20   N4    1.430822 S    
O2    C1    1.296393 A    
N5    O12   1.299010 A    
Zn1   N2    2.024534 S    
C15   C16   1.341871 D    
O7    C4    1.292925 A    
N8    O18   1.301567 A    
O3    C2    1.286403 A    
N4    O9    1.300711 A    
H4    C18   1.087708 S    
N7    O15   1.301156 A    
C8    C9    1.420627 A    
C5    C6    1.401738 A    
C6    C7    1.409215 A    
Zn1   O5    1.939921 S    
O5    C3    1.295581 A    
N8    O17   1.301131 A    
H1    C12   1.081410 S    
C5    C10   1.411467 A    
O1    C1    1.294675 A    
H3    C13   1.083046 S    
N5    O11   1.298287 A    
C8    C22   1.446208 S    
Zn2   N1    2.024431 S    
Zn2   O6    1.915565 S    
O2    Zn2   1.939921 S    
C10   C11   1.417894 A    
C7    C8    1.410904 A    
C12   C13   1.368093 A    
C5    H2    1.081212 S    
N7    O16   1.301395 A    
O6    C3    1.292566 A    
