data_mof_unit_55823.cif
_audit_creation_date              2012-10-26T20:00:13-0400
_audit_creation_method            fapswitch 2.2
_symmetry_space_group_name_H-M    P1
_symmetry_Int_Tables_number       1
_space_group_crystal_system       triclinic
_cell_length_a                    23.52691
_cell_length_b                    10.877141
_cell_length_c                    9.734767
_cell_angle_alpha                 89.96547
_cell_angle_beta                  91.243573
_cell_angle_gamma                 89.766017
_cell_volume                      2490.57246891

loop_
_atom_site_label
_atom_site_type_symbol
_atom_type_description
_atom_site_fract_x
_atom_site_fract_y
_atom_site_fract_z
_atom_type_partial_charge
C1    C     C_R   0.501218 0.265273 0.499880 0.556243
C2    C     C_R   0.119012 0.606510 0.475732 0.404200
C3    C     C_R   0.241137 0.566199 0.599828 -0.062319
C4    C     C_R   0.391073 0.497427 0.498526 0.547290
C5    C     C_R   0.300226 0.563642 0.596565 -0.154683
C6    C     C_R   0.328427 0.495202 0.496101 0.021713
C7    C     C_R   0.296033 0.426363 0.397990 -0.011246
C8    C     C_R   0.236474 0.430958 0.402701 -0.043287
C9    C     C_R   0.209113 0.500003 0.502989 0.223756
C10   C     C_R   0.760478 0.514997 0.381477 -0.063622
C11   C     C_R   0.701206 0.515063 0.379995 -0.157987
C12   C     C_R   0.971956 0.281216 0.572025 0.267392
C13   C     C_R   0.671633 0.499910 0.502846 -0.005463
C14   C     C_R   0.702502 0.484179 0.626741 -0.152925
C15   C     C_R   0.761759 0.484286 0.628073 -0.057170
C16   C     C_R   0.503148 0.734697 0.500217 0.570626
C17   C     C_R   0.790976 0.499748 0.505509 0.237341
C18   C     C_2   0.526022 0.933965 0.392455 0.255716
C19   C     C_2   0.513214 0.866478 0.503926 -0.140426
C20   C     C_2   0.531700 0.068889 0.403443 0.261313
C21   C     C_2   0.502798 0.132298 0.499030 -0.132931
C22   C     C_2   0.474997 0.579883 0.924311 0.019665
C23   C     C_R   0.031549 0.284347 0.574970 -0.106947
C24   C     C_2   0.485460 0.591617 0.076770 -0.040755
C25   C     C_R   0.609005 0.500064 0.501085 0.530288
C26   C     C_R   0.880114 0.605232 0.475872 0.400126
C27   C     C_R   0.880618 0.392782 0.538794 0.412182
C28   C     C_R   0.940604 0.389582 0.540583 0.032445
C29   C     C_R   0.970051 0.498559 0.508289 -0.072861
C30   C     C_R   0.939634 0.607051 0.475533 0.036880
C31   C     C_3   0.947917 0.088691 0.501535 -0.074056
C32   C     C_3   0.586039 0.842775 0.242136 -0.076525
C33   C     C_3   0.616554 0.156970 0.357203 -0.103287
C34   C     C_R   0.060829 0.391993 0.541891 -0.017026
C35   C     C_3   0.550354 0.431243 0.895064 -0.074768
C36   C     C_3   0.600112 0.515884 0.935294 -0.404141
C37   C     C_3   0.322593 0.343078 0.291889 -0.270690
C38   C     C_3   0.348827 0.228357 0.358399 -0.403668
C39   C     C_R   0.030092 0.499468 0.508585 -0.042272
C40   C     C_R   0.059365 0.608169 0.475947 0.042001
C41   C     C_R   0.028483 0.715391 0.443550 -0.122155
C42   C     C_R   0.969267 0.714821 0.443360 -0.121373
C43   C     C_R   0.120453 0.394846 0.541251 0.403057
Cu1   Cu    Cu3+1 0.500010 0.500020 0.638630 0.913025
Cu2   Cu    Cu3+1 0.499990 0.499980 0.361370 0.950708
H1    H     H_    0.678628 0.527314 0.282768 0.124505
H2    H     H_    0.049926 0.800080 0.418114 0.161312
H3    H     H_    0.946801 0.799073 0.417524 0.147238
H4    H     H_    0.220152 0.619266 0.678140 0.140149
H5    H     H_    0.324086 0.616396 0.672381 0.126995
H6    H     H_    0.210825 0.379159 0.329474 0.129919
H7    H     H_    0.782784 0.526458 0.286204 0.130258
H8    H     H_    0.930720 0.127768 0.403236 0.132589
H9    H     H_    0.921462 0.008037 0.527176 0.169958
H10   H     H_    0.992193 0.055184 0.488530 0.096156
H11   H     H_    0.604130 0.788662 0.330086 0.108849
H12   H     H_    0.680981 0.470946 0.722387 0.120090
H13   H     H_    0.613447 0.922883 0.220326 0.143877
H14   H     H_    0.586557 0.782336 0.150435 0.123490
H15   H     H_    0.639290 0.072756 0.393846 0.095067
H16   H     H_    0.614505 0.225210 0.441938 0.122014
H17   H     H_    0.641954 0.198287 0.274460 0.145623
H18   H     H_    0.605401 0.589212 0.857366 0.170206
H19   H     H_    0.594147 0.559509 0.036641 0.151585
H20   H     H_    0.639863 0.460798 0.943391 0.101621
H21   H     H_    0.542278 0.361729 0.974312 0.108026
H22   H     H_    0.565022 0.372166 0.810557 0.182513
H23   H     H_    0.785051 0.472342 0.724356 0.133496
H24   H     H_    0.382031 0.252983 0.435855 0.160662
H25   H     H_    0.315427 0.173947 0.409341 0.168177
H26   H     H_    0.368568 0.170425 0.278412 0.152441
H27   H     H_    0.289949 0.311902 0.215412 0.138754
H28   H     H_    0.354476 0.393057 0.231398 0.177586
H29   H     H_    0.513709 0.907601 0.605414 0.050195
H30   H     H_    0.478044 0.087230 0.576790 0.047871
H31   H     H_    0.447204 0.647491 0.875522 0.125071
H32   H     H_    0.480751 0.681447 0.123092 0.182889
H33   H     H_    0.054731 0.201624 0.603524 0.174803
H34   H     H_    0.485643 0.415292 0.115994 0.232400
N1    N     N_R   0.851988 0.499301 0.506899 -0.409345
N2    N     N_R   0.148201 0.500757 0.507559 -0.395557
N3    N     N_2   0.499380 0.498660 0.846910 -0.231464
N4    N     N_2   0.499370 0.498630 0.153040 -0.361364
O1    O     O_R   0.500010 0.321960 0.617040 -0.518566
O2    O     O_R   0.582130 0.500060 0.617050 -0.524239
O3    O     O_R   0.582110 0.500020 0.382900 -0.495906
O4    O     O_2   0.850464 0.708786 0.446442 -0.503328
O5    O     O_3   0.944758 0.174274 0.609967 -0.509837
O6    O     O_3   0.529456 0.880652 0.263495 -0.530559
O7    O     O_3   0.561873 0.129585 0.303286 -0.527610
O8    O     O_2   0.850863 0.290454 0.567185 -0.442851
O9    O     O_2   0.150538 0.292718 0.574290 -0.496624
O10   O     O_2   0.147621 0.709241 0.442551 -0.495140
O11   O     O_R   0.499990 0.321920 0.382900 -0.449271
O12   O     O_R   0.417890 0.499980 0.617100 -0.494973
O13   O     O_R   0.417870 0.499940 0.382950 -0.502910
O14   O     O_R   0.500010 0.678080 0.617100 -0.507808
O15   O     O_R   0.499990 0.678040 0.382960 -0.452411

loop_
_geom_bond_atom_site_label_1
_geom_bond_atom_site_label_2
_ccdc_geom_bond_type
C38   H25   S    
C1    C21   S    
C41   C42   A    
C35   C36   S    
C22   H31   S    
C10   H7    S    
C3    H4    S    
C7    C8    A    
C1    O1    A    
C12   C23   A    
C37   C38   S    
C12   C28   A    
C22   N3    D    
C28   C29   A    
C24   N4    D    
C33   H17   S    
Cu1   N3    S    
Cu2   O15   S    
C5    C6    A    
C16   O14   A    
C10   C17   A    
C18   C19   D    
C26   O4    S    
C4    O13   A    
C8    C9    A    
C27   O8    S    
C32   H13   S    
C36   H18   S    
C38   H24   S    
C23   H33   S    
C13   C14   A    
C13   C25   S    
Cu2   N4    S    
Cu2   O11   S    
C35   N3    S    
C2    N2    A    
C19   H29   S    
C41   H2    S    
C12   O5    S    
C34   C39   A    
C4    C6    S    
C27   N1    A    
C39   C40   A    
C36   H20   S    
C1    O11   A    
C35   H21   S    
Cu1   O1    S    
C20   O7    S    
C17   N1    S    
C26   N1    A    
C29   C30   A    
C3    C9    A    
C4    O12   A    
Cu1   O14   S    
C32   O6    S    
C35   H22   S    
C23   C34   A    
C29   C39   A    
C25   O2    A    
C7    C37   S    
C42   H3    S    
C31   H8    S    
C8    H6    S    
C40   C41   A    
C26   C30   A    
C33   H15   S    
C43   N2    A    
C22   C24   S    
C5    H5    S    
Cu1   O2    S    
Cu1   Cu2   S    
C15   C17   A    
C14   H12   S    
C37   H28   S    
C38   H26   S    
C31   O5    S    
C18   O6    S    
C2    O10   S    
C34   C43   A    
C3    C5    A    
C6    C7    A    
C21   H30   S    
C43   O9    S    
Cu2   O3    S    
Cu1   O12   S    
C33   O7    S    
H34   N4    S    
C11   C13   A    
C16   O15   A    
C16   C19   S    
C15   H23   S    
C25   O3    A    
C18   C20   S    
C31   H9    S    
C10   C11   A    
C2    C40   A    
C24   H32   S    
C20   C21   D    
C33   H16   S    
C37   H27   S    
C27   C28   A    
C14   C15   A    
C30   C42   A    
C11   H1    S    
C32   H14   S    
C31   H10   S    
C36   H19   S    
Cu2   O13   S    
C32   H11   S    
C9    N2    S    
