data_mof_unit_29813.cif
_audit_creation_date              2012-12-11T14:33:57-0500
_audit_creation_method            fapswitch 2.2
_symmetry_space_group_name_H-M    P1
_symmetry_Int_Tables_number       1
_space_group_crystal_system       triclinic
_cell_length_a                    13.905921
_cell_length_b                    14.012238
_cell_length_c                    27.342295
_cell_angle_alpha                 89.970015
_cell_angle_beta                  90.214725
_cell_angle_gamma                 119.666198
_cell_volume                      4629.35293372

loop_
_atom_site_label
_atom_site_type_symbol
_atom_type_description
_atom_site_fract_x
_atom_site_fract_y
_atom_site_fract_z
_atom_type_partial_charge
C1    C     C_R   0.236395 0.785579 0.569649 0.540317
C2    C     C_R   0.214133 0.449950 0.569549 0.542438
C3    C     C_R   0.548694 0.763042 0.570062 0.539249
C4    C     C_3   0.608882 0.716877 0.796818 -0.213303
C5    C     C_3   0.261409 0.930396 0.790010 -0.211672
C6    C     C_3   0.082362 0.350117 0.792117 -0.211204
C7    C     C_3   0.580584 0.701326 0.741427 -0.206741
C8    C     C_3   0.284406 0.905507 0.737509 -0.207317
C9    C     C_3   0.107286 0.395062 0.739046 -0.207748
C10   C     C_1   0.690371 0.855003 0.863536 -0.079118
C11   C     C_1   0.119038 0.875047 0.854155 -0.078955
C12   C     C_1   0.121072 0.243441 0.854001 -0.079061
C13   C     C_1   0.603772 0.800952 0.662975 -0.072178
C14   C     C_1   0.192649 0.809143 0.660403 -0.076627
C15   C     C_1   0.188052 0.380659 0.660005 -0.076503
C16   C     C_1   0.584685 0.787271 0.619797 -0.019299
C17   C     C_1   0.209331 0.799382 0.618216 -0.019044
C18   C     C_1   0.199545 0.407841 0.617894 -0.019419
C19   C     C_R   0.065166 0.150761 0.095910 0.578564
C20   C     C_R   0.778202 0.884327 0.088532 0.547051
C21   C     C_R   0.116310 0.893935 0.088245 0.560454
C22   C     C_R   0.070881 0.163014 0.943068 0.538042
C23   C     C_R   0.778578 0.886559 0.951376 0.544018
C24   C     C_R   0.091559 0.928217 0.943209 0.535206
C25   C     C_R   0.616979 0.894669 0.361303 -0.133216
C26   C     C_R   0.097818 0.732059 0.362683 -0.134671
C27   C     C_R   0.264317 0.358690 0.363699 -0.135307
C28   C     C_R   0.644166 0.910709 0.311821 0.013920
C29   C     C_R   0.081143 0.743722 0.313070 0.014242
C30   C     C_R   0.241524 0.308017 0.317598 0.013823
C31   C     C_R   0.682256 0.929329 0.210531 0.016874
C32   C     C_R   0.061112 0.760217 0.211505 0.016990
C33   C     C_R   0.201079 0.227227 0.220922 0.017049
C34   C     C_R   0.232597 0.788214 0.431812 0.548386
C35   C     C_R   0.211717 0.444736 0.431371 0.549907
C36   C     C_R   0.555133 0.767014 0.431850 0.549565
C37   C     C_R   0.653483 0.000072 0.234425 -0.138329
C38   C     C_R   0.978758 0.670640 0.237332 -0.128477
C39   C     C_R   0.303273 0.258682 0.243538 -0.124199
C40   C     C_R   0.634264 0.990672 0.284796 -0.131222
C41   C     C_R   0.989331 0.661767 0.287774 -0.129135
C42   C     C_R   0.323472 0.299065 0.291492 -0.128868
C43   C     C_R   0.705269 0.939646 0.160323 -0.150568
C44   C     C_R   0.051235 0.771472 0.161159 -0.135774
C45   C     C_R   0.183276 0.196385 0.171479 -0.128762
C46   C     C_R   0.731036 0.865707 0.137471 -0.002758
C47   C     C_R   0.135179 0.862036 0.136436 -0.004915
C48   C     C_R   0.083227 0.173062 0.148570 -0.008742
C49   C     C_R   0.658914 0.745516 0.364324 -0.131582
C50   C     C_R   0.265128 0.910802 0.362205 -0.128735
C51   C     C_R   0.076616 0.328269 0.367846 -0.130484
C52   C     C_R   0.684143 0.758920 0.314936 0.013285
C53   C     C_R   0.253222 0.920770 0.312552 0.013674
C54   C     C_R   0.053230 0.279275 0.321790 0.011724
C55   C     C_R   0.674291 0.840094 0.288240 0.064003
C56   C     C_R   0.162040 0.836100 0.287559 0.063402
C57   C     C_R   0.136582 0.271183 0.296013 0.062659
C58   C     C_R   0.711018 0.686898 0.291191 -0.126964
C59   C     C_R   0.335632 0.010478 0.287046 -0.127385
C60   C     C_R   0.949890 0.244683 0.299881 -0.129275
C61   C     C_R   0.724236 0.692558 0.240825 -0.127040
C62   C     C_R   0.329751 0.014636 0.236496 -0.129403
C63   C     C_R   0.930901 0.207235 0.251744 -0.122795
C64   C     C_R   0.713683 0.772183 0.214105 0.010696
C65   C     C_R   0.239501 0.931093 0.211352 0.014130
C66   C     C_R   0.013974 0.201665 0.225283 0.016428
C67   C     C_3   0.563895 0.870746 0.739578 -0.231077
C68   C     C_3   0.122138 0.714732 0.740032 -0.231172
C69   C     C_3   0.283390 0.387201 0.737626 -0.230412
C70   C     C_R   0.690603 0.847681 0.237647 0.065309
C71   C     C_R   0.153970 0.842461 0.236805 0.063920
C72   C     C_R   0.116636 0.231569 0.247654 0.062117
C73   C     C_R   0.728774 0.778866 0.164180 -0.122967
C74   C     C_R   0.231680 0.937310 0.161213 -0.132459
C75   C     C_R   0.997783 0.171744 0.176108 -0.129366
C76   C     C_R   0.617805 0.807642 0.386677 -0.003255
C77   C     C_R   0.193410 0.812844 0.386438 -0.003767
C78   C     C_R   0.183363 0.373056 0.388038 -0.004896
C79   C     C_3   0.750568 0.887966 0.726328 -0.079127
C80   C     C_3   0.093212 0.871931 0.714250 -0.077598
C81   C     C_3   0.104181 0.218951 0.714183 -0.078041
C82   C     C_3   0.772450 0.904247 0.782262 -0.192045
C83   C     C_3   0.065003 0.879739 0.768634 -0.197114
C84   C     C_3   0.093203 0.181849 0.768410 -0.196157
C85   C     C_1   0.725021 0.869060 0.904837 -0.029317
C86   C     C_1   0.105563 0.897403 0.895087 -0.021675
C87   C     C_1   0.100418 0.207697 0.894939 -0.024367
C88   C     C_3   0.624719 0.814481 0.716050 0.089367
C89   C     C_3   0.173931 0.825277 0.711656 0.088410
C90   C     C_3   0.170426 0.346376 0.711322 0.087418
C91   C     C_3   0.584620 0.883580 0.795815 -0.223307
C92   C     C_3   0.108053 0.733732 0.794980 -0.220610
C93   C     C_3   0.265606 0.354511 0.792501 -0.220965
C94   C     C_3   0.663272 0.839967 0.811100 0.064125
C95   C     C_3   0.137904 0.854754 0.803388 0.063766
C96   C     C_3   0.140398 0.282121 0.803195 0.062648
Cr1   Cr    Cr6+3 0.164410 0.584450 0.499910 1.016141
Cr2   Cr    Cr6+3 0.415550 0.579960 0.499910 1.017035
Cr3   Cr    Cr6+3 0.420040 0.835590 0.499910 1.013919
Cr4   Cr    Cr6+3 0.155170 0.075460 0.019960 1.015307
Cr5   Cr    Cr6+3 0.924540 0.079710 0.019960 1.005742
Cr6   Cr    Cr6+3 0.920290 0.844830 0.019960 1.007680
H1    H     H_    0.621332 0.971620 0.806154 0.112448
H2    H     H_    0.021199 0.677098 0.806321 0.113406
H3    H     H_    0.310270 0.309342 0.801806 0.111322
H4    H     H_    0.473641 0.820348 0.732306 0.107830
H5    H     H_    0.175758 0.676834 0.736779 0.106106
H6    H     H_    0.334250 0.477895 0.734509 0.106705
H7    H     H_    0.504460 0.837356 0.815405 0.114944
H8    H     H_    0.162694 0.714326 0.817719 0.119169
H9    H     H_    0.301216 0.429836 0.815594 0.118880
H10   H     H_    0.666149 0.685080 0.805530 0.114736
H11   H     H_    0.282649 0.017981 0.792534 0.111242
H12   H     H_    0.991362 0.297696 0.796882 0.112984
H13   H     H_    0.706315 0.006076 0.139557 0.104732
H14   H     H_    0.976778 0.713374 0.141841 0.113689
H15   H     H_    0.248450 0.194769 0.150494 0.121721
H16   H     H_    0.586403 0.943886 0.378734 0.127819
H17   H     H_    0.041043 0.657165 0.381628 0.123422
H18   H     H_    0.346583 0.392128 0.379255 0.125005
H19   H     H_    0.645703 0.062424 0.214179 0.098737
H20   H     H_    0.907231 0.606751 0.218421 0.098319
H21   H     H_    0.368813 0.255510 0.223606 0.100351
H22   H     H_    0.610354 0.044926 0.302490 0.100190
H23   H     H_    0.926406 0.590490 0.306886 0.100794
H24   H     H_    0.404233 0.326268 0.307633 0.101999
H25   H     H_    0.747282 0.720280 0.146759 0.129682
H26   H     H_    0.297162 0.006905 0.142081 0.123559
H27   H     H_    0.919659 0.151017 0.158650 0.118206
H28   H     H_    0.742612 0.634706 0.222736 0.098959
H29   H     H_    0.395203 0.083527 0.217107 0.094530
H30   H     H_    0.852808 0.186625 0.234594 0.110936
H31   H     H_    0.718334 0.624108 0.311319 0.101488
H32   H     H_    0.406329 0.075484 0.305999 0.097328
H33   H     H_    0.885307 0.250792 0.319270 0.103307
H34   H     H_    0.592607 0.952846 0.722831 0.108561
H35   H     H_    0.040132 0.655975 0.723959 0.109898
H36   H     H_    0.330260 0.351399 0.719849 0.108938
H37   H     H_    0.661538 0.679741 0.384136 0.127928
H38   H     H_    0.337509 0.975022 0.380619 0.131017
H39   H     H_    0.013032 0.337281 0.386638 0.129892
H40   H     H_    0.776845 0.969775 0.709858 0.123263
H41   H     H_    0.015339 0.813266 0.694986 0.125498
H42   H     H_    0.153193 0.188479 0.694334 0.124461
H43   H     H_    0.811222 0.993300 0.791084 0.093338
H44   H     H_    0.976381 0.819140 0.775320 0.095783
H45   H     H_    0.141571 0.139140 0.773812 0.093701
H46   H     H_    0.832184 0.877676 0.794337 0.113348
H47   H     H_    0.074780 0.961239 0.777141 0.107188
H48   H     H_    0.005806 0.122617 0.777938 0.110405
H49   H     H_    0.489303 0.652918 0.736753 0.102192
H50   H     H_    0.338049 0.867693 0.739430 0.103366
H51   H     H_    0.158492 0.486201 0.740039 0.103121
H52   H     H_    0.614553 0.652482 0.724254 0.114283
H53   H     H_    0.331156 0.983198 0.716610 0.115753
H54   H     H_    0.028940 0.375428 0.719905 0.116359
H55   H     H_    0.532038 0.667910 0.818383 0.111276
H56   H     H_    0.315668 0.918197 0.816315 0.113690
H57   H     H_    0.111228 0.419914 0.818265 0.115625
O1    O     O_R   0.137150 0.468200 0.553200 -0.513142
O2    O     O_R   0.531800 0.668950 0.553200 -0.512197
O3    O     O_R   0.331050 0.862850 0.553200 -0.511997
O4    O     O_R   0.179100 0.982980 0.967000 -0.505142
O5    O     O_R   0.017020 0.196120 0.967000 -0.484886
O6    O     O_R   0.803880 0.820900 0.967000 -0.512387
O7    O     O_R   0.173970 0.688730 0.549930 -0.502079
O8    O     O_R   0.311270 0.485240 0.549930 -0.501469
O9    O     O_R   0.514760 0.826030 0.549930 -0.500178
O10   O     O_R   0.140110 0.470540 0.446010 -0.521331
O11   O     O_R   0.529460 0.669570 0.446010 -0.521136
O12   O     O_R   0.330430 0.859890 0.446010 -0.523859
O13   O     O_R   0.176710 0.690910 0.450560 -0.501768
O14   O     O_R   0.309090 0.485800 0.450560 -0.501128
O15   O     O_R   0.514200 0.823290 0.450560 -0.503808
O16   O     O_3   0.333333 0.666667 0.499990 -0.267734
O17   O     O_R   0.176750 0.985260 0.074180 -0.529822
O18   O     O_R   0.014740 0.191490 0.074180 -0.494999
O19   O     O_R   0.808510 0.823250 0.074180 -0.518138
O20   O     O_R   0.146100 0.172630 0.068980 -0.479934
O21   O     O_R   0.827370 0.973470 0.068980 -0.518232
O22   O     O_R   0.026530 0.853900 0.068980 -0.489642
O23   O     O_3   0.000000 0.000000 0.020040 -0.285160
O24   O     O_R   0.148270 0.170520 0.969620 -0.490792
O25   O     O_R   0.829480 0.977750 0.969620 -0.519249
O26   O     O_R   0.022250 0.851730 0.969620 -0.482780
C97   C     C_3   0.821072 0.843858 0.702946 -0.436299
H58   H     H_    0.812608 0.839739 0.662519 0.142491
H59   H     H_    0.908108 0.901000 0.712011 0.119149
H60   H     H_    0.800283 0.762013 0.717508 0.133708
C98   C     C_3   0.139409 0.983676 0.688033 -0.427864
H61   H     H_    0.169918 0.981441 0.650878 0.145429
H62   H     H_    0.073459 0.004644 0.683077 0.115280
H63   H     H_    0.207850 0.050260 0.709284 0.128618
C99   C     C_3   0.989949 0.168209 0.688935 -0.428026
H64   H     H_    0.955608 0.078705 0.685294 0.116641
H65   H     H_    0.931020 0.183207 0.710344 0.131288
H66   H     H_    0.996095 0.200876 0.651428 0.146630

loop_
_geom_bond_atom_site_label_1
_geom_bond_atom_site_label_2
_ccdc_geom_bond_type
C15   C18   T    
C99   H65   S    
C43   C46   A    
C10   C85   T    
C36   O15   A    
C98   H61   S    
Cr1   O16   S    
C79   C97   S    
C81   C84   S    
C2    C18   S    
C33   C45   A    
C48   C75   A    
C27   C78   A    
C25   H16   S    
C82   H43   S    
C6    C9    S    
C6    H57   S    
C53   C59   A    
Cr1   O10   S    
C20   O21   A    
C54   C60   A    
C27   H18   S    
C25   C28   A    
C21   O22   A    
C7    H52   S    
C67   C88   S    
C33   C39   A    
Cr1   O13   S    
C31   C43   A    
C60   C63   A    
C82   C94   S    
C8    H50   S    
C37   C40   A    
C69   C93   S    
C4    C7    S    
C34   C77   S    
C64   C70   A    
C50   H38   S    
C84   H45   S    
C79   H40   S    
Cr3   O12   S    
C28   C40   A    
C11   C86   T    
C11   C95   S    
Cr1   O7    S    
C83   H44   S    
C30   C57   A    
Cr2   O11   S    
C39   H21   S    
C84   C96   S    
C80   C89   S    
Cr4   O24   S    
C8    H53   S    
C6    H12   S    
C36   C76   S    
C33   C72   A    
C43   H13   S    
C81   C99   S    
C23   O6    A    
C28   C55   A    
C31   C70   A    
C66   C72   A    
C7    C88   S    
C9    H54   S    
Cr4   O17   S    
C64   C73   A    
C26   C29   A    
C68   H5    S    
C32   C38   A    
C39   C42   A    
Cr4   O23   S    
C19   O18   A    
Cr2   O8    S    
C98   H63   S    
C44   C47   A    
C93   H3    S    
C49   C52   A    
C58   C61   A    
C99   H64   S    
C4    H10   S    
C63   C66   A    
C9    H51   S    
C27   C30   A    
C14   C17   T    
C68   H35   S    
C80   C83   S    
C79   C88   S    
C5    C95   S    
C69   H6    S    
C3    O9    A    
C32   C71   A    
C51   H39   S    
C58   H31   S    
C40   H22   S    
C74   H26   S    
C26   C77   A    
Cr6   O26   S    
Cr1   O1    S    
C41   H23   S    
C83   H47   S    
C26   H17   S    
C38   C41   A    
Cr2   O14   S    
C92   H2    S    
C19   C48   S    
C20   O19   A    
C73   H25   S    
C92   C95   S    
C65   C74   A    
C31   C37   A    
C24   O26   A    
Cr6   O23   S    
C61   C64   A    
C3    C16   S    
C14   C89   S    
C22   O24   A    
C80   H41   S    
C79   C82   S    
Cr3   O3    S    
C22   O5    A    
C5    H11   S    
C4    H55   S    
C56   C71   A    
C83   C95   S    
C67   C91   S    
C68   C89   S    
C32   C44   A    
C49   C76   A    
C22   C87   S    
C60   H33   S    
C38   H20   S    
Cr5   O25   S    
C52   C58   A    
C61   H28   S    
C93   H9    S    
C7    H49   S    
C81   C90   S    
C1    O3    A    
C93   C96   S    
C6    C96   S    
C49   H37   S    
C35   O10   A    
C37   H19   S    
C24   O4    A    
C42   H24   S    
C97   H59   S    
C69   C90   S    
C50   C77   A    
C19   O20   A    
Cr2   O2    S    
C34   O13   A    
Cr3   O9    S    
C45   C48   A    
C45   H15   S    
C69   H36   S    
C34   O12   A    
C59   C62   A    
C98   H62   S    
C35   C78   S    
C62   C65   A    
C29   C41   A    
Cr6   O22   S    
C80   C98   S    
C62   H29   S    
Cr5   O5    S    
C30   C42   A    
C47   C74   A    
C91   H1    S    
C9    C90   S    
C5    C8    S    
C82   H46   S    
C52   C55   A    
C67   H4    S    
C29   C56   A    
Cr6   O6    S    
C35   O14   A    
C36   O11   A    
C51   C54   A    
C91   H7    S    
C97   H60   S    
C67   H34   S    
C51   C78   A    
C23   O25   A    
C12   C87   T    
Cr5   O21   S    
C65   C71   A    
C15   C90   S    
Cr2   O16   S    
C92   H8    S    
C4    C94   S    
Cr3   O15   S    
C1    O7    A    
Cr6   O19   S    
C66   C75   A    
C13   C88   S    
C68   C92   S    
C63   H30   S    
Cr4   O4    S    
C57   C72   A    
C81   H42   S    
C21   O17   A    
C53   C56   A    
C55   C70   A    
Cr5   O18   S    
C3    O2    A    
C99   H66   S    
Cr3   O16   S    
C1    C17   S    
C44   H14   S    
C25   C76   A    
C2    O1    A    
C5    H56   S    
C23   C85   S    
C13   C16   T    
C10   C94   S    
C12   C96   S    
C8    C89   S    
C21   C47   S    
C97   H58   S    
Cr4   O20   S    
C24   C86   S    
C2    O8    A    
C54   C57   A    
C46   C73   A    
C20   C46   S    
Cr5   O23   S    
C75   H27   S    
C50   C53   A    
C91   C94   S    
C59   H32   S    
C84   H48   S    
