data_mof_unit_30338.cif
_audit_creation_date              2012-12-10T17:27:06-0500
_audit_creation_method            fapswitch 2.2
_symmetry_space_group_name_H-M    P1
_symmetry_Int_Tables_number       1
_space_group_crystal_system       triclinic
_cell_length_a                    18.182321
_cell_length_b                    18.303987
_cell_length_c                    12.039324
_cell_angle_alpha                 90.016729
_cell_angle_beta                  86.757636
_cell_angle_gamma                 89.992175
_cell_volume                      4000.38076087

loop_
_atom_site_label
_atom_site_type_symbol
_atom_type_description
_atom_site_fract_x
_atom_site_fract_y
_atom_site_fract_z
_atom_type_partial_charge
C1    C     C_R   0.401278 0.101092 0.520366 0.905379
C2    C     C_R   0.534691 0.997152 0.021857 0.038306
C3    C     C_R   0.965292 0.497223 0.978144 0.038381
C4    C     C_R   0.035035 0.498127 0.021741 0.039699
C5    C     C_R   0.588813 0.003417 0.832321 0.375340
C6    C     C_R   0.411334 0.005751 0.168149 0.369074
C7    C     C_R   0.088678 0.505598 0.831878 0.368988
C8    C     C_R   0.911194 0.503580 0.167699 0.375389
C9    C     C_R   0.596298 0.999552 0.948605 -0.315623
C10   C     C_R   0.403422 0.002125 0.051826 -0.316436
C11   C     C_R   0.096568 0.501939 0.948197 -0.315961
C12   C     C_R   0.597570 0.897413 0.479353 0.909233
C13   C     C_R   0.903690 0.499735 0.051409 -0.316050
C14   C     C_R   0.458242 0.997778 0.861610 -0.089790
C15   C     C_R   0.541542 0.996176 0.138355 -0.089887
C16   C     C_R   0.958447 0.496281 0.861639 -0.089911
C17   C     C_R   0.041749 0.497663 0.138387 -0.089747
C18   C     C_R   0.660193 0.150297 0.467997 -0.147403
C19   C     C_R   0.348668 0.840580 0.533515 -0.123103
C20   C     C_R   0.341566 0.151703 0.530509 -0.145339
C21   C     C_R   0.649186 0.837916 0.465994 -0.123444
C22   C     C_R   0.158500 0.651642 0.469577 -0.145517
C23   C     C_R   0.599136 0.100895 0.479296 0.908871
C24   C     C_R   0.850891 0.337843 0.533916 -0.123794
C25   C     C_R   0.839817 0.650312 0.532096 -0.146985
C26   C     C_R   0.151431 0.340677 0.466422 -0.122849
C27   C     C_R   0.244843 0.792780 0.641675 0.255686
C28   C     C_R   0.781471 0.174778 0.384010 0.241393
C29   C     C_R   0.748517 0.783900 0.354449 0.244701
C30   C     C_R   0.220256 0.176724 0.613054 0.240863
C31   C     C_R   0.752058 0.283383 0.645902 0.245287
C32   C     C_R   0.279595 0.676875 0.386413 0.240933
C33   C     C_R   0.255732 0.293331 0.358794 0.255760
C34   C     C_R   0.402105 0.897959 0.520573 0.912465
C35   C     C_R   0.718265 0.674506 0.615336 0.241329
C36   C     C_R   0.303059 0.840662 0.629890 -0.345519
C37   C     C_R   0.716214 0.134854 0.388155 -0.293731
C38   C     C_R   0.692039 0.833988 0.366739 -0.337784
C39   C     C_R   0.285345 0.136916 0.610094 -0.289478
C40   C     C_R   0.808409 0.333579 0.633486 -0.337689
C41   C     C_R   0.214515 0.637060 0.389532 -0.289459
C42   C     C_R   0.197378 0.341086 0.370413 -0.345668
C43   C     C_R   0.783539 0.634588 0.611356 -0.293830
C44   C     C_R   0.342666 0.787346 0.450667 0.130755
C45   C     C_R   0.900865 0.600895 0.520733 0.908926
C46   C     C_R   0.668408 0.203024 0.549971 0.167723
C47   C     C_R   0.654704 0.784909 0.549572 0.131743
C48   C     C_R   0.334089 0.204756 0.448024 0.165939
C49   C     C_R   0.845120 0.285058 0.450013 0.131836
C50   C     C_R   0.166241 0.704445 0.552414 0.166000
C51   C     C_R   0.157239 0.287267 0.548993 0.130683
C52   C     C_R   0.831895 0.703351 0.450560 0.167729
C53   C     C_R   0.286085 0.735013 0.463383 -0.044782
C54   C     C_R   0.736140 0.239037 0.554218 0.025876
C55   C     C_R   0.710925 0.731918 0.537332 -0.043450
C56   C     C_R   0.097907 0.397974 0.479401 0.912582
C57   C     C_R   0.268212 0.243900 0.446427 0.016340
C58   C     C_R   0.789023 0.231970 0.462362 -0.043613
C59   C     C_R   0.232114 0.743585 0.553810 0.016235
C60   C     C_R   0.213949 0.235043 0.536396 -0.044743
C61   C     C_R   0.764144 0.739311 0.445974 0.026256
C62   C     C_3   0.274993 0.023230 0.199988 -0.909660
C63   C     C_3   0.726247 0.009084 0.800900 -0.920036
C64   C     C_3   0.773784 0.509911 0.199101 -0.920083
C65   C     C_3   0.225110 0.522366 0.800077 -0.910083
C66   C     C_3   0.577045 0.296091 0.607457 -0.807307
C67   C     C_R   0.098744 0.601075 0.479657 0.905366
C68   C     C_3   0.357772 0.818902 0.253129 -0.677585
C69   C     C_3   0.456120 0.257728 0.413013 -0.772765
C70   C     C_3   0.639642 0.817769 0.746336 -0.680427
C71   C     C_3   0.044281 0.757376 0.588725 -0.772182
C72   C     C_3   0.859213 0.318432 0.253400 -0.681019
C73   C     C_3   0.923214 0.796806 0.395065 -0.807650
C74   C     C_3   0.141299 0.318383 0.746643 -0.677041
C75   C     C_3   0.735289 0.212195 0.813364 -0.822951
C76   C     C_3   0.329609 0.615452 0.213754 -0.828722
C77   C     C_3   0.281104 0.240126 0.177947 -0.802813
C78   C     C_R   0.902437 0.397403 0.520620 0.909050
C79   C     C_3   0.669989 0.614483 0.789893 -0.830185
C80   C     C_3   0.220292 0.738936 0.822213 -0.803116
C81   C     C_3   0.829273 0.115124 0.208799 -0.830363
C82   C     C_3   0.766328 0.713227 0.186549 -0.822947
C83   C     C_3   0.169821 0.115003 0.785123 -0.828590
C84   C     C_R   0.464949 0.998206 0.978263 0.039802
H1    H     H_    0.595423 0.994088 0.172254 0.130824
H2    H     H_    0.817691 0.370831 0.701347 0.165166
H3    H     H_    0.789836 0.588593 0.666537 0.172646
H4    H     H_    0.189675 0.380854 0.305274 0.164513
H5    H     H_    0.649724 0.000320 0.983623 0.156927
H6    H     H_    0.349884 0.004143 0.017211 0.157130
H7    H     H_    0.150100 0.503860 0.982839 0.157092
H8    H     H_    0.850261 0.500593 0.016403 0.156993
H9    H     H_    0.347797 0.994044 0.317653 0.280098
H10   H     H_    0.234422 0.037035 0.269277 0.252196
H11   H     H_    0.259425 0.969815 0.164306 0.246264
H12   H     H_    0.404353 0.997277 0.827624 0.131230
H13   H     H_    0.272472 0.066986 0.136547 0.256022
H14   H     H_    0.651044 0.995647 0.680358 0.283808
H15   H     H_    0.768178 0.018688 0.731706 0.251294
H16   H     H_    0.735170 0.953777 0.835545 0.248160
H17   H     H_    0.734473 0.051240 0.865261 0.259764
H18   H     H_    0.848903 0.495547 0.319518 0.283666
H19   H     H_    0.731900 0.519736 0.268295 0.251420
H20   H     H_    0.764509 0.454701 0.164301 0.248082
H21   H     H_    0.765862 0.552184 0.134837 0.259777
H22   H     H_    0.152111 0.494158 0.682181 0.280380
H23   H     H_    0.095638 0.497052 0.172369 0.131176
H24   H     H_    0.265769 0.535974 0.730827 0.252136
H25   H     H_    0.240298 0.468777 0.835537 0.246435
H26   H     H_    0.227973 0.566003 0.863682 0.256115
H27   H     H_    0.603643 0.202700 0.700317 0.273499
H28   H     H_    0.606858 0.335859 0.657750 0.248114
H29   H     H_    0.518050 0.297143 0.636581 0.241657
H30   H     H_    0.581921 0.313289 0.518838 0.245007
H31   H     H_    0.430568 0.752556 0.341336 0.222615
H32   H     H_    0.402217 0.837073 0.192376 0.226945
H33   H     H_    0.321163 0.866085 0.273655 0.235040
H34   H     H_    0.904564 0.494301 0.827734 0.130891
H35   H     H_    0.325134 0.775889 0.213942 0.241857
H36   H     H_    0.406486 0.181857 0.310415 0.271036
H37   H     H_    0.493703 0.276671 0.343033 0.239058
H38   H     H_    0.486730 0.219523 0.464857 0.245782
H39   H     H_    0.437692 0.306044 0.463095 0.241152
H40   H     H_    0.567339 0.750338 0.659601 0.222406
H41   H     H_    0.595370 0.837657 0.806057 0.228779
H42   H     H_    0.677328 0.863801 0.724455 0.239693
H43   H     H_    0.671161 0.774640 0.787224 0.242021
H44   H     H_    0.094337 0.681281 0.690491 0.271250
H45   H     H_    0.709746 0.089057 0.332621 0.172879
H46   H     H_    0.006932 0.776154 0.659114 0.238854
H47   H     H_    0.013483 0.719327 0.536867 0.246045
H48   H     H_    0.062543 0.805814 0.538852 0.241056
H49   H     H_    0.932129 0.250958 0.338907 0.222481
H50   H     H_    0.903173 0.338660 0.193463 0.228891
H51   H     H_    0.821386 0.364249 0.275996 0.239322
H52   H     H_    0.827722 0.275304 0.212446 0.242158
H53   H     H_    0.897305 0.703791 0.300876 0.273395
H54   H     H_    0.892801 0.836874 0.346169 0.248286
H55   H     H_    0.982042 0.798407 0.365106 0.241624
H56   H     H_    0.310922 0.880255 0.695248 0.164770
H57   H     H_    0.918791 0.813198 0.484065 0.245100
H58   H     H_    0.069030 0.252080 0.657380 0.222548
H59   H     H_    0.096589 0.336247 0.807198 0.226871
H60   H     H_    0.177765 0.365749 0.726729 0.235395
H61   H     H_    0.173979 0.275388 0.785779 0.241714
H62   H     H_    0.713212 0.322654 0.800207 0.219677
H63   H     H_    0.699274 0.206981 0.890554 0.243086
H64   H     H_    0.793484 0.217121 0.836100 0.242743
H65   H     H_    0.728996 0.162280 0.762554 0.268594
H66   H     H_    0.384517 0.633195 0.360104 0.214565
H67   H     H_    0.291071 0.090877 0.665404 0.171774
H68   H     H_    0.381239 0.616703 0.159992 0.245561
H69   H     H_    0.285689 0.642810 0.168465 0.247846
H70   H     H_    0.314799 0.557459 0.230442 0.231189
H71   H     H_    0.305971 0.346144 0.222130 0.219539
H72   H     H_    0.321702 0.241088 0.105524 0.241015
H73   H     H_    0.225320 0.251125 0.148505 0.234936
H74   H     H_    0.282005 0.185023 0.216155 0.259607
H75   H     H_    0.613563 0.630981 0.644651 0.214398
H76   H     H_    0.618871 0.616059 0.844790 0.245313
H77   H     H_    0.714373 0.642250 0.833651 0.248339
H78   H     H_    0.682962 0.871445 0.299084 0.164892
H79   H     H_    0.684724 0.556392 0.773834 0.231236
H80   H     H_    0.195064 0.845081 0.779232 0.219572
H81   H     H_    0.179942 0.739565 0.894954 0.241034
H82   H     H_    0.276173 0.749924 0.851289 0.235033
H83   H     H_    0.219386 0.683971 0.783497 0.259711
H84   H     H_    0.886209 0.131511 0.353601 0.214392
H85   H     H_    0.880226 0.116834 0.153550 0.245331
H86   H     H_    0.784701 0.142918 0.165503 0.248341
H87   H     H_    0.814667 0.056994 0.224695 0.231207
H88   H     H_    0.787887 0.823726 0.200781 0.219790
H89   H     H_    0.208637 0.591180 0.333931 0.171927
H90   H     H_    0.802630 0.708414 0.109585 0.243112
H91   H     H_    0.708206 0.717957 0.163382 0.242759
H92   H     H_    0.772714 0.663189 0.237001 0.268772
H93   H     H_    0.115386 0.132804 0.638374 0.214570
H94   H     H_    0.118046 0.116152 0.838558 0.245558
H95   H     H_    0.213566 0.142345 0.830811 0.247825
H96   H     H_    0.184749 0.057040 0.768325 0.231236
N1    N     N_R   0.480750 1.000000 0.209750 -0.134634
N2    N     N_2   0.390152 0.791715 0.352299 -0.280682
N3    N     N_2   0.393593 0.221251 0.369450 -0.272986
N4    N     N_2   0.607140 0.790004 0.647698 -0.281795
N5    N     N_2   0.106979 0.720759 0.631523 -0.272894
N6    N     N_2   0.892243 0.290494 0.351475 -0.281447
N7    N     N_2   0.894948 0.723561 0.381101 -0.286320
N8    N     N_2   0.109378 0.291340 0.647000 -0.280925
N9    N     N_2   0.714071 0.275967 0.752068 -0.310136
N10   N     N_2   0.341436 0.653228 0.316979 -0.302532
N11   N     N_2   0.300385 0.294995 0.257661 -0.278634
N12   N     N_R   0.519250 0.000000 0.790250 -0.135368
N13   N     N_2   0.657043 0.651458 0.686439 -0.302791
N14   N     N_2   0.200591 0.794060 0.743205 -0.278754
N15   N     N_2   0.842501 0.151952 0.312298 -0.302771
N16   N     N_2   0.786992 0.776904 0.248573 -0.310183
N17   N     N_2   0.158250 0.152882 0.681928 -0.302540
N18   N     N_R   0.980750 0.500000 0.209750 -0.135299
N19   N     N_R   0.019250 0.500000 0.790250 -0.134705
N20   N     N_2   0.348040 0.018953 0.241921 -0.292825
N21   N     N_2   0.653038 0.014720 0.759545 -0.295209
N22   N     N_2   0.847010 0.514990 0.240532 -0.294797
N23   N     N_2   0.152020 0.518720 0.758173 -0.293375
N24   N     N_2   0.605649 0.222877 0.620347 -0.285723
O1    O     O_R   0.418020 0.076820 0.422210 -0.638770
O2    O     O_R   0.569630 0.923170 0.391410 -0.629202
O3    O     O_R   0.569630 0.076830 0.391410 -0.623931
O4    O     O_R   0.430370 0.923170 0.608590 -0.628521
O5    O     O_R   0.930370 0.576830 0.608590 -0.623853
O6    O     O_R   0.069630 0.423170 0.391410 -0.628586
O7    O     O_R   0.069630 0.576830 0.391410 -0.620024
O8    O     O_R   0.930370 0.423170 0.608590 -0.629158
O9    O     O_R   0.581980 0.923180 0.577790 -0.623550
O10   O     O_R   0.581980 0.076820 0.577790 -0.629416
O11   O     O_R   0.418020 0.923180 0.422210 -0.623026
O12   O     O_R   0.918020 0.576820 0.422210 -0.629149
O13   O     O_R   0.081980 0.423180 0.577790 -0.623181
O14   O     O_R   0.081980 0.576820 0.577790 -0.639118
O15   O     O_R   0.918020 0.423180 0.422210 -0.623407
O16   O     O_R   0.430370 0.076830 0.608590 -0.619997
Zn1   Zn    Zn3+2 0.491750 1.000000 0.375560 0.931321
Zn2   Zn    Zn3+2 0.508250 0.000000 0.624440 0.936397
Zn3   Zn    Zn3+2 0.991750 0.500000 0.375560 0.936505
Zn4   Zn    Zn3+2 0.008250 0.500000 0.624440 0.931198

loop_
_geom_bond_atom_site_label_1
_geom_bond_atom_site_label_2
_ccdc_geom_bond_type
C70   H43   S    
C64   H19   S    
C74   H59   S    
C8    C13   A    
C66   H29   S    
C44   N2    S    
C80   H81   S    
H14   N21   S    
C8    N18   A    
C14   C84   A    
C63   H17   S    
C25   C43   A    
O16   Zn2   S    
C53   C59   A    
C48   C57   A    
C73   H57   S    
C7    C11   A    
O1    Zn1   S    
C68   N2    S    
C72   N6    S    
C41   H89   S    
C83   H96   S    
C50   C59   A    
C28   C37   A    
C75   N9    S    
C18   C37   A    
C79   H77   S    
C33   N11   S    
H40   N4    S    
C34   O11   A    
C17   H23   S    
C77   H72   S    
C5    N21   S    
C78   O15   A    
H80   N14   S    
C72   H52   S    
C22   C41   A    
C81   N15   S    
C73   H54   S    
C76   H68   S    
O2    Zn1   S    
O4    Zn2   S    
C18   C46   A    
C76   H69   S    
C45   O12   A    
C31   C40   A    
C64   H20   S    
C55   C61   A    
C40   H2    S    
C7    N23   S    
C51   N8    S    
C74   H61   S    
C71   H48   S    
C2    C84   A    
C44   C53   A    
C21   C38   A    
C82   H90   S    
H84   N15   S    
C30   C60   A    
C29   C38   A    
C30   C39   A    
C25   C45   S    
C63   H15   S    
C32   C41   A    
H62   N9    S    
C67   O7    A    
C52   N7    S    
C81   H85   S    
C83   N17   S    
C35   C43   A    
C65   H24   S    
C82   N16   S    
C28   N15   S    
C3    C13   A    
C77   H74   S    
C15   H1    S    
C66   N24   S    
C70   H42   S    
O13   Zn4   S    
C46   N24   S    
H22   N23   S    
H93   N17   S    
C62   H11   S    
C12   O9    A    
C71   N5    S    
C66   H30   S    
O11   Zn1   S    
C80   H82   S    
C56   O13   A    
C73   N7    S    
C74   N8    S    
C22   C67   S    
C29   C61   A    
C49   N6    S    
C6    N1    A    
N1    Zn1   S    
H44   N5    S    
C77   N11   S    
C64   H21   S    
H9    N20   S    
C63   N21   S    
H36   N3    S    
C9    H5    S    
C79   H76   S    
C20   C39   A    
C72   H51   S    
C73   H55   S    
C75   H63   S    
C19   C36   A    
C38   H78   S    
C35   C55   A    
C12   C21   S    
C45   O5    A    
C49   C58   A    
C18   C23   S    
C12   O2    A    
C5    C9    A    
C63   H16   S    
C16   H34   S    
C68   H33   S    
H66   N10   S    
C62   H13   S    
O10   Zn2   S    
O9    Zn2   S    
C72   H50   S    
C65   N23   S    
C69   H37   S    
O7    Zn3   S    
C46   C54   A    
C32   N10   S    
C17   N18   A    
C27   N14   S    
C81   H86   S    
C4    C11   A    
C79   H79   S    
C2    C15   A    
C36   H56   S    
C65   H25   S    
C20   C48   A    
C16   N19   A    
H71   N11   S    
H49   N6    S    
C68   H32   S    
C4    C17   A    
C70   H41   S    
C24   C78   S    
C69   N3    S    
O3    Zn1   S    
C62   H10   S    
C13   H8    S    
C75   H64   S    
O8    Zn4   S    
H88   N16   S    
C42   H4    S    
C33   C42   A    
C3    C4    A    
C78   O8    A    
C32   C53   A    
H31   N2    S    
C80   N14   S    
C19   C44   A    
C26   C42   A    
C47   C55   A    
C54   C58   A    
C70   N4    S    
C24   C49   A    
H75   N13   S    
C74   H60   S    
C1    C20   S    
C33   C57   A    
O6    Zn3   S    
C80   H83   S    
C83   H94   S    
C23   O3    A    
C34   O4    A    
C67   O14   A    
C5    N12   A    
C82   H92   S    
C47   N4    S    
C64   N22   S    
C19   C34   S    
C26   C56   S    
H27   N24   S    
C6    C10   A    
C48   N3    S    
O14   Zn4   S    
C51   C60   A    
C28   C58   A    
C27   C36   A    
C76   H70   S    
C29   N16   S    
H58   N8    S    
C31   N9    S    
C83   H95   S    
C79   N13   S    
C22   C50   A    
C52   C61   A    
C43   H3    S    
C8    N22   S    
N18   Zn3   S    
H18   N22   S    
C25   C52   A    
N12   Zn2   S    
C68   H35   S    
C27   C59   A    
C26   C51   A    
C71   H46   S    
C6    N20   S    
C2    C9    A    
C62   N20   S    
C69   H38   S    
C75   H65   S    
C15   N1    A    
C10   C84   A    
C1    O1    A    
C24   C40   A    
C37   H45   S    
C56   O6    A    
C1    O16   A    
C14   N12   A    
C81   H87   S    
C31   C54   A    
C7    N19   A    
C39   H67   S    
C21   C47   A    
C65   H26   S    
O12   Zn3   S    
C76   N10   S    
C35   N13   S    
O15   Zn3   S    
C11   H7    S    
C57   C60   A    
C30   N17   S    
C82   H91   S    
C10   H6    S    
C71   H47   S    
C14   H12   S    
O5    Zn4   S    
C69   H39   S    
N19   Zn4   S    
C66   H28   S    
C50   N5    S    
C3    C16   A    
C77   H73   S    
H53   N7    S    
C23   O10   A    
