data_mof_unit_19144.cif
_audit_creation_date              2012-12-11T15:14:54-0500
_audit_creation_method            fapswitch 2.2
_symmetry_space_group_name_H-M    P1
_symmetry_Int_Tables_number       1
_space_group_crystal_system       triclinic
_cell_length_a                    11.221655
_cell_length_b                    11.075104
_cell_length_c                    18.45261
_cell_angle_alpha                 89.819862
_cell_angle_beta                  89.963056
_cell_angle_gamma                 120.44126
_cell_volume                      1977.15750596

loop_
_atom_site_label
_atom_site_type_symbol
_atom_type_description
_atom_site_fract_x
_atom_site_fract_y
_atom_site_fract_z
_atom_type_partial_charge
C1    C     C_R   0.542440 0.424836 0.636917 0.537494
C2    C     C_R   0.429147 0.541231 0.362950 0.536922
C3    C     C_R   0.459346 0.885890 0.137804 0.525643
C4    C     C_R   0.061864 0.540903 0.354841 0.553277
C5    C     C_3   0.377532 0.970385 0.482314 -0.024102
C6    C     C_3   0.611615 0.522803 0.037255 -0.034138
C7    C     C_3   0.976602 0.375692 0.477194 -0.024821
C8    C     C_3   0.515730 0.085401 0.040636 -0.025006
C9    C     C_3   0.614756 0.593892 0.469315 -0.022421
C10   C     C_3   0.940049 0.391412 0.040635 -0.014338
C11   C     C_3   0.017458 0.401558 0.970484 -0.022135
C12   C     C_R   0.887008 0.457666 0.862875 0.536818
C13   C     C_3   0.548510 0.603154 0.540032 -0.012780
C14   C     C_3   0.404166 0.018908 0.982106 -0.027307
C15   C     C_3   0.080386 0.466790 0.535016 -0.030873
C16   C     C_3   0.604911 0.616780 0.978473 -0.024318
C17   C     C_3   0.414249 0.892826 0.539054 -0.042831
C18   C     C_3   0.487930 0.111782 0.512365 -0.169506
C19   C     C_3   0.522078 0.390735 0.990326 -0.131394
C20   C     C_3   0.865279 0.397898 0.512076 -0.174984
C21   C     C_3   0.624250 0.088291 0.987960 -0.123487
C22   C     C_3   0.591470 0.449822 0.492490 -0.186713
C23   C     C_R   0.550118 0.073530 0.642717 0.556352
C24   C     C_3   0.867730 0.460937 0.003132 -0.146216
C25   C     C_3   0.136920 0.545335 0.993783 -0.186396
C26   C     C_3   0.405799 0.533176 0.503819 -0.147342
C27   C     C_3   0.367310 0.872662 0.007573 -0.179918
C28   C     C_3   0.126677 0.599633 0.487650 -0.129526
C29   C     C_3   0.472399 0.600023 0.011926 -0.172791
C30   C     C_3   0.523316 0.893986 0.487302 -0.128050
C31   C     C_3   0.524853 0.032773 0.567581 0.037038
C32   C     C_3   0.514038 0.486600 0.931915 0.028765
C33   C     C_3   0.971784 0.492887 0.568049 0.037782
C34   C     C_R   0.522181 0.456294 0.856000 0.552801
C35   C     C_3   0.510500 0.018063 0.929816 0.033172
C36   C     C_3   0.523080 0.459265 0.562741 0.030831
C37   C     C_3   0.947859 0.474263 0.933944 0.029053
C38   C     C_3   0.057139 0.535635 0.063321 0.032858
C39   C     C_3   0.471956 0.521587 0.433930 0.027726
C40   C     C_3   0.480678 0.939745 0.064396 0.033060
C41   C     C_3   0.019567 0.506887 0.430268 0.027833
C42   C     C_3   0.478901 0.503568 0.069066 0.036467
C43   C     C_3   0.487638 0.974149 0.430865 0.033051
C44   C     C_3   0.635112 0.036223 0.516866 -0.091450
C45   C     C_R   0.931663 0.478958 0.643601 0.573991
C46   C     C_3   0.382034 0.468714 0.965039 -0.132707
C47   C     C_3   0.015353 0.623709 0.521850 -0.083224
C48   C     C_3   0.474705 0.872580 0.954375 -0.145887
C49   C     C_3   0.380219 0.387357 0.526419 -0.090757
C50   C     C_3   0.066126 0.617412 0.956241 -0.126871
C51   C     C_3   0.986709 0.607159 0.025854 -0.092323
C52   C     C_3   0.447896 0.378160 0.456104 -0.128912
C53   C     C_3   0.588620 0.941109 0.012766 -0.098989
C54   C     C_3   0.909720 0.530249 0.464487 -0.133097
C55   C     C_3   0.388484 0.373112 0.023590 -0.081884
C56   C     C_R   0.544942 0.066883 0.855842 0.541924
C57   C     C_3   0.597811 0.114623 0.460062 -0.150012
C58   C     C_1   0.242121 0.946401 0.459784 0.201839
C59   C     C_1   0.715840 0.558918 0.094273 0.208798
C60   C     C_1   0.959615 0.244499 0.448595 0.200374
C61   C     C_1   0.533216 0.184403 0.098082 0.214837
C62   C     C_1   0.739035 0.712980 0.437849 0.211776
C63   C     C_1   0.877482 0.271479 0.090768 0.228426
C64   C     C_1   0.025440 0.284241 0.939260 0.211161
C65   C     C_1   0.605868 0.723299 0.589600 0.230469
C66   C     C_1   0.295635 0.048906 0.961674 0.201258
C67   C     C_R   0.453062 0.520498 0.144023 0.567022
C68   C     C_1   0.144497 0.423071 0.590836 0.211847
C69   C     C_1   0.723440 0.745479 0.949955 0.201157
C70   C     C_1   0.331302 0.792613 0.596251 0.187164
C71   C     C_R   0.477716 0.932786 0.355836 0.548792
C72   C     C_R   0.113731 0.572950 0.136729 0.528312
Cr1   Cr    Cr6+3 0.769930 0.543130 0.750000 1.068958
Cr2   Cr    Cr6+3 0.773200 0.230070 0.750000 1.073898
Cr3   Cr    Cr6+3 0.456870 0.226800 0.750000 1.065223
Cr4   Cr    Cr6+3 0.543130 0.769930 0.250000 1.073541
Cr5   Cr    Cr6+3 0.230070 0.773200 0.250000 1.066856
Cr6   Cr    Cr6+3 0.226800 0.456870 0.250000 1.065131
H1    H     H_    0.739638 0.061518 0.534565 0.167501
H2    H     H_    0.847047 0.555428 0.428302 0.148355
H3    H     H_    0.300387 0.275460 0.045940 0.167175
H4    H     H_    0.668120 0.201491 0.423434 0.132935
H5    H     H_    0.465572 0.191299 0.532334 0.118677
H6    H     H_    0.540469 0.306985 0.971916 0.097058
H7    H     H_    0.765531 0.318976 0.535568 0.105188
H8    H     H_    0.727624 0.174899 0.972823 0.117788
H9    H     H_    0.650376 0.399049 0.481984 0.105513
H10   H     H_    0.755764 0.409519 0.002950 0.093076
H11   H     H_    0.247360 0.591462 0.987623 0.103892
H12   H     H_    0.295185 0.446727 0.928712 0.147128
H13   H     H_    0.342976 0.582112 0.506069 0.097686
H14   H     H_    0.264328 0.799320 0.028377 0.116005
H15   H     H_    0.229348 0.679548 0.467342 0.099318
H16   H     H_    0.449852 0.677453 0.034628 0.095968
H17   H     H_    0.539061 0.808395 0.469346 0.116751
H18   H     H_    0.029643 0.723168 0.544005 0.165246
H19   H     H_    0.456774 0.787849 0.916122 0.135783
H20   H     H_    0.284733 0.293591 0.546124 0.166205
H21   H     H_    0.118828 0.710790 0.920303 0.162822
H22   H     H_    0.982048 0.699155 0.045583 0.164978
H23   H     H_    0.406519 0.284667 0.420598 0.161027
H24   H     H_    0.666003 0.912682 0.029646 0.160451
N1    N     N_1   0.136163 0.929308 0.441473 -0.243405
N2    N     N_1   0.190545 0.389589 0.637523 -0.238576
N3    N     N_1   0.817118 0.846725 0.927342 -0.240656
N4    N     N_1   0.268825 0.717773 0.643277 -0.267210
N5    N     N_1   0.792959 0.586276 0.141574 -0.236477
N6    N     N_1   0.946728 0.141326 0.425836 -0.240539
N7    N     N_1   0.545612 0.259212 0.144816 -0.259385
N8    N     N_1   0.836175 0.807197 0.412654 -0.215068
N9    N     N_1   0.829730 0.177814 0.130701 -0.236275
N10   N     N_1   0.030546 0.191374 0.914241 -0.216301
N11   N     N_1   0.651602 0.816818 0.629244 -0.250368
N12   N     N_1   0.208949 0.070628 0.944965 -0.243264
O1    O     O_R   0.913270 0.574260 0.668550 -0.510213
O2    O     O_R   0.574260 0.913270 0.331450 -0.491728
O3    O     O_R   0.086730 0.660990 0.168550 -0.488858
O4    O     O_R   0.339010 0.425740 0.331450 -0.493778
O5    O     O_R   0.640160 0.530400 0.673300 -0.486889
O6    O     O_R   0.890240 0.359840 0.826700 -0.490274
O7    O     O_R   0.469600 0.109760 0.673300 -0.518157
O8    O     O_R   0.640160 0.530400 0.826700 -0.505702
O9    O     O_R   0.890240 0.359840 0.673300 -0.498438
O10   O     O_R   0.469600 0.109760 0.826700 -0.501555
O11   O     O_R   0.530400 0.640160 0.173300 -0.508100
O12   O     O_R   0.660990 0.086730 0.831450 -0.496180
O13   O     O_R   0.359840 0.890240 0.326700 -0.498677
O14   O     O_R   0.109760 0.469600 0.173300 -0.488094
O15   O     O_R   0.530400 0.640160 0.326700 -0.490391
O16   O     O_R   0.359840 0.890240 0.173300 -0.502615
O17   O     O_R   0.109760 0.469600 0.326700 -0.505084
O18   O     O_3   0.666667 0.333333 0.750000 -0.339457
O19   O     O_3   0.333333 0.666667 0.250000 -0.347446
O20   O     O_R   0.425740 0.339010 0.668550 -0.485936
O21   O     O_R   0.913270 0.574260 0.831450 -0.494515
O22   O     O_R   0.660990 0.086730 0.668550 -0.494738
O23   O     O_R   0.425740 0.339010 0.831450 -0.482043
O24   O     O_R   0.574260 0.913270 0.168550 -0.478169
O25   O     O_R   0.086730 0.660990 0.331450 -0.482672
O26   O     O_R   0.339010 0.425740 0.168550 -0.511482

loop_
_geom_bond_atom_site_label_1
_geom_bond_atom_site_label_2
_ccdc_geom_bond_type
C27   C48   S    
C28   C47   S    
C13   C26   S    
Cr1   O5    S    
Cr2   O18   S    
C29   C42   S    
C3    O16   A    
C33   C45   S    
C10   C63   S    
C61   N7    T    
C2    O4    A    
Cr3   O20   S    
C23   O7    A    
C13   C65   S    
C45   O9    A    
C48   H19   S    
C50   H21   S    
C5    C58   S    
C72   O14   A    
C56   O10   A    
Cr6   O4    S    
Cr5   O3    S    
C67   O11   A    
C29   H16   S    
C42   C55   S    
C9    C22   S    
C64   N10   T    
C5    C17   S    
C4    C41   S    
C19   C32   S    
C28   C41   S    
C9    C39   S    
C2    O15   A    
C1    O5    A    
C12   C37   S    
C11   C37   S    
C9    C13   S    
C25   C50   S    
C49   H20   S    
C12   O6    A    
C2    C39   S    
Cr1   O21   S    
C12   O21   A    
Cr2   O22   S    
C46   C55   S    
C8    C14   S    
C47   H18   S    
C56   O12   A    
C14   C27   S    
C55   H3    S    
C53   H24   S    
C60   N6    T    
C8    C61   S    
C32   C46   S    
C24   C51   S    
C7    C15   S    
Cr2   O9    S    
C5    C43   S    
Cr1   O18   S    
Cr6   O14   S    
C17   C70   S    
C34   O8    A    
C17   C30   S    
C30   C44   S    
Cr5   O19   S    
C35   C48   S    
C18   C31   S    
C24   C37   S    
C4    O17   A    
C54   H2    S    
C46   H12   S    
C48   C53   S    
C38   C72   S    
C52   H23   S    
C31   C44   S    
C9    C62   S    
C68   N2    T    
C13   C36   S    
C20   C54   S    
C11   C64   S    
C70   N4    T    
C26   C49   S    
C14   C35   S    
C69   N3    T    
C5    C18   S    
C71   O13   A    
C50   C51   S    
C16   C29   S    
C59   N5    T    
Cr3   O10   S    
Cr6   O26   S    
C28   H15   S    
C32   C34   S    
C72   O3    A    
Cr6   O17   S    
C30   H17   S    
C6    C19   S    
C25   C38   S    
Cr4   O15   S    
C45   O1    A    
C18   C57   S    
C62   N8    T    
C44   C57   S    
C49   C52   S    
C20   H7    S    
C18   H5    S    
C14   C66   S    
C27   H14   S    
C3    O24   A    
C22   H9    S    
C67   O26   A    
C24   H10   S    
C47   C54   S    
C21   C35   S    
C20   C33   S    
C23   O22   A    
C3    C40   S    
C40   C53   S    
Cr3   O23   S    
C42   C67   S    
C17   C31   S    
C30   C43   S    
C65   N11   T    
C1    O20   A    
C7    C60   S    
Cr2   O6    S    
Cr3   O18   S    
C22   C52   S    
C19   C55   S    
C51   H22   S    
C21   H8    S    
C43   C71   S    
C66   N12   T    
C27   C40   S    
C35   C56   S    
Cr3   O7    S    
Cr4   O11   S    
C6    C59   S    
Cr1   O8    S    
C44   H1    S    
C16   C69   S    
Cr5   O25   S    
Cr5   O13   S    
Cr4   O19   S    
C38   C51   S    
Cr4   O24   S    
C16   C32   S    
C22   C36   S    
C34   O23   A    
C25   H11   S    
Cr1   O1    S    
C29   C46   S    
C10   C38   S    
C10   C24   S    
C26   H13   S    
C4    O25   A    
C21   C53   S    
C37   C50   S    
C15   C28   S    
Cr2   O12   S    
C33   C47   S    
C15   C68   S    
Cr4   O2    S    
C71   O2    A    
C39   C52   S    
Cr5   O16   S    
C7    C41   S    
C63   N9    T    
C26   C39   S    
Cr6   O19   S    
C41   C54   S    
C10   C11   S    
C43   C57   S    
C6    C16   S    
C7    C20   S    
C6    C42   S    
C8    C21   S    
C11   C25   S    
C57   H4    S    
C58   N1    T    
C8    C40   S    
C15   C33   S    
C36   C49   S    
C19   H6    S    
C1    C36   S    
C23   C31   S    
