data_mof_unit_67640.cif
_audit_creation_date              2012-12-10T19:03:06-0500
_audit_creation_method            fapswitch 2.2
_symmetry_space_group_name_H-M    P1
_symmetry_Int_Tables_number       1
_space_group_crystal_system       triclinic
_cell_length_a                    10.841772
_cell_length_b                    10.82633
_cell_length_c                    9.62192
_cell_angle_alpha                 88.25323
_cell_angle_beta                  89.616707
_cell_angle_gamma                 89.368617
_cell_volume                      1128.77210486

loop_
_atom_site_label
_atom_site_type_symbol
_atom_type_description
_atom_site_fract_x
_atom_site_fract_y
_atom_site_fract_z
_atom_type_partial_charge
C1    C     C_R   0.506648 0.262400 0.501347 0.765763
C2    C     C_3   0.877903 0.508911 0.502733 -0.059738
C3    C     C_3   0.924795 0.638541 0.549477 -0.210749
C4    C     C_3   0.928577 0.484175 0.356821 -0.288745
C5    C     C_R   0.542849 0.057123 0.621910 0.022947
C6    C     C_R   0.525043 0.128930 0.500758 -0.139071
C7    C     C_R   0.529003 0.067467 0.373267 -0.215029
C8    C     C_R   0.523389 0.938696 0.370731 -0.160424
C9    C     C_R   0.513577 0.869985 0.496149 -0.079788
C10   C     C_R   0.529646 0.931478 0.619447 0.042811
C11   C     C_3   0.471759 0.921107 0.760263 -0.505282
C12   C     C_R   0.260240 0.506292 0.499156 0.781293
C13   C     C_3   0.496378 0.059670 0.769401 0.307610
C14   C     C_R   0.581917 0.569819 0.069766 0.062629
C15   C     C_R   0.415460 0.434075 0.076683 0.512606
C16   C     C_R   0.414625 0.436516 0.927846 -0.128012
C17   C     C_R   0.579805 0.572615 0.922670 0.146869
C18   C     C_3   0.716237 0.567163 0.908931 -0.543907
C19   C     C_3   0.719942 0.556683 0.066214 0.295752
C20   C     C_R   0.500600 0.737353 0.498435 0.820380
C21   C     C_R   0.739686 0.502591 0.500425 0.807038
C22   C     C_3   0.073930 0.422370 0.612695 -0.361093
C23   C     C_3   0.931975 0.408188 0.605915 -0.162612
C24   C     C_3   0.070779 0.649953 0.526070 0.397765
C25   C     C_3   0.068599 0.466853 0.354669 -0.256686
C26   C     C_3   0.121793 0.514301 0.496227 -0.082347
Cu1   Cu    Cu3+1 0.499990 0.499980 0.640670 0.955024
Cu2   Cu    Cu3+1 0.500010 0.500020 0.359330 0.991749
H1    H     H_    0.098296 0.457196 0.716614 0.211809
H2    H     H_    0.900211 0.561748 0.285629 0.256481
H3    H     H_    0.530287 0.118083 0.275269 0.144542
H4    H     H_    0.520777 0.894387 0.271372 0.164081
H5    H     H_    0.372502 0.899442 0.755168 0.180329
H6    H     H_    0.521175 0.858550 0.833742 0.202421
H7    H     H_    0.410480 0.115703 0.779461 0.105120
H8    H     H_    0.121856 0.331431 0.605527 0.184009
H9    H     H_    0.346121 0.385182 0.873515 0.150243
H10   H     H_    0.749043 0.485726 0.854070 0.205776
H11   H     H_    0.754572 0.654578 0.866107 0.155940
H12   H     H_    0.764082 0.638213 0.111566 0.150794
H13   H     H_    0.896474 0.424432 0.712076 0.113230
H14   H     H_    0.907430 0.637431 0.663502 0.108937
H15   H     H_    0.090268 0.366131 0.351536 0.204549
H16   H     H_    0.887359 0.398378 0.322161 0.230405
N1    N     N_R   0.500800 0.500930 0.147930 -0.222552
N2    N     N_R   0.500800 0.500890 0.852020 -0.198820
O1    O     O_R   0.500000 0.319640 0.618810 -0.586302
O2    O     O_R   0.500010 0.319680 0.381230 -0.576704
O3    O     O_R   0.317690 0.499960 0.618790 -0.548079
O4    O     O_R   0.317700 0.500000 0.381210 -0.581628
O5    O     O_R   0.499990 0.680320 0.618770 -0.566842
O6    O     O_R   0.500000 0.680360 0.381190 -0.583481
O7    O     O_R   0.682300 0.500000 0.618790 -0.615922
O8    O     O_R   0.682310 0.500040 0.381210 -0.528385
C27   C     C_2   0.111262 0.733449 0.403272 0.234857
H17   H     H_    0.208612 0.754077 0.391327 0.064287
O9    O     O_2   0.040005 0.775440 0.315781 -0.555711
C28   C     C_2   0.848959 0.749190 0.495357 0.390064
H18   H     H_    0.845394 0.833333 0.553520 0.059240
O10   O     O_2   0.791986 0.746625 0.386467 -0.536605
O11   O     O_3   0.584330 0.088889 0.873667 -0.623288
C29   C     C_3   0.709379 0.052452 0.848666 0.096318
H19   H     H_    0.768231 0.118618 0.901245 0.152037
H20   H     H_    0.739760 0.061685 0.738639 0.121093
C30   C     C_3   0.737630 0.921353 0.906957 -0.385118
H21   H     H_    0.671118 0.895593 0.991135 0.236692
H22   H     H_    0.728537 0.856924 0.820313 0.188477
C31   C     C_3   0.867557 0.906002 0.965616 -0.896757
H23   H     H_    0.935485 0.956935 0.900122 0.237738
H24   H     H_    0.894270 0.806690 0.970081 0.260295
H25   H     H_    0.870025 0.939488 0.073128 0.295460
O12   O     O_3   0.326034 0.369326 0.150029 -0.585237
C32   C     C_3   0.338849 0.240452 0.133142 0.051318
H26   H     H_    0.338080 0.197777 0.239293 0.188467
H27   H     H_    0.426345 0.211312 0.080950 0.125172
C33   C     C_3   0.228173 0.190291 0.055844 -0.367038
H28   H     H_    0.143100 0.236946 0.092001 0.264774
H29   H     H_    0.238096 0.209933 0.942509 0.196664
C34   C     C_3   0.215538 0.051016 0.082045 -0.907509
H30   H     H_    0.298122 0.001624 0.041828 0.257947
H31   H     H_    0.132393 0.017742 0.028690 0.261762
H32   H     H_    0.204791 0.029110 0.195036 0.275672
O13   O     O_3   0.768042 0.444199 0.126400 -0.574413
C35   C     C_3   0.738755 0.333243 0.060346 0.143701
H33   H     H_    0.800248 0.320657 0.969054 0.130098
H34   H     H_    0.641733 0.331959 0.025529 0.109616
C36   C     C_3   0.758342 0.223421 0.162722 -0.364364
H35   H     H_    0.727860 0.248666 0.268696 0.238119
H36   H     H_    0.700917 0.145117 0.130877 0.199172
C37   C     C_3   0.892636 0.178940 0.166952 -0.772079
H37   H     H_    0.923484 0.149029 0.063138 0.223745
H38   H     H_    0.902248 0.100272 0.242989 0.277479
H39   H     H_    0.954851 0.252879 0.197550 0.275386
C38   C     C_2   0.890685 0.278867 0.572410 0.300301
H40   H     H_    0.798454 0.250126 0.602256 0.061083
O14   O     O_2   0.956892 0.207624 0.509225 -0.572697
O15   O     O_3   0.131523 0.690246 0.648464 -0.628952
C39   C     C_3   0.092511 0.806616 0.700301 0.032310
H41   H     H_    0.131861 0.811257 0.806296 0.194669
H42   H     H_    0.991885 0.813522 0.716497 0.117137
C40   C     C_3   0.139365 0.919132 0.613798 -0.374770
H43   H     H_    0.233884 0.900327 0.574179 0.214419
H44   H     H_    0.077442 0.937994 0.524108 0.252939
C41   C     C_3   0.141183 0.036632 0.697192 -0.894183
H45   H     H_    0.046167 0.064308 0.727407 0.272426
H46   H     H_    0.182379 0.112477 0.632712 0.264456
H47   H     H_    0.197794 0.022750 0.791606 0.241109
C42   C     C_2   0.116754 0.520745 0.216837 0.506375
H48   H     H_    0.184646 0.593190 0.210696 0.105285
O16   O     O_2   0.078432 0.481774 0.107570 -0.556144

loop_
_geom_bond_atom_site_label_1
_geom_bond_atom_site_label_2
_ccdc_geom_bond_type
C8    C9    A    
C27   H17   S    
C3    H14   S    
C40   H43   S    
C22   H1    S    
Cu2   O6    S    
C32   H26   S    
C33   C34   S    
C36   H35   S    
C25   H15   S    
C41   H46   S    
C12   O3    A    
C7    C8    A    
C24   C27   S    
C15   O12   S    
C33   H29   S    
C35   H34   S    
C13   H7    S    
C20   O5    A    
C5    C6    A    
C28   O10   D    
C15   C16   A    
O15   C39   S    
C42   H48   S    
C18   C19   S    
C29   H20   S    
Cu2   O4    S    
C31   H23   S    
C30   H22   S    
C35   C36   S    
C9    C10   A    
C5    C13   S    
C16   H9    S    
C40   H44   S    
C32   H27   S    
C14   C17   A    
C3    C24   S    
C38   H40   S    
C19   O13   S    
C41   H45   S    
Cu1   O5    S    
C4    C25   S    
C14   N1    A    
C33   H28   S    
Cu2   N1    S    
C7    H3    S    
C24   O15   S    
C8    H4    S    
C11   H5    S    
C17   N2    A    
C10   C11   S    
C16   N2    A    
C34   H31   S    
Cu2   O8    S    
C1    O1    A    
C4    H16   S    
C28   H18   S    
C1    C6    S    
C12   C26   S    
C2    C4    S    
C18   H11   S    
C29   H19   S    
C9    C20   S    
C37   H38   S    
O13   C35   S    
C30   C31   S    
C2    C21   S    
C17   C18   S    
C35   H33   S    
C38   O14   D    
Cu1   N2    S    
C39   H41   S    
C40   C41   S    
C39   H42   S    
C36   H36   S    
C32   C33   S    
C15   N1    A    
Cu1   Cu2   S    
C37   H39   S    
Cu1   O1    S    
Cu2   O2    S    
C29   C30   S    
C14   C19   S    
C11   H6    S    
C24   C26   S    
O12   C32   S    
C34   H32   S    
C12   O4    A    
Cu1   O7    S    
C1    O2    A    
C6    C7    A    
C39   C40   S    
C22   H8    S    
C23   H13   S    
C23   C38   S    
C27   O9    D    
C2    C3    S    
C25   C26   S    
C5    C10   A    
C20   O6    A    
C21   O7    A    
C11   C13   S    
C37   H37   S    
C21   O8    A    
C31   H25   S    
C42   O16   D    
C18   H10   S    
O11   C29   S    
C19   H12   S    
C34   H30   S    
C3    C28   S    
C13   O11   S    
C31   H24   S    
C30   H21   S    
C22   C26   S    
C36   C37   S    
C2    C23   S    
C22   C23   S    
C41   H47   S    
C4    H2    S    
Cu1   O3    S    
C25   C42   S    
