data_mof_unit_65549.cif
_audit_creation_date              2012-12-10T18:21:59-0500
_audit_creation_method            fapswitch 2.2
_symmetry_space_group_name_H-M    P1
_symmetry_Int_Tables_number       1
_space_group_crystal_system       triclinic
_cell_length_a                    23.417673
_cell_length_b                    23.417489
_cell_length_c                    51.895477
_cell_angle_alpha                 89.991546
_cell_angle_beta                  89.838583
_cell_angle_gamma                 89.985577
_cell_volume                      28458.4884016

loop_
_atom_site_label
_atom_site_type_symbol
_atom_type_description
_atom_site_fract_x
_atom_site_fract_y
_atom_site_fract_z
_atom_type_partial_charge
C1    C     C_R   0.000150 0.500016 0.179251 0.791958
C2    C     C_R   0.036474 0.460562 0.609526 0.198305
C3    C     C_1   0.687051 0.187129 0.249976 0.012773
C4    C     C_1   0.812873 0.687060 0.750023 0.017360
C5    C     C_1   0.187133 0.312936 0.249976 0.012513
C6    C     C_1   0.687133 0.187056 0.749976 0.017997
C7    C     C_1   0.312862 0.812939 0.250024 0.012302
C8    C     C_1   0.231321 0.731295 0.249991 0.026726
C9    C     C_1   0.768674 0.268698 0.750009 0.025306
C10   C     C_1   0.268680 0.231294 0.250006 0.026789
C11   C     C_1   0.731325 0.768700 0.749993 0.025518
C12   C     C_1   0.768705 0.268682 0.250009 0.026780
C13   C     C_R   0.539743 0.963627 0.390445 0.177390
C14   C     C_1   0.231299 0.731324 0.749991 0.025418
C15   C     C_1   0.731293 0.768684 0.249994 0.027152
C16   C     C_1   0.268700 0.231321 0.750007 0.025845
C17   C     C_1   0.231292 0.268683 0.749993 0.027473
C18   C     C_1   0.768701 0.731321 0.250008 0.025714
C19   C     C_1   0.268707 0.768680 0.750008 0.026886
C20   C     C_1   0.731297 0.231325 0.249993 0.025431
C21   C     C_1   0.768683 0.731297 0.750008 0.027066
C22   C     C_1   0.231323 0.268698 0.249991 0.025393
C23   C     C_1   0.731321 0.231295 0.749992 0.027038
C24   C     C_R   0.536662 0.040321 0.609722 0.199157
C25   C     C_1   0.268673 0.768698 0.250008 0.025108
C26   C     C_R   0.451213 0.993125 0.054390 0.545508
C27   C     C_R   0.550757 0.988667 0.945466 0.550017
C28   C     C_R   0.020165 0.452640 0.054632 0.546029
C29   C     C_R   0.019764 0.550228 0.944914 0.548064
C30   C     C_R   0.550392 0.013994 0.054582 0.548752
C31   C     C_R   0.453211 0.017218 0.945330 0.536439
C32   C     C_R   0.996894 0.551590 0.054106 0.543383
C33   C     C_R   0.990291 0.453514 0.946348 0.582022
C34   C     C_R   0.951349 0.488001 0.554593 0.550158
C35   C     C_R   0.039045 0.535584 0.390465 0.201034
C36   C     C_R   0.049838 0.484166 0.445282 0.550067
C37   C     C_R   0.523881 0.953084 0.554795 0.547421
C38   C     C_R   0.512480 0.050143 0.445204 0.539671
C39   C     C_R   0.050840 0.507830 0.554373 0.548736
C40   C     C_R   0.952815 0.514039 0.445556 0.536424
C41   C     C_R   0.488419 0.048309 0.554364 0.544439
C42   C     C_R   0.496846 0.950149 0.446324 0.586813
C43   C     C_R   0.553306 0.008230 0.027343 -0.061488
C44   C     C_R   0.450076 0.012261 0.972583 -0.061190
C45   C     C_R   0.005065 0.554017 0.026985 -0.066501
C46   C     C_R   0.965900 0.537822 0.609205 0.197712
C47   C     C_R   0.005372 0.449807 0.972692 -0.049529
C48   C     C_R   0.448990 0.999865 0.027229 -0.062958
C49   C     C_R   0.553385 0.994898 0.972694 -0.061763
C50   C     C_R   0.017698 0.450008 0.027232 -0.058757
C51   C     C_R   0.017102 0.553579 0.972263 -0.056368
C52   C     C_R   0.053317 0.501109 0.527214 -0.064487
C53   C     C_R   0.949789 0.507744 0.472748 -0.061607
C54   C     C_R   0.495633 0.051663 0.527212 -0.065280
C55   C     C_R   0.510837 0.948530 0.472839 -0.055200
C56   C     C_R   0.948855 0.493908 0.527348 -0.060066
C57   C     C_R   0.461069 0.032545 0.391078 0.205263
C58   C     C_R   0.052727 0.488830 0.472559 -0.058465
C59   C     C_R   0.521188 0.950041 0.527437 -0.064054
C60   C     C_R   0.508508 0.052948 0.472543 -0.059634
C61   C     C_R   0.501309 0.003880 0.013626 -0.035840
C62   C     C_R   0.501593 0.003677 0.986282 -0.032029
C63   C     C_R   0.011886 0.501936 0.013470 -0.030098
C64   C     C_R   0.011846 0.501773 0.986197 -0.045571
C65   C     C_R   0.001116 0.497619 0.513633 -0.035953
C66   C     C_R   0.001206 0.498008 0.486289 -0.032472
C67   C     C_R   0.509136 0.000884 0.513699 -0.027835
C68   C     C_R   0.468460 0.961216 0.609092 0.205918
C69   C     C_R   0.509698 0.000824 0.486398 -0.044286
C70   C     C_R   0.605776 0.005400 0.013412 -0.082776
C71   C     C_R   0.397655 0.014927 0.986501 -0.087085
C72   C     C_R   0.007162 0.606276 0.012984 -0.085942
C73   C     C_R   0.013012 0.397128 0.986050 -0.098823
C74   C     C_R   0.396807 0.004068 0.013272 -0.079005
C75   C     C_R   0.605553 0.993695 0.986666 -0.083552
C76   C     C_R   0.021178 0.397747 0.013193 -0.101632
C77   C     C_R   0.017792 0.606069 0.986131 -0.077664
C78   C     C_R   0.105547 0.496724 0.513293 -0.080148
C79   C     C_R   0.464250 0.964862 0.890942 0.203516
C80   C     C_R   0.897499 0.509774 0.486749 -0.085628
C81   C     C_R   0.490713 0.103726 0.513204 -0.085598
C82   C     C_R   0.524607 0.897290 0.486282 -0.094207
C83   C     C_R   0.896612 0.497703 0.513444 -0.082828
C84   C     C_R   0.104884 0.485582 0.486494 -0.084524
C85   C     C_R   0.530962 0.898575 0.513420 -0.098988
C86   C     C_R   0.501958 0.105023 0.486408 -0.079291
C87   C     C_2   0.661942 0.011375 0.026254 0.487895
C88   C     C_2   0.342560 0.026596 0.973596 0.495663
C89   C     C_2   0.001486 0.662062 0.026060 0.490684
C90   C     C_R   0.535871 0.963689 0.109142 0.205894
C91   C     C_2   0.018061 0.341075 0.972344 0.512374
C92   C     C_2   0.340390 0.003684 0.026279 0.484848
C93   C     C_2   0.661044 0.983707 0.973738 0.493308
C94   C     C_2   0.033724 0.343080 0.026397 0.503211
C95   C     C_2   0.025015 0.662008 0.973103 0.488237
C96   C     C_2   0.161613 0.498447 0.526355 0.482154
C97   C     C_2   0.842553 0.521398 0.473948 0.494602
C98   C     C_2   0.476570 0.158127 0.526132 0.492361
C99   C     C_2   0.537523 0.842770 0.472549 0.532969
C100  C     C_2   0.840100 0.493048 0.526294 0.489650
C101  C     C_R   0.034248 0.459853 0.890466 0.187347
C102  C     C_2   0.159912 0.473191 0.473619 0.495494
C103  C     C_2   0.547953 0.845378 0.526691 0.497701
C104  C     C_2   0.503051 0.161501 0.473451 0.488240
C105  C     C_3   0.943095 0.378431 0.416692 -0.642298
C106  C     C_3   0.050400 0.371315 0.585417 -0.627403
C107  C     C_3   0.627767 0.952950 0.415010 -0.569521
C108  C     C_3   0.623582 0.065022 0.585835 -0.633534
C109  C     C_3   0.059510 0.621473 0.415177 -0.629622
C110  C     C_3   0.953868 0.626013 0.584431 -0.625949
C111  C     C_3   0.373605 0.042954 0.416801 -0.633560
C112  C     C_R   0.999878 0.499988 0.820703 0.789712
C113  C     C_R   0.041616 0.537885 0.109842 0.193022
C114  C     C_3   0.385699 0.937319 0.582249 -0.648636
C115  C     C_3   0.445572 0.879079 0.916891 -0.631203
C116  C     C_3   0.549087 0.877613 0.082547 -0.642682
C117  C     C_3   0.120793 0.436460 0.915291 -0.592631
C118  C     C_3   0.131644 0.552390 0.086954 -0.613558
C119  C     C_3   0.558111 0.125253 0.914062 -0.634784
C120  C     C_3   0.450403 0.128926 0.085831 -0.622008
C121  C     C_3   0.880343 0.561665 0.916108 -0.645703
C122  C     C_3   0.880349 0.454307 0.081199 -0.646259
C123  C     C_2   0.919333 0.428790 0.348911 0.460552
C124  C     C_R   0.539531 0.037616 0.890196 0.198880
C125  C     C_2   0.077182 0.423451 0.651432 0.462534
C126  C     C_2   0.578339 0.925166 0.348312 0.455761
C127  C     C_2   0.568994 0.083871 0.651899 0.460499
C128  C     C_2   0.080700 0.571372 0.348286 0.449837
C129  C     C_2   0.925243 0.577181 0.650790 0.458867
C130  C     C_2   0.420787 0.072621 0.349697 0.459758
C131  C     C_2   0.431663 0.917731 0.650667 0.457277
C132  C     C_2   0.421359 0.927317 0.849567 0.459574
C133  C     C_2   0.576376 0.924422 0.150694 0.460734
C134  C     C_2   0.067571 0.415744 0.848379 0.459268
C135  C     C_R   0.464146 0.039885 0.109650 0.197024
C136  C     C_2   0.076805 0.577740 0.152226 0.458069
C137  C     C_2   0.580820 0.072352 0.847783 0.451742
C138  C     C_2   0.422922 0.076055 0.151740 0.458953
C139  C     C_2   0.929880 0.581866 0.848794 0.448715
C140  C     C_2   0.924137 0.425565 0.149861 0.458375
C141  C     C_R   0.965499 0.539134 0.890772 0.209175
C142  C     C_R   0.965215 0.466565 0.108655 0.205755
C143  C     C_R   0.961600 0.464378 0.363319 -0.103929
C144  C     C_R   0.037102 0.461308 0.636880 -0.104395
C145  C     C_R   0.539082 0.963554 0.363080 -0.111119
C146  C     C_R   0.535431 0.040687 0.637085 -0.104444
C147  C     C_R   0.039018 0.535684 0.363080 -0.108128
C148  C     C_R   0.500025 0.000048 0.179290 0.792314
C149  C     C_R   0.964921 0.538185 0.636559 -0.108315
C150  C     C_R   0.460615 0.033703 0.363725 -0.105419
C151  C     C_R   0.466925 0.960746 0.636470 -0.103387
C152  C     C_R   0.463114 0.964180 0.863600 -0.105918
C153  C     C_R   0.536403 0.962921 0.136475 -0.104200
C154  C     C_R   0.033754 0.459252 0.863112 -0.105718
C155  C     C_R   0.039681 0.538011 0.137187 -0.108671
C156  C     C_R   0.539448 0.036752 0.862799 -0.108180
C157  C     C_R   0.463252 0.038703 0.136985 -0.107956
C158  C     C_R   0.964938 0.539252 0.863367 -0.109518
C159  C     C_R   0.499963 0.000017 0.820697 0.792002
C160  C     C_R   0.963511 0.465425 0.136015 -0.104300
C161  C     C_R   0.000152 0.500030 0.349476 -0.237374
C162  C     C_R   0.000715 0.499841 0.650465 -0.240953
C163  C     C_R   0.499787 0.999096 0.349611 -0.236551
C164  C     C_R   0.500621 0.000579 0.650498 -0.240708
C165  C     C_R   0.500884 0.000210 0.849487 -0.236706
C166  C     C_R   0.499804 0.000403 0.150481 -0.241081
C167  C     C_R   0.999538 0.499534 0.849511 -0.233568
C168  C     C_R   0.000872 0.501286 0.150395 -0.240386
C169  C     C_R   0.001059 0.499701 0.404255 0.190453
C170  C     C_R   0.500119 0.999983 0.679300 0.790336
C171  C     C_R   0.001157 0.498774 0.595687 0.190876
C172  C     C_R   0.501043 0.998286 0.404490 0.188610
C173  C     C_R   0.503353 0.000737 0.595742 0.190947
C174  C     C_R   0.502079 0.001610 0.904240 0.193893
C175  C     C_R   0.500278 0.002403 0.095683 0.187997
C176  C     C_R   0.000662 0.499955 0.904334 0.180266
C177  C     C_R   0.004548 0.502302 0.095552 0.194007
C178  C     C_R   0.895307 0.604729 0.250010 0.816042
C179  C     C_R   0.104691 0.395272 0.749990 0.811718
C180  C     C_R   0.395243 0.895283 0.250011 0.817263
C181  C     C_R   0.499910 0.000033 0.320746 0.792515
C182  C     C_R   0.604755 0.104715 0.749989 0.812861
C183  C     C_R   0.104753 0.395284 0.249990 0.817009
C184  C     C_R   0.895249 0.604715 0.750010 0.812959
C185  C     C_R   0.604696 0.104736 0.249989 0.816197
C186  C     C_R   0.395306 0.895265 0.750011 0.812099
C187  C     C_R   0.895243 0.395283 0.750011 0.817063
C188  C     C_R   0.104755 0.604715 0.249988 0.812291
C189  C     C_R   0.395307 0.104730 0.750010 0.815897
C190  C     C_R   0.604691 0.895272 0.249990 0.810908
C191  C     C_R   0.104695 0.604736 0.749989 0.816055
C192  C     C_R   0.000110 0.499984 0.679287 0.793134
C193  C     C_R   0.895305 0.395266 0.250012 0.811760
C194  C     C_R   0.604753 0.895284 0.749990 0.816869
C195  C     C_R   0.395248 0.104714 0.250009 0.812360
C196  C     C_1   0.149762 0.649670 0.249970 -0.147396
C197  C     C_1   0.850234 0.350325 0.750030 -0.155095
C198  C     C_1   0.350244 0.149669 0.250025 -0.148869
C199  C     C_1   0.649759 0.850325 0.749973 -0.154940
C200  C     C_1   0.850342 0.350253 0.250030 -0.148351
C201  C     C_1   0.149661 0.649753 0.749970 -0.154208
C202  C     C_1   0.649656 0.850260 0.249974 -0.147785
C203  C     C_R   0.999924 0.500003 0.320694 0.791138
C204  C     C_1   0.350340 0.149744 0.750026 -0.154017
C205  C     C_1   0.149655 0.350259 0.749974 -0.146703
C206  C     C_1   0.850340 0.649743 0.250027 -0.153960
C207  C     C_1   0.350344 0.850250 0.750029 -0.147979
C208  C     C_1   0.649660 0.149753 0.249971 -0.153831
C209  C     C_1   0.850246 0.649672 0.750027 -0.148207
C210  C     C_1   0.149759 0.350325 0.249973 -0.154733
C211  C     C_1   0.649762 0.149670 0.749971 -0.146693
C212  C     C_1   0.350233 0.850326 0.250029 -0.155053
C213  C     C_1   0.187133 0.687056 0.249974 0.017512
C214  C     C_R   0.962596 0.464139 0.390642 0.206292
C215  C     C_1   0.812863 0.312938 0.750025 0.012357
C216  C     C_1   0.312870 0.187057 0.250021 0.016882
C217  C     C_1   0.687134 0.812937 0.749978 0.012463
C218  C     C_1   0.812951 0.312878 0.250026 0.016921
C219  C     C_1   0.187052 0.687128 0.749975 0.012596
C220  C     C_1   0.687048 0.812881 0.249979 0.017220
C221  C     C_1   0.312946 0.187123 0.750022 0.012714
C222  C     C_1   0.187047 0.312880 0.749978 0.017888
C223  C     C_1   0.812946 0.687123 0.250023 0.012715
C224  C     C_1   0.312954 0.812876 0.750024 0.017175
H1    H     H_    0.691017 0.976271 0.026663 0.063389
H2    H     H_    0.811633 0.487680 0.471654 0.059761
H3    H     H_    0.509481 0.189713 0.529377 0.061427
H4    H     H_    0.532077 0.802008 0.482455 0.030467
H5    H     H_    0.811836 0.528899 0.526592 0.063351
H6    H     H_    0.192342 0.505917 0.472254 0.059848
H7    H     H_    0.516175 0.813404 0.531331 0.046156
H8    H     H_    0.466037 0.188490 0.473979 0.063260
H9    H     H_    0.880502 0.430508 0.398636 0.270466
H10   H     H_    0.932915 0.379062 0.437554 0.223669
H11   H     H_    0.921618 0.340671 0.407796 0.262013
H12   H     H_    0.311138 0.992920 0.971553 0.062256
H13   H     H_    0.990272 0.373499 0.414207 0.247502
H14   H     H_    0.116018 0.422076 0.601738 0.268730
H15   H     H_    0.052318 0.372741 0.564037 0.221316
H16   H     H_    0.076220 0.333974 0.592297 0.256141
H17   H     H_    0.004881 0.364762 0.591598 0.247554
H18   H     H_    0.583192 0.886276 0.396377 0.283143
H19   H     H_    0.618111 0.971330 0.434277 0.219229
H20   H     H_    0.661599 0.920286 0.417903 0.242632
H21   H     H_    0.644133 0.986649 0.401995 0.245213
H22   H     H_    0.565393 0.123617 0.602321 0.269167
H23   H     H_    0.039020 0.687725 0.029805 0.061242
H24   H     H_    0.622834 0.063261 0.564569 0.222300
H25   H     H_    0.655823 0.096373 0.591497 0.255108
H26   H     H_    0.636418 0.022994 0.593268 0.252853
H27   H     H_    0.120356 0.570162 0.396468 0.270671
H28   H     H_    0.025320 0.613686 0.430443 0.230303
H29   H     H_    0.096430 0.644627 0.424650 0.230946
H30   H     H_    0.041605 0.648467 0.399139 0.271222
H31   H     H_    0.887371 0.577972 0.601573 0.269238
H32   H     H_    0.962880 0.621148 0.563536 0.221152
H33   H     H_    0.923639 0.661742 0.586717 0.248191
H34   H     H_    0.010330 0.301041 0.983049 0.028544
H35   H     H_    0.994028 0.636848 0.594458 0.252891
H36   H     H_    0.419576 0.110328 0.399181 0.269719
H37   H     H_    0.377192 0.045391 0.438186 0.221940
H38   H     H_    0.334505 0.067064 0.410559 0.255644
H39   H     H_    0.368477 0.996987 0.410893 0.245390
H40   H     H_    0.439496 0.877854 0.601094 0.269225
H41   H     H_    0.388417 0.927707 0.561338 0.220412
H42   H     H_    0.348939 0.913494 0.590541 0.262378
H43   H     H_    0.377772 0.983899 0.584753 0.249861
H44   H     H_    0.382739 0.931165 0.899271 0.269049
H45   H     H_    0.314397 0.041844 0.025969 0.062541
H46   H     H_    0.442093 0.882292 0.938185 0.222246
H47   H     H_    0.419027 0.842241 0.910292 0.257037
H48   H     H_    0.491102 0.870461 0.911530 0.248391
H49   H     H_    0.615355 0.924116 0.101020 0.271357
H50   H     H_    0.559218 0.878470 0.061669 0.223889
H51   H     H_    0.567898 0.837965 0.091094 0.261033
H52   H     H_    0.501618 0.876027 0.085075 0.246970
H53   H     H_    0.064276 0.376148 0.898204 0.291012
H54   H     H_    0.121110 0.427582 0.936245 0.236171
H55   H     H_    0.156707 0.412236 0.906156 0.256978
H56   H     H_    0.690933 0.018575 0.971253 0.059221
H57   H     H_    0.128270 0.483163 0.912172 0.231852
H58   H     H_    0.081018 0.616975 0.103620 0.266493
H59   H     H_    0.128471 0.535217 0.066376 0.219194
H60   H     H_    0.163631 0.587017 0.086746 0.240923
H61   H     H_    0.145808 0.517215 0.100166 0.259274
H62   H     H_    0.620291 0.074090 0.895959 0.269595
H63   H     H_    0.525346 0.117860 0.929705 0.229965
H64   H     H_    0.594237 0.150412 0.922640 0.231915
H65   H     H_    0.538382 0.150181 0.898091 0.270931
H66   H     H_    0.384926 0.079252 0.102875 0.270757
H67   H     H_    0.000239 0.311679 0.029100 0.040155
H68   H     H_    0.466366 0.121574 0.066007 0.222480
H69   H     H_    0.417047 0.163155 0.085189 0.241050
H70   H     H_    0.486222 0.144219 0.098177 0.255271
H71   H     H_    0.932731 0.621545 0.897111 0.273735
H72   H     H_    0.888095 0.530274 0.931823 0.229076
H73   H     H_    0.856964 0.598811 0.924489 0.235810
H74   H     H_    0.853495 0.541780 0.901085 0.268005
H75   H     H_    0.925178 0.387377 0.100187 0.268990
H76   H     H_    0.881965 0.444304 0.060343 0.221429
H77   H     H_    0.840046 0.436050 0.089315 0.259922
H78   H     H_    0.992129 0.694195 0.974744 0.066190
H79   H     H_    0.879246 0.501727 0.083719 0.248360
H80   H     H_    0.903373 0.442840 0.330391 0.057220
H81   H     H_    0.094691 0.437433 0.669716 0.058391
H82   H     H_    0.564106 0.905647 0.330499 0.061279
H83   H     H_    0.554199 0.098203 0.670622 0.055962
H84   H     H_    0.096822 0.556857 0.329844 0.061817
H85   H     H_    0.906913 0.563954 0.669052 0.060956
H86   H     H_    0.433616 0.091825 0.331580 0.061632
H87   H     H_    0.444317 0.903391 0.669671 0.058234
H88   H     H_    0.404923 0.940518 0.830988 0.058720
H89   H     H_    0.187500 0.460583 0.527682 0.062955
H90   H     H_    0.593530 0.937141 0.169153 0.060957
H91   H     H_    0.053202 0.401424 0.829641 0.056875
H92   H     H_    0.061589 0.595703 0.170229 0.059427
H93   H     H_    0.597548 0.056893 0.829557 0.059615
H94   H     H_    0.404976 0.061508 0.169849 0.059920
H95   H     H_    0.944284 0.597475 0.830255 0.061202
H96   H     H_    0.936208 0.407640 0.168290 0.061341
N1    N     N_R   0.500603 0.003355 0.067603 -0.335112
N2    N     N_2   0.074183 0.424143 0.595433 -0.277263
N3    N     N_2   0.577108 0.926501 0.404203 -0.249808
N4    N     N_2   0.568262 0.082161 0.595746 -0.278857
N5    N     N_2   0.080053 0.568117 0.404504 -0.278219
N6    N     N_2   0.928780 0.574116 0.594804 -0.276589
N7    N     N_2   0.424162 0.068861 0.405609 -0.275194
N8    N     N_2   0.438197 0.919408 0.594557 -0.277254
N9    N     N_2   0.424554 0.931725 0.905569 -0.277231
N10   N     N_2   0.573675 0.927921 0.094648 -0.274047
N11   N     N_2   0.066276 0.418120 0.904552 -0.248404
N12   N     N_R   0.502059 0.002495 0.932322 -0.335104
N13   N     N_2   0.078179 0.576115 0.096214 -0.279162
N14   N     N_2   0.579865 0.071650 0.903964 -0.278313
N15   N     N_2   0.426088 0.076160 0.095707 -0.276313
N16   N     N_2   0.934042 0.581008 0.905038 -0.273362
N17   N     N_2   0.929846 0.429063 0.093806 -0.274398
N18   N     N_R   0.007105 0.502161 0.067433 -0.331233
N19   N     N_R   0.003360 0.501395 0.932433 -0.343748
N20   N     N_R   0.001162 0.498050 0.567589 -0.333509
N21   N     N_R   0.001313 0.499356 0.432328 -0.335639
N22   N     N_R   0.505075 0.000629 0.567654 -0.328431
N23   N     N_R   0.503245 0.999587 0.432565 -0.341360
N24   N     N_2   0.922349 0.430900 0.404993 -0.275224
O1    O     O_3   0.000000 0.500000 0.250000 -0.438009
O2    O     O_R   0.044090 0.500000 0.807650 -0.630446
O3    O     O_2   0.877565 0.412807 0.141077 -0.560885
O4    O     O_R   0.500000 0.955910 0.192350 -0.633096
O5    O     O_R   0.500000 0.044090 0.807650 -0.630355
O6    O     O_R   0.544090 1.000000 0.692350 -0.631666
O7    O     O_R   0.455910 0.000000 0.307650 -0.634325
O8    O     O_R   0.000000 0.544090 0.692350 -0.633037
O9    O     O_R   0.000000 0.455910 0.307650 -0.632090
O10   O     O_R   0.455910 1.000000 0.692350 -0.631547
O11   O     O_R   0.544090 0.000000 0.307650 -0.630364
O12   O     O_R   0.000000 0.455910 0.692350 -0.632501
O13   O     O_3   0.000000 0.500000 0.750000 -0.437898
O14   O     O_R   0.000000 0.544090 0.307650 -0.631295
O15   O     O_R   0.893990 0.562090 0.235170 -0.619401
O16   O     O_R   0.106010 0.437910 0.764830 -0.621128
O17   O     O_R   0.437910 0.893990 0.235170 -0.619360
O18   O     O_R   0.562090 0.106010 0.764830 -0.620942
O19   O     O_R   0.106010 0.437910 0.235170 -0.619663
O20   O     O_R   0.893990 0.562090 0.764830 -0.621461
O21   O     O_R   0.562090 0.106010 0.235170 -0.620093
O22   O     O_R   0.437910 0.893990 0.764830 -0.621979
O23   O     O_R   0.893990 0.437910 0.764830 -0.620704
O24   O     O_3   0.500000 0.000000 0.250000 -0.437866
O25   O     O_R   0.106010 0.562090 0.235170 -0.621662
O26   O     O_R   0.437910 0.106010 0.764830 -0.619801
O27   O     O_R   0.562090 0.893990 0.235170 -0.622505
O28   O     O_R   0.106010 0.562090 0.764830 -0.619879
O29   O     O_R   0.893990 0.437910 0.235170 -0.622047
O30   O     O_R   0.562090 0.893990 0.764830 -0.619640
O31   O     O_R   0.437910 0.106010 0.235170 -0.621096
O32   O     O_R   0.393990 0.062090 0.735170 -0.619976
O33   O     O_R   0.606010 0.937910 0.264830 -0.620925
O34   O     O_R   0.937910 0.393990 0.735170 -0.619019
O35   O     O_3   0.500000 1.000000 0.750000 -0.438068
O36   O     O_R   0.062090 0.606010 0.264830 -0.621249
O37   O     O_R   0.606010 0.937910 0.735170 -0.620274
O38   O     O_R   0.393990 0.062090 0.264830 -0.622474
O39   O     O_R   0.062090 0.606010 0.735170 -0.619714
O40   O     O_R   0.937910 0.393990 0.264830 -0.621471
O41   O     O_R   0.393990 0.937910 0.264830 -0.619879
O42   O     O_R   0.606010 0.062090 0.735170 -0.621775
O43   O     O_R   0.937910 0.606010 0.264830 -0.620089
O44   O     O_R   0.062090 0.393990 0.735170 -0.622256
O45   O     O_R   0.606010 0.062090 0.264830 -0.618851
O46   O     O_R   0.044090 0.500000 0.192350 -0.631729
O47   O     O_R   0.393990 0.937910 0.735170 -0.621511
O48   O     O_R   0.062090 0.393990 0.264830 -0.619815
O49   O     O_R   0.937910 0.606010 0.735170 -0.621780
O50   O     O_2   0.405221 0.975409 0.067650 -0.503290
O51   O     O_2   0.596069 0.968938 0.932080 -0.512319
O52   O     O_2   0.035208 0.406378 0.068563 -0.520419
O53   O     O_2   0.038388 0.594608 0.930785 -0.498460
O54   O     O_2   0.596456 0.029955 0.068205 -0.506877
O55   O     O_2   0.408157 0.036435 0.931741 -0.513056
O56   O     O_2   0.978509 0.597833 0.067195 -0.515478
O57   O     O_R   0.955910 0.500000 0.807650 -0.632345
O58   O     O_2   0.960424 0.411297 0.934988 -0.503733
O59   O     O_2   0.904844 0.472514 0.568212 -0.507163
O60   O     O_2   0.094776 0.464758 0.431596 -0.512795
O61   O     O_2   0.545232 0.909321 0.568625 -0.526267
O62   O     O_2   0.525000 0.096897 0.431252 -0.503052
O63   O     O_2   0.096916 0.524762 0.567568 -0.506662
O64   O     O_2   0.908015 0.534640 0.432198 -0.510936
O65   O     O_2   0.464900 0.091966 0.567579 -0.517218
O66   O     O_2   0.474770 0.903842 0.434578 -0.508942
O67   O     O_2   0.677155 0.056830 0.035118 -0.496738
O68   O     O_R   0.500000 0.044090 0.192350 -0.632242
O69   O     O_2   0.331167 0.074821 0.966447 -0.498114
O70   O     O_2   0.954376 0.680272 0.031716 -0.501809
O71   O     O_2   0.031532 0.337992 0.949241 -0.512301
O72   O     O_2   0.321167 0.960005 0.035769 -0.489852
O73   O     O_2   0.674441 0.935738 0.966981 -0.499499
O74   O     O_2   0.082183 0.332443 0.033533 -0.492975
O75   O     O_2   0.068810 0.673890 0.961823 -0.490185
O76   O     O_2   0.180098 0.542831 0.534991 -0.494855
O77   O     O_2   0.830736 0.569555 0.467129 -0.496361
O78   O     O_2   0.427404 0.168556 0.532144 -0.502014
O79   O     O_R   0.500000 0.955910 0.807650 -0.633053
O80   O     O_2   0.555768 0.842177 0.450413 -0.512062
O81   O     O_2   0.823685 0.447959 0.535219 -0.494282
O82   O     O_2   0.170163 0.425283 0.465831 -0.499832
O83   O     O_2   0.597912 0.836973 0.531993 -0.495901
O84   O     O_2   0.546654 0.179529 0.463544 -0.491007
O85   O     O_2   0.902438 0.383101 0.357282 -0.561833
O86   O     O_2   0.090411 0.376001 0.643524 -0.560305
O87   O     O_2   0.627212 0.915791 0.355541 -0.557057
O88   O     O_2   0.613953 0.103151 0.643760 -0.561553
O89   O     O_2   0.096832 0.617624 0.356210 -0.568612
O90   O     O_R   0.955910 0.500000 0.192350 -0.632505
O91   O     O_2   0.913386 0.624778 0.642655 -0.557700
O92   O     O_2   0.372978 0.082964 0.357906 -0.559524
O93   O     O_2   0.387605 0.898563 0.641680 -0.562519
O94   O     O_2   0.405629 0.881410 0.858219 -0.559827
O95   O     O_2   0.590203 0.877923 0.142167 -0.562132
O96   O     O_2   0.112128 0.395932 0.856719 -0.562652
O97   O     O_2   0.124972 0.590134 0.144974 -0.561451
O98   O     O_2   0.595698 0.119645 0.855133 -0.565863
O99   O     O_2   0.409889 0.123655 0.144117 -0.559369
O100  O     O_2   0.884233 0.599362 0.857038 -0.564139
Zn1   Zn    Zn3+2 0.000000 0.563030 0.272130 1.000453
Zn2   Zn    Zn3+2 0.500000 0.936970 0.227870 0.999612
Zn3   Zn    Zn3+2 0.936970 0.500000 0.772130 0.999745
Zn4   Zn    Zn3+2 0.063030 0.500000 0.227870 1.001329
Zn5   Zn    Zn3+2 0.500000 0.936970 0.772130 0.999476
Zn6   Zn    Zn3+2 0.500000 0.063030 0.227870 1.000719
Zn7   Zn    Zn3+2 0.063030 0.500000 0.772130 1.000210
Zn8   Zn    Zn3+2 0.936970 0.500000 0.227870 0.999421
Zn9   Zn    Zn3+2 0.000000 0.436970 0.727870 1.000366
Zn10  Zn    Zn3+2 0.436970 0.000000 0.272130 0.999682
Zn11  Zn    Zn3+2 0.563030 1.000000 0.727870 1.000001
Zn12  Zn    Zn3+2 0.000000 0.436970 0.272130 1.000183
Zn13  Zn    Zn3+2 0.000000 0.563030 0.727870 1.000037
Zn14  Zn    Zn3+2 0.563030 0.000000 0.272130 1.002208
Zn15  Zn    Zn3+2 0.436970 1.000000 0.727870 0.999054
Zn16  Zn    Zn3+2 0.500000 0.063030 0.772130 1.001466

loop_
_geom_bond_atom_site_label_1
_geom_bond_atom_site_label_2
_ccdc_geom_bond_type
C113  C177  A    
C34   C56   A    
C153  C166  A    
C108  N4    S    
C169  N21   S    
C34   O59   S    
C131  C151  S    
C194  O37   A    
C29   O53   S    
C162  C192  S    
C7    C212  T    
C115  H46   S    
O8    Zn13  S    
C150  C163  A    
C75   C93   S    
C98   O78   D    
O35   Zn16  S    
O33   Zn14  S    
C97   O77   D    
C142  C177  A    
C125  C144  S    
C27   N12   A    
C200  C218  T    
C194  O30   A    
C74   C92   S    
C116  H52   S    
C112  O2    A    
C111  H37   S    
C121  N16   S    
C76   C94   S    
C100  O81   D    
O27   Zn2   S    
C175  N1    S    
C13   C172  A    
C110  H32   S    
C26   O50   S    
H14   N2    S    
C36   N21   A    
C110  N6    S    
C32   N18   A    
C99   H4    S    
C85   C103  S    
C2    C171  A    
C195  C198  S    
C97   H2    S    
C198  C216  T    
C106  N2    S    
O57   Zn3   S    
C131  O93   D    
C107  H19   S    
C133  H90   S    
C113  C155  A    
C80   C83   A    
C12   C218  S    
O4    Zn2   S    
C158  C167  A    
C152  C165  A    
C139  H95   S    
C140  H96   S    
H40   N8    S    
C30   N1    A    
C32   O56   S    
C24   N4    S    
C48   C74   A    
C201  C219  T    
C31   C44   A    
C47   C64   A    
C60   C86   A    
C148  O68   A    
O13   Zn3   S    
O1    Zn8   S    
C131  H87   S    
C185  O21   A    
C108  H26   S    
C187  O23   A    
C179  O44   A    
O40   Zn12  S    
C5    C210  T    
C50   C76   A    
C42   C55   A    
C28   O52   S    
C12   C20   T    
C121  H74   S    
C178  O15   A    
C114  N8    S    
C189  O32   A    
C41   N22   A    
C106  H15   S    
C33   C47   A    
C154  C167  A    
C106  H17   S    
C118  N13   S    
C43   C61   A    
C56   C83   A    
O45   Zn14  S    
C94   O74   D    
C49   C62   A    
C179  O16   A    
C14   C19   T    
C190  C202  S    
C51   C64   A    
C113  N13   S    
C177  N18   S    
C128  C147  S    
C128  O89   D    
C82   C85   A    
C108  H24   S    
C91   O71   D    
C104  O84   D    
C44   C62   A    
C119  H65   S    
C107  N3    S    
C120  H70   S    
C68   C151  A    
O7    Zn10  S    
C178  C206  S    
O44   Zn9   S    
C123  O85   D    
C77   C95   S    
C180  O17   A    
C170  O10   A    
C160  C168  A    
O34   Zn9   S    
C71   C88   S    
H62   N14   S    
C89   H23   S    
C135  N15   S    
C102  H6    S    
C105  H13   S    
O13   Zn13  S    
C149  C162  A    
C191  C201  S    
C67   C69   A    
C186  O22   A    
C143  C161  A    
C54   C81   A    
C52   C65   A    
O13   Zn7   S    
C40   N21   A    
C15   C18   T    
C179  C205  S    
C135  C157  A    
C80   C97   S    
C163  C181  S    
C2    C144  A    
C164  C170  S    
C13   C145  A    
C86   C104  S    
C173  N22   S    
C79   N9    S    
C184  C209  S    
C88   O69   D    
C9    C215  S    
C28   N18   A    
C34   N20   A    
C100  H5    S    
C114  H42   S    
H66   N15   S    
C115  H47   S    
C124  C174  A    
O46   Zn4   S    
C1    O46   A    
C109  H30   S    
C99   O80   D    
C202  C220  T    
C189  O26   A    
C180  C212  S    
O5    Zn16  S    
C118  H61   S    
C142  N17   S    
C59   C67   A    
C26   N1    A    
H27   N5    S    
O2    Zn7   S    
C37   O61   S    
O19   Zn4   S    
C130  C150  S    
C49   C75   A    
O20   Zn3   S    
C30   O54   S    
C38   N23   A    
O12   Zn9   S    
C138  O99   D    
H44   N9    S    
C50   C63   A    
O9    Zn12  S    
C137  H93   S    
C70   C87   S    
O24   Zn10  S    
O36   Zn1   S    
C126  C145  S    
C103  H7    S    
H58   N13   S    
C89   O70   D    
C53   C80   A    
C78   C96   S    
C136  C155  S    
C129  H85   S    
C184  O20   A    
O47   Zn15  S    
C6    C211  T    
C145  C163  A    
C124  N14   S    
C112  C167  S    
C146  C164  A    
C11   C21   T    
C132  H88   S    
C4    C209  T    
C159  C165  S    
C116  N10   S    
C59   C85   A    
C129  C149  S    
C117  H54   S    
C171  N20   S    
C136  O97   D    
C172  N23   S    
O39   Zn13  S    
C187  O34   A    
C141  N16   S    
O21   Zn6   S    
C105  N24   S    
C55   C69   A    
C129  O91   D    
C138  H94   S    
C38   C60   A    
C29   N19   A    
O11   Zn14  S    
H49   N10   S    
C182  O18   A    
C192  O8    A    
C119  H63   S    
C98   H3    S    
C29   C51   A    
O1    Zn12  S    
C94   H67   S    
C36   O60   S    
C81   C86   A    
C68   C173  A    
O35   Zn15  S    
O31   Zn6   S    
H71   N16   S    
C123  H80   S    
C118  H59   S    
C54   C67   A    
O29   Zn8   S    
C140  C160  S    
C10   C216  S    
C60   C69   A    
C191  O28   A    
O16   Zn7   S    
C125  H81   S    
C61   C62   A    
O48   Zn12  S    
C63   C64   A    
C46   C149  A    
O37   Zn11  S    
C151  C164  A    
C70   C75   A    
O32   Zn15  S    
C134  H91   S    
H36   N7    S    
C27   C49   A    
C79   C152  A    
O23   Zn3   S    
C95   O75   D    
C148  C166  S    
C82   C99   S    
C199  C217  T    
C176  N19   S    
C93   O73   D    
C68   N8    S    
C10   C22   T    
C183  C210  S    
C33   N19   A    
C128  H84   S    
O35   Zn11  S    
C130  H86   S    
C182  O42   A    
C87   O67   D    
C81   C98   S    
C205  C222  T    
C84   C102  S    
C13   N3    S    
C127  O88   D    
C193  O29   A    
C9    C23   T    
C117  N11   S    
C195  O31   A    
C16   C17   T    
C141  C176  A    
C121  H73   S    
O24   Zn14  S    
C11   C217  S    
C109  N5    S    
C26   C48   A    
C92   O72   D    
C57   C172  A    
C132  O94   D    
C37   C59   A    
C174  N12   S    
H9    N24   S    
C106  H16   S    
C8    C25   T    
O79   Zn5   S    
C79   C174  A    
C107  H21   S    
C16   C221  S    
C52   C78   A    
C24   C173  A    
C133  O95   D    
O43   Zn1   S    
C189  C204  S    
H18   N3    S    
C122  H79   S    
O10   Zn15  S    
C190  O27   A    
C47   C73   A    
C8    C213  S    
C147  C161  A    
O41   Zn10  S    
C188  O36   A    
C1    C168  S    
O90   Zn8   S    
C90   C175  A    
C38   O62   S    
C136  H92   S    
C102  O82   D    
C116  H51   S    
C51   C77   A    
C111  H38   S    
C203  O9    A    
C155  C168  A    
C127  H83   S    
C3    C20   S    
C35   N5    S    
C188  O25   A    
C115  N9    S    
C42   O66   S    
C35   C169  A    
C73   C76   A    
O26   Zn16  S    
C14   C219  S    
C178  O43   A    
C120  H68   S    
C193  O40   A    
C195  O38   A    
O25   Zn4   S    
C18   C223  S    
C183  O19   A    
C90   N10   S    
C71   C74   A    
C19   C224  S    
C193  C200  S    
H53   N11   S    
C7    C25   S    
C108  H25   S    
C122  N17   S    
C110  H35   S    
C24   C146  A    
C114  H43   S    
C103  O83   D    
C134  C154  S    
O49   Zn13  S    
C156  C165  A    
C125  O86   D    
C109  H29   S    
C182  C211  S    
O1    Zn4   S    
C122  H76   S    
C117  H57   S    
C127  C146  S    
O24   Zn2   S    
C183  O48   A    
C141  C158  A    
C170  O6    A    
C27   O51   S    
C139  O100  D    
C109  H28   S    
C4    C21   S    
C122  H77   S    
C1    O90   A    
C105  H11   S    
C57   N7    S    
C169  C214  A    
C185  O45   A    
C130  O92   D    
C186  C207  S    
C187  C197  S    
C133  C153  S    
C3    C208  T    
C101  C154  A    
C120  H69   S    
C126  H82   S    
C36   C58   A    
C91   H34   S    
O13   Zn9   S    
C104  H8    S    
C6    C23   S    
C56   C65   A    
H31   N6    S    
C192  O12   A    
O14   Zn1   S    
C46   C171  A    
C44   C71   A    
C137  O98   D    
O30   Zn5   S    
C93   H56   S    
C17   C222  S    
C28   C50   A    
C58   C66   A    
C190  O33   A    
C191  O39   A    
C5    C22   S    
C139  C158  S    
C134  O96   D    
C87   H1    S    
C181  O7    A    
H22   N4    S    
C140  O3    D    
C197  C215  T    
O38   Zn10  S    
C39   C52   A    
C207  C224  T    
C119  N14   S    
C181  O11   A    
C45   C72   A    
O28   Zn7   S    
C31   N12   A    
C159  O79   A    
C31   O55   S    
C88   H12   S    
C214  N24   S    
C46   N6    S    
C33   O58   S    
C196  C213  T    
C107  H20   S    
C73   C91   S    
C110  H33   S    
C114  H41   S    
C115  H48   S    
C42   N23   A    
C2    N2    S    
C120  N15   S    
C45   C63   A    
C126  O87   D    
C137  C156  S    
C90   C153  A    
C135  C175  A    
C203  O14   A    
O68   Zn6   S    
C118  H60   S    
C72   C77   A    
C184  O49   A    
C58   C84   A    
C186  O47   A    
C194  C199  S    
C206  C223  T    
O24   Zn6   S    
C57   C150  A    
O22   Zn5   S    
C32   C45   A    
C35   C147  A    
C185  C208  S    
C55   C82   A    
C116  H50   S    
C53   C66   A    
C111  H39   S    
C143  C214  A    
C39   N20   A    
C40   C53   A    
C43   C70   A    
C124  C156  A    
H75   N17   S    
O42   Zn11  S    
C39   O63   S    
C112  O57   A    
C40   O64   S    
C101  N11   S    
C144  C162  A    
C159  O5    A    
O17   Zn2   S    
C161  C203  S    
C142  C160  A    
C157  C166  A    
C105  H10   S    
C83   C100  S    
C117  H55   S    
C92   H45   S    
C138  C157  S    
C48   C61   A    
C132  C152  S    
C180  O41   A    
O6    Zn11  S    
C95   H78   S    
C148  O4    A    
C41   O65   S    
C30   C43   A    
C41   C54   A    
O18   Zn16  S    
C78   C84   A    
C37   N22   A    
C188  C196  S    
C65   C66   A    
O15   Zn8   S    
C123  C143  S    
C121  H72   S    
O1    Zn1   S    
O35   Zn5   S    
C101  C176  A    
C72   C89   S    
C111  N7    S    
C15   C220  S    
C96   H89   S    
C96   O76   D    
C119  H64   S    
C204  C221  T    
