data_mof_unit_34452.cif
_audit_creation_date              2013-03-05T16:36:37-0500
_audit_creation_method            fapswitch 2.2
_symmetry_space_group_name_H-M    P1
_symmetry_Int_Tables_number       1
_space_group_crystal_system       triclinic
_cell_length_a                    17.743052
_cell_length_b                    9.095083
_cell_length_c                    7.778608
_cell_angle_alpha                 90.029123
_cell_angle_beta                  89.540204
_cell_angle_gamma                 89.917373
_cell_volume                      1255.22732057

loop_
_atom_site_label
_atom_site_type_symbol
_atom_site_description
_atom_site_fract_x
_atom_site_fract_y
_atom_site_fract_z
_atom_type_partial_charge
O1    O     O_R   0.500000 0.288390 0.642760 -0.555046
O2    O     O_R   0.500000 0.711610 0.357240 -0.555102
O3    O     O_R   0.500000 0.711610 0.642760 -0.584214
O4    O     O_R   0.500000 0.288390 0.357240 -0.584225
C1    C     C_R   0.499902 0.219989 0.499974 0.866662
C2    C     C_R   0.500097 0.780011 0.500026 0.866529
O5    O     O_R   0.391250 0.500000 0.642840 -0.546902
O6    O     O_R   0.608750 0.500000 0.357160 -0.546782
O7    O     O_R   0.608750 0.500000 0.642840 -0.549512
O8    O     O_R   0.391250 0.500000 0.357160 -0.549502
C3    C     C_1   0.499964 0.065361 0.499965 -0.074291
C4    C     C_1   0.500035 0.934639 0.500035 -0.074360
C5    C     C_R   0.355195 0.501364 0.500902 0.863682
C6    C     C_R   0.644807 0.498642 0.499095 0.863557
Cu1   Cu    Cu3+1 0.500000 0.500000 0.669080 1.141401
Cu2   Cu    Cu3+1 0.500000 0.500000 0.330920 1.141407
C7    C     C_R   0.846478 0.415314 0.621332 -0.180899
C8    C     C_R   0.153501 0.584674 0.378828 -0.180925
C9    C     C_R   0.152944 0.416688 0.619840 -0.167098
C10   C     C_R   0.847088 0.583264 0.380293 -0.167041
H1    H     H_    0.877392 0.349681 0.713356 0.185642
H2    H     H_    0.122567 0.650315 0.286848 0.185637
H3    H     H_    0.122020 0.350694 0.712502 0.179213
H4    H     H_    0.878038 0.649228 0.287643 0.179306
C11   C     C_R   0.767642 0.409850 0.619348 0.312852
C12   C     C_R   0.232338 0.590136 0.380718 0.312843
C13   C     C_R   0.231540 0.419161 0.624119 0.307683
C14   C     C_R   0.768493 0.580784 0.375897 0.307587
C15   C     C_R   0.727794 0.494711 0.496698 -0.257565
C16   C     C_R   0.272210 0.505257 0.503307 -0.257560
C17   C     C_R   0.885733 0.500607 0.501839 0.000991
C18   C     C_R   0.114272 0.499370 0.498359 0.001040
C19   C     C_1   0.966221 0.500291 0.500869 0.027449
C20   C     C_1   0.033784 0.499671 0.499390 0.027461
N1    N     N_1   0.500000 0.500000 0.076820 0.007984
N2    N     N_1   0.500000 0.500000 0.923180 0.007963
N3    N     N_R   0.729486 0.313063 0.737290 0.152280
O9    O     O_R   0.755581 0.294153 0.891605 -0.298932
O10   O     O_R   0.676413 0.226497 0.682967 -0.344971
N4    N     N_R   0.270472 0.686932 0.262748 0.152276
O11   O     O_R   0.244339 0.705871 0.108471 -0.298984
O12   O     O_R   0.323564 0.773476 0.317017 -0.344902
N5    N     N_R   0.269097 0.330332 0.748946 0.126282
O13   O     O_R   0.294710 0.391154 0.888113 -0.293652
O14   O     O_R   0.262030 0.188101 0.743006 -0.318978
N6    N     N_R   0.730977 0.669557 0.250937 0.126230
O15   O     O_R   0.738434 0.811743 0.256158 -0.318918
O16   O     O_R   0.705124 0.608535 0.112119 -0.293594

loop_
_geom_bond_atom_site_label_1
_geom_bond_atom_site_label_2
_geom_bond_distance
_ccdc_geom_bond_type
O4    Cu2   1.935574 S    
C9    H3    1.084389 S    
O7    C6    1.283800 A    
C17   C19   1.428064 S    
C1    C3    1.406349 S    
N3    O9    1.301426 A    
O1    Cu1   1.935367 S    
O2    Cu2   1.935366 S    
Cu2   N1    1.976544 S    
N1    N2    1.195106 T    
C8    C12   1.399959 A    
O5    C5    1.280520 A    
C3    C4    1.188934 T    
O3    C2    1.272953 A    
C7    C11   1.399952 A    
O5    Cu1   1.941951 S    
C19   C20   1.198745 T    
O7    Cu1   1.938693 S    
O3    Cu1   1.935573 S    
N3    O10   1.301295 A    
O8    Cu2   1.938693 S    
C13   C16   1.417218 A    
C2    C4    1.406350 S    
N5    O14   1.300676 A    
C14   N6    1.431582 S    
O2    C2    1.272774 A    
O1    C1    1.272774 A    
C9    C18   1.392439 A    
N4    O12   1.301293 A    
N4    O11   1.301425 A    
C12   C16   1.419761 A    
N5    O13   1.300928 A    
C11   C15   1.419792 A    
C7    C17   1.393819 A    
N6    O16   1.300963 A    
C8    C18   1.393847 A    
C6    C15   1.472799 S    
Cu1   Cu2   2.630415 S    
C13   N5    1.431508 S    
Cu1   N2    1.976544 S    
C12   N4    1.437877 S    
C9    C13   1.395407 A    
C5    C16   1.472750 S    
O6    Cu2   1.941951 S    
N6    O15   1.300776 A    
C14   C15   1.417298 A    
O6    C6    1.280515 A    
C10   C14   1.395436 A    
C11   N3    1.437878 S    
C8    H2    1.084154 S    
C10   C17   1.392425 A    
C7    H1    1.084154 S    
C10   H4    1.084395 S    
O4    C1    1.272953 A    
O8    C5    1.283768 A    
C18   C20   1.428063 S    
