data_mof_unit_12500.cif
_audit_creation_date              2012-12-10T19:28:36-0500
_audit_creation_method            fapswitch 2.2
_symmetry_space_group_name_H-M    P1
_symmetry_Int_Tables_number       1
_space_group_crystal_system       triclinic
_cell_length_a                    27.750237
_cell_length_b                    10.486538
_cell_length_c                    9.747631
_cell_angle_alpha                 90.505745
_cell_angle_beta                  90.089764
_cell_angle_gamma                 89.937211
_cell_volume                      2836.48313415

loop_
_atom_site_label
_atom_site_type_symbol
_atom_type_description
_atom_site_fract_x
_atom_site_fract_y
_atom_site_fract_z
_atom_type_partial_charge
C1    C     C_R   0.500015 0.257467 0.499344 0.871532
C2    C     C_R   0.873082 0.381430 0.538475 -0.155467
C3    C     C_R   0.353505 0.502171 0.499162 -0.042665
C4    C     C_R   0.646521 0.498282 0.500531 -0.044109
C5    C     C_R   0.975613 0.386857 0.530074 -0.010236
C6    C     C_R   0.024645 0.617933 0.473505 -0.009365
C7    C     C_R   0.973546 0.613387 0.467760 0.095143
C8    C     C_R   0.026530 0.387639 0.517991 0.064375
C9    C     C_R   0.949199 0.498248 0.500202 0.085286
C10   C     C_R   0.050958 0.504459 0.494501 0.083590
C11   C     C_R   0.950458 0.277903 0.573372 -0.301288
C12   C     C_R   0.499982 0.742533 0.500656 0.871438
C13   C     C_R   0.050210 0.732928 0.458296 -0.306355
C14   C     C_R   0.900303 0.271869 0.576248 0.436181
C15   C     C_R   0.100361 0.737650 0.453244 0.440396
C16   C     C_R   0.406133 0.500369 0.499831 0.867338
C17   C     C_R   0.593875 0.499704 0.500144 0.867935
C18   C     C_R   0.053948 0.274479 0.526524 -0.181094
C19   C     C_R   0.945820 0.720032 0.428376 -0.217338
C20   C     C_3   0.539636 0.043001 0.564906 -0.169551
C21   C     C_3   0.460357 0.956998 0.435093 -0.169084
C22   C     C_3   0.539689 0.956732 0.435744 -0.167778
C23   C     C_R   0.102090 0.507394 0.492591 -0.097846
C24   C     C_3   0.460304 0.043268 0.564255 -0.167294
C25   C     C_3   0.499986 0.877640 0.501851 0.017958
C26   C     C_3   0.500008 0.122359 0.498148 0.017888
C27   C     C_3   0.499933 0.961196 0.631173 -0.142271
C28   C     C_3   0.500060 0.038803 0.368826 -0.142297
C29   C     C_3   0.495018 0.385639 0.047466 -0.072025
C30   C     C_3   0.504982 0.614361 0.952534 -0.071873
C31   C     C_3   0.534913 0.431283 0.950742 -0.072846
C32   C     C_3   0.465087 0.568717 0.049258 -0.071512
C33   C     C_3   0.460062 0.454391 0.950838 -0.071481
C34   C     C_R   0.898071 0.494718 0.502168 -0.099865
C35   C     C_3   0.539938 0.545608 0.049162 -0.072937
C36   C     C_R   0.178182 0.394617 0.507858 0.522286
C37   C     C_R   0.821821 0.602959 0.468158 0.523563
C38   C     C_R   0.178235 0.620643 0.482083 0.555024
C39   C     C_R   0.822040 0.384796 0.535868 0.552712
C40   C     C_R   0.278405 0.518605 0.374202 -0.089161
C41   C     C_R   0.721996 0.496893 0.376696 -0.087509
C42   C     C_R   0.328428 0.516250 0.374906 -0.209535
C43   C     C_R   0.671951 0.498701 0.376069 -0.210788
C44   C     C_R   0.327872 0.490509 0.622538 -0.210190
C45   C     C_R   0.128037 0.392555 0.508426 -0.034645
C46   C     C_R   0.671821 0.495875 0.625419 -0.211357
C47   C     C_R   0.277809 0.492443 0.621357 -0.087407
C48   C     C_R   0.721864 0.494093 0.625645 -0.083916
C49   C     C_R   0.253181 0.506478 0.497250 0.303888
C50   C     C_R   0.746899 0.494683 0.501391 0.301967
C51   C     C_R   0.871943 0.605328 0.466814 0.000160
C52   C     C_R   0.103669 0.277370 0.522902 -0.053312
C53   C     C_R   0.896093 0.716134 0.429156 -0.092395
C54   C     C_R   0.127281 0.624058 0.474745 -0.153498
H1    H     H_    0.346402 0.479454 0.719591 0.156570
H2    H     H_    0.876583 0.800965 0.398873 0.215931
H3    H     H_    0.653284 0.500431 0.278439 0.158143
H4    H     H_    0.347366 0.525830 0.278474 0.159273
H5    H     H_    0.741515 0.497229 0.280582 0.145886
H6    H     H_    0.259148 0.529312 0.278266 0.145262
H7    H     H_    0.571954 0.916548 0.383754 0.146350
H8    H     H_    0.428039 0.083454 0.616244 0.146010
H9    H     H_    0.490804 0.289324 0.092269 0.120337
H10   H     H_    0.509197 0.710675 0.907732 0.120262
H11   H     H_    0.426461 0.415946 0.904435 0.121945
H12   H     H_    0.653052 0.495386 0.722753 0.160552
H13   H     H_    0.573541 0.584041 0.095567 0.123087
H14   H     H_    0.258081 0.483067 0.716497 0.143192
H15   H     H_    0.741277 0.492675 0.722087 0.148451
H16   H     H_    0.929830 0.982562 0.582503 0.343835
H17   H     H_    0.072719 0.965540 0.273145 0.363922
H18   H     H_    0.969564 0.196026 0.610282 0.186947
H19   H     H_    0.031699 0.822646 0.452619 0.186537
H20   H     H_    0.038118 0.180959 0.532546 0.183217
H21   H     H_    0.961246 0.807730 0.392412 0.145439
H22   H     H_    0.571858 0.082972 0.617426 0.146324
H23   H     H_    0.428135 0.917023 0.382574 0.145876
H24   H     H_    0.499877 0.925534 0.738089 0.139220
H25   H     H_    0.500116 0.074466 0.261911 0.139208
H26   H     H_    0.564275 0.373482 0.904116 0.123241
H27   H     H_    0.435725 0.626518 0.095887 0.121794
H28   H     H_    0.123035 0.188187 0.531835 0.253675
N1    N     N_R   0.201868 0.507294 0.495759 -0.369408
N2    N     N_R   0.798262 0.494106 0.501876 -0.369183
N3    N     N_3   0.499960 0.500030 0.863290 -0.076064
N4    N     N_3   0.500040 0.499970 0.136710 -0.076029
O1    O     O_R   0.500000 0.313960 0.616610 -0.620918
O2    O     O_2   0.796523 0.708865 0.436526 -0.519344
O3    O     O_2   0.795723 0.280965 0.565231 -0.450766
O4    O     O_2   0.204510 0.728343 0.479538 -0.447763
O5    O     O_2   0.843955 0.145296 0.753451 -0.195069
O6    O     O_2   0.845074 0.067454 0.515648 -0.242834
O7    O     O_3   0.918284 0.017872 0.671128 -0.539399
O8    O     O_2   0.151951 0.940928 0.535552 -0.208789
O9    O     O_2   0.160924 0.873938 0.295333 -0.236955
O10   O     O_3   0.083104 0.993343 0.365961 -0.595768
O11   O     O_R   0.500000 0.686040 0.383390 -0.620943
O12   O     O_R   0.500020 0.313950 0.383350 -0.626409
O13   O     O_R   0.499980 0.686050 0.616650 -0.626428
O14   O     O_R   0.428750 0.500030 0.616610 -0.623540
O15   O     O_R   0.571250 0.499970 0.383390 -0.623874
O16   O     O_R   0.428770 0.500020 0.383360 -0.622772
O17   O     O_R   0.571230 0.499980 0.616640 -0.622816
O18   O     O_2   0.203356 0.284928 0.519739 -0.511262
S1    S     S_3+6 0.875139 0.123755 0.629450 0.084151
S2    S     S_3+6 0.125940 0.888349 0.412140 0.064297
Zn1   Zn    Zn3+2 0.499990 0.500010 0.655740 0.944562
Zn2   Zn    Zn3+2 0.500010 0.499990 0.344260 0.944465

loop_
_geom_bond_atom_site_label_1
_geom_bond_atom_site_label_2
_ccdc_geom_bond_type
C1    O1    A    
C29   H9    S    
C3    C42   A    
C31   N3    S    
C30   H10   S    
C38   N1    A    
O5    S1    D    
C37   O2    S    
C24   C27   S    
C48   H15   S    
C27   H24   S    
C42   H4    S    
C18   C52   A    
C31   H26   S    
C47   C49   A    
C4    C46   A    
C32   H27   S    
C34   C51   A    
C30   C35   S    
C23   C45   A    
C15   S2    S    
C24   C26   S    
C39   N2    A    
C46   H12   S    
C37   C51   A    
C35   N4    S    
C36   N1    A    
C40   C49   A    
C29   C33   S    
O12   Zn2   S    
C20   H22   S    
C28   H25   S    
C17   O15   A    
C12   O13   A    
C33   N3    S    
O7    S1    S    
O11   Zn2   S    
C2    C39   A    
C14   S1    S    
C22   C25   S    
C37   N2    A    
O16   Zn2   S    
C44   C47   A    
C2    C34   A    
O15   Zn2   S    
C40   C42   A    
C18   H20   S    
C22   C28   S    
C41   C43   A    
C46   C48   A    
C3    C44   A    
C33   H11   S    
C15   C54   A    
H16   O7    S    
C41   H5    S    
C11   H18   S    
C16   O14   A    
H17   O10   S    
C45   C52   A    
C8    C18   A    
C51   C53   A    
C41   C50   A    
C5    C9    A    
O9    S2    D    
C38   C54   A    
C35   H13   S    
C32   N4    S    
C29   N4    S    
C36   C45   A    
C30   N3    S    
C52   H28   S    
C12   O11   A    
C4    C17   S    
C16   O16   A    
C4    C43   A    
C21   C28   S    
C20   C22   S    
C7    C19   A    
C13   C15   A    
C9    C34   A    
C31   C35   S    
C21   H23   S    
C47   H14   S    
C23   C54   A    
C53   H2    S    
C7    C9    A    
C21   C25   S    
O8    S2    D    
O14   Zn1   S    
C24   H8    S    
N4    Zn2   S    
C13   H19   S    
C1    O12   A    
C6    C10   A    
C5    C8    A    
C5    C11   A    
C6    C7    A    
C20   C27   S    
C10   C23   A    
C25   C27   S    
O13   Zn1   S    
C38   O4    S    
C26   C28   S    
C12   C25   S    
C36   O18   S    
C32   C33   S    
C49   N1    S    
C19   H21   S    
C17   O17   A    
C29   C31   S    
C22   H7    S    
C30   C32   S    
C44   H1    S    
C19   C53   A    
C1    C26   S    
C20   C26   S    
C48   C50   A    
C11   C14   A    
C50   N2    S    
C2    C14   A    
C43   H3    S    
O6    S1    D    
O1    Zn1   S    
C8    C10   A    
C21   C24   S    
O10   S2    S    
C40   H6    S    
O17   Zn1   S    
N3    Zn1   S    
C39   O3    S    
C3    C16   S    
C6    C13   A    
