data_mof_unit_16532.cif
_audit_creation_date              2013-03-05T15:48:45-0500
_audit_creation_method            fapswitch 2.2
_symmetry_space_group_name_H-M    P1
_symmetry_Int_Tables_number       1
_space_group_crystal_system       triclinic
_cell_length_a                    10.883305
_cell_length_b                    13.003249
_cell_length_c                    11.779391
_cell_angle_alpha                 99.058212
_cell_angle_beta                  93.7975
_cell_angle_gamma                 92.825235
_cell_volume                      1639.57658782

loop_
_atom_site_label
_atom_site_type_symbol
_atom_site_description
_atom_site_fract_x
_atom_site_fract_y
_atom_site_fract_z
_atom_type_partial_charge
O1    O     O_R   0.506640 0.354460 0.582000 -0.554365
O2    O     O_R   0.490840 0.341410 0.386200 -0.597623
C1    C     C_R   0.499542 0.299395 0.478540 0.853062
O3    O     O_R   0.325590 0.506510 0.597900 -0.518364
O4    O     O_R   0.309790 0.493450 0.402100 -0.573198
C2    C     C_R   0.259982 0.500069 0.500312 0.914630
Cu1   Cu    Cu3+1 0.509350 0.507730 0.615930 1.125054
Cu2   Cu    Cu3+1 0.490650 0.492270 0.384070 1.034215
O5    O     O_R   0.509160 0.658590 0.613800 -0.550013
O6    O     O_R   0.493360 0.645540 0.418000 -0.595661
O7    O     O_R   0.690210 0.506550 0.597900 -0.530066
O8    O     O_R   0.674410 0.493490 0.402100 -0.584207
C3    C     C_R   0.501040 0.700550 0.520606 0.908863
C4    C     C_R   0.739632 0.498307 0.500279 0.874162
C5    C     C_3   0.077535 0.457044 0.612150 0.386254
C6    C     C_3   0.934571 0.454793 0.610486 0.085908
H1    H     H_    0.897440 0.372800 0.596626 0.192755
C7    C     C_3   0.076857 0.618551 0.491483 0.420899
C8    C     C_3   0.059765 0.428689 0.393370 -0.483582
C9    C     C_3   0.122146 0.503621 0.502469 -0.304220
H2    H     H_    0.091460 0.450860 0.312347 0.240860
H3    H     H_    0.089123 0.347902 0.388538 0.249953
C10   C     C_3   0.877517 0.499934 0.502994 -0.314257
C11   C     C_3   0.930529 0.613725 0.499297 -0.002094
C12   C     C_3   0.917167 0.431556 0.390042 0.095474
H4    H     H_    0.888891 0.471143 0.315980 0.187748
H5    H     H_    0.886998 0.633618 0.418329 0.163388
C13   C     C_R   0.501388 0.813798 0.530924 -0.036334
C14   C     C_R   0.499728 0.185836 0.463852 -0.094185
C15   C     C_R   0.472084 0.016444 0.341155 0.278849
C16   C     C_R   0.474992 0.124965 0.354374 -0.145844
C17   C     C_R   0.523766 0.137710 0.559482 -0.136939
C18   C     C_R   0.514740 0.030076 0.549361 0.094411
C19   C     C_R   0.490754 0.968003 0.439375 0.078882
C20   C     C_R   0.486423 0.859667 0.431277 -0.137875
C21   C     C_R   0.517887 0.876587 0.639549 -0.058973
C22   C     C_R   0.527430 0.984126 0.648603 -0.085480
H6    H     H_    0.471149 0.810538 0.347964 0.202742
H7    H     H_    0.524003 0.843092 0.717755 0.203862
H8    H     H_    0.542821 0.031392 0.733287 0.196497
H9    H     H_    0.457502 0.161437 0.278783 0.197444
H10   H     H_    0.549724 0.183936 0.642065 0.227248
N1    N     N_R   0.523430 0.519360 0.790130 -0.273754
N2    N     N_R   0.476570 0.480640 0.209880 -0.210967
C23   C     C_R   0.392969 0.388397 0.026209 0.257365
C24   C     C_R   0.403868 0.401535 0.146894 0.055437
C25   C     C_R   0.535513 0.552978 0.156850 0.120891
C26   C     C_R   0.527235 0.543864 0.035255 -0.081543
C27   C     C_R   0.460684 0.458297 0.967554 -0.069020
C28   C     C_R   0.470589 0.442433 0.845257 0.515602
C29   C     C_R   0.584551 0.604477 0.859845 0.441012
C30   C     C_R   0.588740 0.616214 0.980618 -0.237788
H11   H     H_    0.641542 0.682223 0.032065 0.201068
H12   H     H_    0.352904 0.348377 0.191134 0.148361
H13   H     H_    0.590382 0.617096 0.209229 0.136212
N3    N     N_R   0.136312 0.513092 0.723807 0.187388
O9    O     O_R   0.195909 0.462551 0.794587 -0.262880
O10   O     O_R   0.116479 0.609526 0.761711 -0.210921
N4    N     N_R   0.109234 0.644662 0.378003 0.121125
O11   O     O_R   0.219284 0.684491 0.367560 -0.291919
O12   O     O_R   0.031122 0.630468 0.287444 -0.350611
Br1   Br    Br    0.439199 0.939740 0.187805 -0.374987
N5    N     N_R   0.458232 0.336996 0.788770 0.126297
O13   O     O_R   0.526522 0.269845 0.829663 -0.371008
O14   O     O_R   0.359443 0.303021 0.723328 -0.259302
Br2   Br    Br    0.119548 0.308687 0.600746 -0.297786
Br3   Br    Br    0.683960 0.707547 0.804380 -0.304422
Br4   Br    Br    0.272905 0.280393 0.954049 -0.238244
Br5   Br    Br    0.875927 0.492286 0.766297 -0.248094
N6    N     N_R   0.136886 0.704126 0.578725 0.184479
O15   O     O_R   0.100774 0.798109 0.578173 -0.214029
O16   O     O_R   0.247618 0.697166 0.624191 -0.329742
N7    N     N_R   0.885930 0.691438 0.589607 0.186200
O17   O     O_R   0.928227 0.700903 0.696530 -0.172875
O18   O     O_R   0.808960 0.758117 0.560814 -0.327688
N8    N     N_R   0.855391 0.326188 0.365321 0.144458
O19   O     O_R   0.774159 0.302861 0.277664 -0.299017
O20   O     O_R   0.888113 0.252520 0.421882 -0.309178

loop_
_geom_bond_atom_site_label_1
_geom_bond_atom_site_label_2
_geom_bond_distance
_ccdc_geom_bond_type
C7    N6    1.483393 S    
N5    O14   1.296736 A    
N7    O17   1.296975 A    
C8    C9    1.576949 S    
C11   H5    1.109472 S    
Cu1   Cu2   2.700107 S    
C23   C24   1.401204 A    
Cu1   O7    1.994265 S    
C7    C11   1.599984 S    
C21   C22   1.383768 A    
C8    H2    1.110594 S    
N8    O20   1.300568 A    
C22   H8    1.084215 S    
C15   C16   1.393649 A    
O7    C4    1.293021 A    
C11   N7    1.471965 S    
C5    C6    1.553515 S    
N3    O9    1.300254 A    
C19   C20   1.395116 A    
C1    C14   1.459552 S    
O5    C3    1.300418 A    
C13   C20   1.401692 A    
C6    H1    1.104831 S    
C10   C11   1.569588 S    
C3    C13   1.458208 S    
N6    O15   1.302884 A    
Cu1   N1    2.028616 S    
N2    C25   1.365697 A    
N4    O11   1.302409 A    
C28   N5    1.422403 S    
N7    O18   1.301949 A    
O3    Cu1   1.996139 S    
N2    C24   1.355105 A    
C5    C9    1.603814 S    
N4    O12   1.302724 A    
C15   C19   1.409820 A    
C29   C30   1.404141 A    
C8    H3    1.107046 S    
N8    O19   1.301454 A    
O3    C2    1.301280 A    
C12   H4    1.114550 S    
C5    Br2   1.990511 S    
C18   C22   1.396206 A    
O1    C1    1.308129 A    
C4    C10   1.497894 S    
C25   C26   1.414944 A    
C23   C27   1.430310 A    
Cu2   O8    1.996138 S    
C24   H12   1.082088 S    
C23   Br4   1.923113 S    
C18   C19   1.415370 A    
C29   Br3   1.902637 S    
C26   C27   1.401150 A    
O8    C4    1.307414 A    
C6    C10   1.580875 S    
C15   Br1   1.922957 S    
C30   H11   1.084287 S    
C25   H13   1.082838 S    
Cu1   O5    1.965878 S    
C16   H9    1.083243 S    
O1    Cu1   1.968378 S    
C21   H7    1.078811 S    
O2    Cu2   1.965877 S    
C6    Br5   1.979320 S    
Cu2   N2    2.028501 S    
O6    C3    1.299215 A    
O4    Cu2   1.994263 S    
N1    C28   1.396531 A    
C14   C17   1.388541 A    
C2    C9    1.504866 S    
C12   N8    1.473666 S    
C5    N3    1.486944 S    
O2    C1    1.291943 A    
C14   C16   1.404855 A    
C17   C18   1.383863 A    
N1    C29   1.382297 A    
O4    C2    1.302284 A    
N3    O10   1.296731 A    
C7    C9    1.618082 S    
C10   C12   1.577469 S    
C8    C12   1.552262 S    
N5    O13   1.302253 A    
C7    N4    1.489893 S    
C26   C30   1.390314 A    
C13   C21   1.400793 A    
Cu2   O6    1.968378 S    
C27   C28   1.434800 A    
C17   H10   1.072444 S    
C20   H6    1.081370 S    
N6    O16   1.299189 A    
