data_mof_unit_26323.cif
_audit_creation_date              2013-03-05T16:07:23-0500
_audit_creation_method            fapswitch 2.2
_symmetry_space_group_name_H-M    P1
_symmetry_Int_Tables_number       1
_space_group_crystal_system       triclinic
_cell_length_a                    9.648337
_cell_length_b                    10.831997
_cell_length_c                    16.971523
_cell_angle_alpha                 86.389071
_cell_angle_beta                  97.185938
_cell_angle_gamma                 89.396147
_cell_volume                      1755.97757156

loop_
_atom_site_label
_atom_site_type_symbol
_atom_site_description
_atom_site_fract_x
_atom_site_fract_y
_atom_site_fract_z
_atom_type_partial_charge
O1    O     O_R   0.618740 0.319660 0.500000 -0.545134
O2    O     O_R   0.381260 0.680340 0.500000 -0.541586
O3    O     O_R   0.381170 0.319630 0.500010 -0.546819
O4    O     O_R   0.618830 0.680370 0.499990 -0.532894
C1    C     C_R   0.499874 0.262793 0.498240 0.882599
C2    C     C_R   0.500215 0.737507 0.500174 0.866605
O5    O     O_R   0.631780 0.498870 0.613920 -0.525670
O6    O     O_R   0.368220 0.501130 0.386080 -0.551969
O7    O     O_R   0.394210 0.498840 0.613930 -0.515584
O8    O     O_R   0.605790 0.501160 0.386070 -0.517564
C3    C     C_R   0.520439 0.503879 0.651545 0.917968
C4    C     C_R   0.479229 0.493803 0.348891 0.930164
Cu1   Cu    Cu3+1 0.640660 0.500020 0.500000 1.113011
Cu2   Cu    Cu3+1 0.359340 0.499980 0.500000 1.102718
C5    C     C_R   0.534166 0.511984 0.739752 -0.318721
C6    C     C_R   0.463177 0.469888 0.262774 -0.306101
C7    C     C_R   0.421281 0.557329 0.775981 0.206554
C8    C     C_R   0.564663 0.396387 0.232709 0.185085
C9    C     C_R   0.430009 0.555292 0.859484 0.185591
C10   C     C_R   0.556554 0.380722 0.150233 0.176387
C11   C     C_R   0.546678 0.497762 0.907199 0.097946
C12   C     C_R   0.446608 0.439544 0.097934 0.104641
C13   C     C_R   0.663557 0.462491 0.871579 0.149256
C14   C     C_R   0.339761 0.502415 0.128366 0.191921
C15   C     C_R   0.660673 0.481576 0.788323 0.359669
C16   C     C_R   0.345125 0.514132 0.210625 0.300193
N1    N     N_2   0.552857 0.484528 0.991363 -0.090876
N2    N     N_2   0.443600 0.442751 0.014077 -0.076262
C17   C     C_R   0.391582 0.069878 0.450130 0.492889
C18   C     C_R   0.615159 0.931887 0.541056 0.488747
C19   C     C_R   0.395591 0.940073 0.452016 -0.300994
C20   C     C_R   0.608683 0.060819 0.540650 -0.330465
H1    H     H_    0.319979 0.891498 0.413952 0.221472
H2    H     H_    0.687019 0.108441 0.576882 0.210453
C21   C     C_R   0.502403 0.871816 0.499394 -0.105613
C22   C     C_R   0.499731 0.128966 0.495801 -0.090562
C23   C     C_R   0.085231 0.413018 0.545112 0.310774
C24   C     C_R   0.913889 0.583622 0.451951 0.292294
C25   C     C_R   0.940170 0.422363 0.552337 0.257331
C26   C     C_R   0.062535 0.589723 0.456833 0.254165
N3    N     N_R   0.852070 0.500030 0.499980 -0.299940
N4    N     N_R   0.147930 0.499970 0.500020 -0.307744
N5    N     N_R   0.665150 0.324833 0.286722 0.174779
O9    O     O_R   0.788250 0.368289 0.308141 -0.361813
O10   O     O_R   0.630182 0.219031 0.318373 -0.344754
N6    N     N_R   0.307313 0.622693 0.728424 0.177463
O11   O     O_R   0.328052 0.729523 0.692757 -0.359781
O12   O     O_R   0.189324 0.567776 0.711278 -0.311609
N7    N     N_R   0.655733 0.301660 0.119926 0.197852
O13   O     O_R   0.614881 0.230512 0.062813 -0.249984
O14   O     O_R   0.787016 0.299624 0.149208 -0.276394
N8    N     N_R   0.328704 0.622907 0.895767 0.195353
O15   O     O_R   0.195866 0.614720 0.871969 -0.265481
O16   O     O_R   0.370410 0.702423 0.947630 -0.259931
N9    N     N_R   0.786680 0.409793 0.919107 0.179208
O17   O     O_R   0.828394 0.448459 0.989055 -0.266504
O18   O     O_R   0.863152 0.328354 0.890233 -0.214349
N10   N     N_R   0.227168 0.559597 0.074997 0.172761
O19   O     O_R   0.153433 0.494652 0.023674 -0.251092
O20   O     O_R   0.197326 0.676504 0.078059 -0.240188
O21   O     O_3   0.783602 0.488767 0.754654 -0.497568
C27   C     C_3   0.861883 0.592554 0.780861 0.184290
H3    H     H_    0.948032 0.603457 0.743947 0.231092
H4    H     H_    0.911699 0.575694 0.843212 0.226947
C28   C     C_3   0.778567 0.715589 0.771681 -0.848501
H5    H     H_    0.704417 0.718077 0.816596 0.245817
H6    H     H_    0.850641 0.793843 0.781439 0.263092
H7    H     H_    0.719317 0.727500 0.711387 0.293241
O22   O     O_3   0.236867 0.574554 0.239085 -0.499056
C29   C     C_3   0.118732 0.497338 0.238144 0.116412
H8    H     H_    0.106328 0.466646 0.300515 0.170610
H9    H     H_    0.125004 0.412253 0.204680 0.135429
C30   C     C_3   0.988208 0.571059 0.202159 -0.487067
H10   H     H_    0.986842 0.588324 0.137061 0.269695
H11   H     H_    0.893566 0.518353 0.212083 0.244419
H12   H     H_    0.984553 0.661234 0.229555 0.282923
O23   O     O_3   0.294152 0.142540 0.399113 -0.583957
C31   C     C_3   0.160058 0.090035 0.390207 0.094122
H13   H     H_    0.131774 0.049521 0.447905 0.204234
H14   H     H_    0.155078 0.018257 0.345971 0.200377
C32   C     C_3   0.052122 0.190158 0.358846 -0.604154
H15   H     H_    0.056963 0.266518 0.399720 0.232868
H16   H     H_    0.072058 0.227558 0.298980 0.238057
H17   H     H_    0.945972 0.150485 0.354180 0.259801
O24   O     O_3   0.723192 0.861894 0.585898 -0.594630
C33   C     C_3   0.855039 0.918278 0.584611 0.079714
H18   H     H_    0.867798 0.991867 0.627579 0.184749
H19   H     H_    0.868573 0.958056 0.523889 0.197825
C34   C     C_3   0.971696 0.823003 0.610106 -0.554849
H20   H     H_    0.951386 0.737305 0.578556 0.245050
H21   H     H_    0.072994 0.861532 0.596773 0.252528
H22   H     H_    0.980522 0.800019 0.674941 0.225763
N11   N     N_R   0.163606 0.308799 0.584666 0.180162
O25   O     O_R   0.127502 0.198394 0.565182 -0.390271
O26   O     O_R   0.240400 0.320012 0.652314 -0.256319
N12   N     N_R   0.829374 0.670437 0.399032 0.185079
O27   O     O_R   0.813644 0.783365 0.418603 -0.319566
O28   O     O_R   0.795826 0.645645 0.325267 -0.346823
N13   N     N_R   0.895578 0.364841 0.623420 0.185017
O29   O     O_R   0.790300 0.291836 0.620621 -0.340836
O30   O     O_R   0.977243 0.366337 0.690426 -0.227170
N14   N     N_R   0.121110 0.698145 0.423039 0.160538
O31   O     O_R   0.094288 0.805305 0.448587 -0.415374
O32   O     O_R   0.187166 0.693369 0.361368 -0.313180

loop_
_geom_bond_atom_site_label_1
_geom_bond_atom_site_label_2
_geom_bond_distance
_ccdc_geom_bond_type
C24   C26   1.428668 A    
N9    O17   1.301279 A    
N11   O25   1.300251 A    
C30   H10   1.107261 S    
N5    O9    1.299879 A    
Cu1   N3    2.039799 S    
C32   H15   1.110186 S    
C25   N3    1.386249 A    
O24   C33   1.418946 S    
O5    C3    1.318891 A    
C17   C22   1.404805 A    
C27   H3    1.104685 S    
C18   C21   1.409721 A    
O1    C1    1.305473 A    
C20   C22   1.393547 A    
C9    C11   1.415918 A    
C14   C16   1.404331 A    
C31   H14   1.111635 S    
C5    C15   1.408352 A    
N10   O20   1.301367 A    
C1    C22   1.452818 S    
C23   N4    1.369576 A    
C2    C21   1.454466 S    
O4    Cu1   1.962650 S    
C27   H4    1.109372 S    
C3    C5    1.494476 S    
C9    N8    1.436397 S    
C4    C6    1.489662 S    
N7    O14   1.300938 A    
N12   O28   1.298824 A    
C19   H1    1.076755 S    
C29   H8    1.110654 S    
C34   H21   1.110240 S    
O21   C27   1.424431 S    
Cu2   N4    2.039800 S    
C26   N4    1.379680 A    
C11   N1    1.420259 S    
N11   O26   1.299421 A    
C12   N2    1.418069 S    
Cu1   Cu2   2.714274 S    
C17   C19   1.404409 A    
C30   H11   1.107012 S    
O2    C2    1.309613 A    
C32   H16   1.109994 S    
N8    O16   1.301046 A    
C6    C16   1.411802 A    
N6    O12   1.299107 A    
C33   H19   1.115176 S    
N14   O31   1.299023 A    
C7    N6    1.432282 S    
C24   N3    1.371172 A    
O4    C2    1.295760 A    
C33   H18   1.111377 S    
C28   H6    1.109415 S    
N10   O19   1.300930 A    
O23   C31   1.413368 S    
C33   C34   1.522022 S    
C34   H22   1.105266 S    
C20   H2    1.071146 S    
O7    Cu2   1.919942 S    
C10   N7    1.440493 S    
N5    O10   1.300678 A    
C25   N13   1.438580 S    
N13   O29   1.291885 A    
O6    C4    1.313558 A    
C28   H7    1.107261 S    
N12   O27   1.299824 A    
C29   C30   1.523669 S    
C23   N11   1.434028 S    
C15   O21   1.380289 S    
C18   O24   1.397379 S    
N14   O32   1.295131 A    
O7    C3    1.305782 A    
O3    Cu2   1.962652 S    
O8    C4    1.308135 A    
C14   N10   1.432879 S    
N13   O30   1.301048 A    
C10   C12   1.413526 A    
C28   H5    1.110051 S    
N9    O18   1.301490 A    
C30   H12   1.110006 S    
C12   C14   1.398572 A    
O1    Cu1   1.967288 S    
C32   H17   1.110474 S    
N8    O15   1.300403 A    
C5    C7    1.414164 A    
N6    O11   1.300945 A    
O6    Cu2   1.945238 S    
C27   C28   1.538349 S    
C31   H13   1.114070 S    
O3    C1    1.299119 A    
O8    Cu1   1.919942 S    
C13   N9    1.440708 S    
C11   C13   1.404875 A    
C23   C25   1.423263 A    
C8    N5    1.432956 S    
C18   C20   1.396875 A    
C31   C32   1.519484 S    
C19   C21   1.398924 A    
C7    C9    1.407889 A    
C8    C10   1.413150 A    
C13   C15   1.411838 A    
O22   C29   1.419931 S    
O2    Cu2   1.967288 S    
C26   N14   1.427530 S    
O5    Cu1   1.945235 S    
C17   O23   1.395620 S    
C6    C8    1.418707 A    
N7    O13   1.301441 A    
C24   N12   1.431802 S    
N1    N2    1.246736 D    
C16   O22   1.379959 S    
C29   H9    1.117573 S    
C34   H20   1.107698 S    
