data_mof_unit_58202.cif
_audit_creation_date              2012-12-10T16:50:01-0500
_audit_creation_method            fapswitch 2.2
_symmetry_space_group_name_H-M    P1
_symmetry_Int_Tables_number       1
_space_group_crystal_system       triclinic
_cell_length_a                    7.796699
_cell_length_b                    8.571538
_cell_length_c                    10.624617
_cell_angle_alpha                 91.434536
_cell_angle_beta                  84.271054
_cell_angle_gamma                 93.826231
_cell_volume                      704.798035331

loop_
_atom_site_label
_atom_site_type_symbol
_atom_type_description
_atom_site_fract_x
_atom_site_fract_y
_atom_site_fract_z
_atom_type_partial_charge
Br1   Br    Br    0.074460 0.322299 0.806075 -0.553165
C1    C     C_R   0.545844 0.794736 0.496824 0.959036
C2    C     C_R   0.454137 0.205247 0.503080 0.973199
C3    C     C_R   0.501580 0.508262 0.259573 0.861838
C4    C     C_R   0.159174 0.489348 0.912858 0.290780
C5    C     C_R   0.039655 0.587492 0.973688 -0.199937
C6    C     C_R   0.081368 0.676501 0.079086 -0.174002
C7    C     C_R   0.236535 0.656804 0.129907 -0.161447
C8    C     C_R   0.356233 0.554901 0.069757 0.050048
C9    C     C_R   0.328974 0.494304 0.950133 0.058543
C10   C     C_R   0.475896 0.447802 0.872454 -0.101926
C11   C     C_R   0.619478 0.403140 0.926099 -0.218009
C12   C     C_R   0.628266 0.425618 0.053718 -0.211914
C13   C     C_R   0.500286 0.506184 0.125144 -0.105332
C14   C     C_2   0.569877 0.958331 0.494861 -0.377863
C15   C     C_2   0.430060 0.041661 0.505060 -0.360878
C16   C     C_R   0.493728 0.479179 0.738921 0.904715
H1    H     H_    0.725261 0.354239 0.868692 0.215178
H2    H     H_    0.986033 0.618293 0.595417 0.203351
H3    H     H_    0.913953 0.593271 0.940499 0.172461
H4    H     H_    0.989582 0.753883 0.125517 0.161003
H5    H     H_    0.262768 0.723051 0.214657 0.160616
H6    H     H_    0.737155 0.383270 0.095525 0.190409
H7    H     H_    0.701837 0.009647 0.485029 0.186378
H8    H     H_    0.298093 0.990359 0.514903 0.186667
H9    H     H_    0.014000 0.381669 0.404639 0.195236
N1    N     N_2   0.950330 0.457950 0.466250 -0.161635
N2    N     N_2   0.049670 0.542050 0.533750 -0.149439
O1    O     O_R   0.389250 0.738570 0.508280 -0.618542
O2    O     O_R   0.678390 0.711630 0.486650 -0.630191
O3    O     O_R   0.355400 0.513470 0.694050 -0.588134
O4    O     O_R   0.644540 0.486530 0.672420 -0.617271
O5    O     O_R   0.321610 0.288370 0.513350 -0.600115
O6    O     O_R   0.610750 0.261430 0.491720 -0.615007
O7    O     O_R   0.355460 0.513470 0.327580 -0.633726
O8    O     O_R   0.644600 0.486530 0.305950 -0.624855
Zn1   Zn    Zn3+2 0.306930 0.517990 0.514440 0.975380
Zn2   Zn    Zn3+2 0.693070 0.482010 0.485560 0.958549

loop_
_geom_bond_atom_site_label_1
_geom_bond_atom_site_label_2
_ccdc_geom_bond_type
C7    H5    S    
C10   C11   A    
C3    O8    A    
C5    C6    A    
H2    N2    S    
O4    Zn2   S    
C5    H3    S    
C8    C9    A    
C1    O2    A    
C8    C13   A    
O8    Zn2   S    
C3    O7    A    
C6    C7    A    
C6    H4    S    
C12   C13   A    
C1    C14   S    
O2    Zn2   S    
H9    N1    S    
N2    Zn1   S    
C1    O1    A    
Br1   C4    S    
C14   H7    S    
O7    Zn1   S    
C3    C13   S    
C4    C5    A    
C16   O3    A    
C9    C10   A    
C2    O5    A    
N1    Zn2   S    
O1    Zn1   S    
C14   C15   D    
C4    C9    A    
C11   C12   A    
C12   H6    S    
C11   H1    S    
C15   H8    S    
C16   O4    A    
C10   C16   S    
C2    O6    A    
O6    Zn2   S    
O5    Zn1   S    
C2    C15   S    
O3    Zn1   S    
C7    C8    A    
N1    N2    D    
