data_mof_unit_43870.cif
_audit_creation_date              2012-12-11T15:06:37-0500
_audit_creation_method            fapswitch 2.2
_symmetry_space_group_name_H-M    P1
_symmetry_Int_Tables_number       1
_space_group_crystal_system       triclinic
_cell_length_a                    7.221247
_cell_length_b                    14.849888
_cell_length_c                    22.693615
_cell_angle_alpha                 89.999859
_cell_angle_beta                  90.000113
_cell_angle_gamma                 87.09264
_cell_volume                      2430.41086932

loop_
_atom_site_label
_atom_site_type_symbol
_atom_type_description
_atom_site_fract_x
_atom_site_fract_y
_atom_site_fract_z
_atom_type_partial_charge
O1    O     O_R   0.390810 0.844810 0.447340 -0.542867
O2    O     O_R   0.109190 0.155190 0.947340 -0.542876
O3    O     O_R   0.890810 0.655190 0.552660 -0.544807
O4    O     O_R   0.609190 0.344810 0.052660 -0.544787
O5    O     O_R   0.720550 0.655820 0.440420 -0.538142
O6    O     O_R   0.779450 0.344180 0.940420 -0.538136
O7    O     O_R   0.220550 0.844180 0.559580 -0.512688
O8    O     O_R   0.279450 0.155820 0.059580 -0.512682
C1    C     C_R   0.555604 0.626577 0.426114 0.683860
C2    C     C_R   0.944396 0.373424 0.926114 0.683866
C3    C     C_R   0.048461 0.872594 0.574111 0.781019
C4    C     C_R   0.451540 0.127406 0.074110 0.781012
O9    O     O_R   0.720530 0.844130 0.440420 -0.538281
O10   O     O_R   0.779470 0.155870 0.940420 -0.538273
O11   O     O_R   0.220530 0.655870 0.559580 -0.523668
O12   O     O_R   0.279470 0.344130 0.059580 -0.523692
O13   O     O_R   0.890830 0.844810 0.552660 -0.546132
O14   O     O_R   0.609170 0.155190 0.052660 -0.546135
O15   O     O_R   0.390830 0.655190 0.447340 -0.540710
O16   O     O_R   0.109170 0.344810 0.947340 -0.540712
C5    C     C_R   0.548355 0.874031 0.426650 0.665696
C6    C     C_R   0.951644 0.125969 0.926649 0.665674
C7    C     C_R   0.056044 0.626406 0.573978 0.730209
C8    C     C_R   0.443956 0.373594 0.073978 0.730157
O17   O     O_3   0.557310 0.749980 0.536820 -0.369620
O18   O     O_3   0.942690 0.250020 0.036820 -0.369621
O19   O     O_3   0.057310 0.750020 0.463180 -0.386430
O20   O     O_3   0.442690 0.249980 0.963180 -0.386429
V1    V     V_3+5 0.832160 0.749980 0.493170 1.445823
V2    V     V_3+5 0.667840 0.250020 0.993170 1.445879
V3    V     V_3+5 0.332160 0.750020 0.506830 1.495602
V4    V     V_3+5 0.167840 0.249980 0.006830 1.495609
C9    C     C_R   0.795951 0.590559 0.851552 0.396128
C10   C     C_R   0.704064 0.409444 0.351551 0.396411
C11   C     C_R   0.620073 0.907911 0.139440 0.478087
C12   C     C_R   0.879960 0.092095 0.639438 0.478135
H1    H     H_    0.796431 0.537061 0.939523 0.173458
H2    H     H_    0.703577 0.462941 0.439523 0.173410
H3    H     H_    0.555981 0.959891 0.053111 0.173743
H4    H     H_    0.944054 0.040112 0.553110 0.173749
H5    H     H_    0.705064 0.694351 0.756226 0.208101
H6    H     H_    0.794916 0.305640 0.256228 0.208133
H7    H     H_    0.774282 0.804578 0.227013 0.206593
H8    H     H_    0.725726 0.195424 0.727009 0.206776
C13   C     C_R   0.939346 0.445328 0.880589 -0.175231
C14   C     C_R   0.560656 0.554672 0.380589 -0.175196
C15   C     C_R   0.475435 0.056207 0.119386 -0.131130
C16   C     C_R   0.024568 0.943792 0.619386 -0.131133
C17   C     C_R   0.203357 0.482237 0.605191 -0.133433
C18   C     C_R   0.296648 0.517764 0.105190 -0.132952
C19   C     C_R   0.408678 0.024363 0.407194 -0.114658
C20   C     C_R   0.091316 0.975637 0.907194 -0.114381
C21   C     C_R   0.274130 0.426286 0.649544 -0.058520
C22   C     C_R   0.225879 0.573717 0.149543 -0.058441
C23   C     C_R   0.322773 0.085832 0.368793 -0.091004
C24   C     C_R   0.177218 0.914166 0.868794 -0.090900
C25   C     C_R   0.206729 0.435224 0.706656 -0.046351
C26   C     C_R   0.293278 0.564778 0.206655 -0.046405
C27   C     C_R   0.350525 0.077549 0.308424 -0.163817
C28   C     C_R   0.149468 0.922449 0.808425 -0.164030
C29   C     C_R   0.052509 0.494104 0.719943 0.120072
C30   C     C_R   0.447494 0.505896 0.219943 0.120002
C31   C     C_R   0.480079 0.012515 0.284776 0.102819
C32   C     C_R   0.019918 0.987485 0.784776 0.102869
C33   C     C_R   0.990309 0.556650 0.675174 0.072238
C34   C     C_R   0.509690 0.443349 0.175175 0.072185
C35   C     C_R   0.561018 0.946648 0.324472 0.079716
C36   C     C_R   0.938982 0.053353 0.824471 0.079732
C37   C     C_R   0.971233 0.498518 0.777954 0.032633
C38   C     C_R   0.528771 0.501482 0.277954 0.032507
C39   C     C_R   0.516605 0.005442 0.222408 -0.051918
C40   C     C_R   0.983396 0.994558 0.722407 -0.051935
C41   C     C_R   0.855589 0.576152 0.792581 -0.017663
C42   C     C_R   0.644414 0.423847 0.292581 -0.017570
C43   C     C_R   0.609613 0.924842 0.200919 -0.015232
C44   C     C_R   0.890401 0.075162 0.700918 -0.015265
C45   C     C_R   0.799254 0.637051 0.747747 -0.133387
C46   C     C_R   0.700737 0.362945 0.247748 -0.133224
C47   C     C_R   0.692634 0.863460 0.241323 -0.017320
C48   C     C_R   0.807374 0.136544 0.741320 -0.017227
C49   C     C_R   0.860646 0.625979 0.690142 -0.183076
C50   C     C_R   0.639344 0.374017 0.190144 -0.183202
C51   C     C_R   0.671133 0.874768 0.301647 -0.202734
C52   C     C_R   0.828870 0.125234 0.801645 -0.202795
C53   C     C_R   0.996819 0.428608 0.821718 -0.066228
C54   C     C_R   0.503188 0.571392 0.321717 -0.066216
C55   C     C_R   0.467724 0.075411 0.180630 -0.045644
C56   C     C_R   0.032271 0.924588 0.680630 -0.045607
C57   C     C_R   0.843869 0.526453 0.894647 -0.205016
C58   C     C_R   0.656138 0.473548 0.394646 -0.205163
C59   C     C_R   0.546025 0.972267 0.100087 -0.251478
C60   C     C_R   0.953998 0.027736 0.600086 -0.251552
C61   C     C_R   0.069274 0.551389 0.617543 -0.106690
C62   C     C_R   0.430726 0.448610 0.117543 -0.106597
C63   C     C_R   0.520410 0.951623 0.385855 -0.084836
C64   C     C_R   0.979589 0.048379 0.885854 -0.084859
H9    H     H_    0.266033 0.476788 0.561840 0.137371
H10   H     H_    0.233973 0.523214 0.061839 0.137309
H11   H     H_    0.375075 0.029212 0.453689 0.139840
H12   H     H_    0.124918 0.970788 0.953689 0.139820
H13   H     H_    0.281743 0.397287 0.740329 0.122518
H14   H     H_    0.218267 0.602717 0.240328 0.122491
H15   H     H_    0.260909 0.120051 0.281104 0.166866
H16   H     H_    0.239080 0.879945 0.781104 0.166873
H17   H     H_    0.388539 0.378477 0.640168 0.172638
H18   H     H_    0.111475 0.621528 0.140166 0.172382
H19   H     H_    0.225790 0.137511 0.385736 0.206278
H20   H     H_    0.274198 0.862486 0.885737 0.206269
H21   H     H_    0.810571 0.675059 0.657979 0.144540
H22   H     H_    0.689412 0.324933 0.157981 0.144548
H23   H     H_    0.736377 0.824158 0.330162 0.131672
H24   H     H_    0.763625 0.175845 0.830160 0.131686
S1    S     S_3+6 0.659159 0.687750 0.873495 0.012706
O21   O     O_2   0.473759 0.687215 0.843426 -0.329287
O22   O     O_2   0.629241 0.689064 0.939043 -0.280529
O23   O     O_3   0.764722 0.781423 0.853530 -0.499367
H25   H     H_    0.890642 0.774224 0.870752 0.344637
S2    S     S_3+6 0.840896 0.312265 0.373492 0.012508
O24   O     O_2   0.026263 0.312792 0.343402 -0.329258
O25   O     O_2   0.870895 0.310969 0.439037 -0.280806
O26   O     O_3   0.735310 0.218587 0.353552 -0.499523
H26   H     H_    0.609685 0.225614 0.370994 0.344906
S3    S     S_3+6 0.726511 0.807475 0.109465 0.020895
O27   O     O_2   0.707215 0.806060 0.043523 -0.281044
O28   O     O_2   0.929045 0.802565 0.125162 -0.350988
O29   O     O_3   0.625354 0.717601 0.137837 -0.472307
H27   H     H_    0.701097 0.664557 0.123498 0.363860
S4    S     S_3+6 0.773573 0.192543 0.609462 0.020710
O30   O     O_2   0.792957 0.193963 0.543522 -0.281428
O31   O     O_2   0.571020 0.197469 0.625132 -0.350747
O32   O     O_3   0.874709 0.282407 0.637855 -0.472465
H28   H     H_    0.800025 0.335481 0.623064 0.364092
C65   C     C_2   0.049974 0.333617 0.805995 0.326738
H29   H     H_    0.125758 0.289886 0.836876 0.053186
O33   O     O_2   0.002366 0.302090 0.759117 -0.505213
C66   C     C_2   0.450045 0.666384 0.305992 0.326647
H30   H     H_    0.374267 0.710118 0.336872 0.053225
O34   O     O_2   0.497657 0.697908 0.259114 -0.505334
C67   C     C_2   0.444464 0.171065 0.199739 0.299058
H31   H     H_    0.523354 0.194074 0.237007 0.095155
O35   O     O_2   0.333314 0.223852 0.175804 -0.526211
C68   C     C_2   0.055517 0.828934 0.699740 0.299055
H32   H     H_    0.976623 0.805928 0.737008 0.095045
O36   O     O_2   0.166667 0.776143 0.675805 -0.526215

loop_
_geom_bond_atom_site_label_1
_geom_bond_atom_site_label_2
_ccdc_geom_bond_type
O17   V3    S    
C39   C43   A    
C26   C30   A    
O29   H27   S    
C23   C27   A    
O19   V1    S    
O13   V1    S    
O1    C5    A    
O3    C7    A    
C21   H17   S    
C48   C52   A    
O15   V3    S    
S4    O30   D    
C14   C54   A    
S3    O27   D    
C11   C59   A    
O7    C3    A    
C11   C43   A    
C36   C64   A    
C32   C36   A    
O9    V1    S    
C8    C62   S    
H5    C45   S    
O4    C8    A    
S3    O28   D    
H7    C47   S    
O1    V3    S    
O23   H25   S    
C30   C38   A    
O2    V4    S    
C56   C68   S    
O3    V1    S    
C38   C42   A    
C24   H20   S    
C12   C44   A    
S2    O24   D    
C1    O15   A    
C2    O16   A    
C19   C63   A    
O2    C6    A    
C16   C56   A    
C37   C41   A    
C26   H14   S    
C13   C57   A    
C19   C23   A    
C40   C44   A    
C34   C62   A    
S1    O23   S    
C12   C60   A    
O11   C7    A    
C1    C14   S    
O12   C8    A    
C35   C63   A    
C3    C16   S    
C12   S4    S    
C15   C59   A    
O10   V2    S    
C4    C15   S    
H3    C59   S    
C40   C56   A    
O16   V4    S    
O5    V1    S    
C19   H11   S    
C31   C35   A    
C18   H10   S    
O7    V3    S    
C22   H18   S    
O8    V4    S    
H8    C48   S    
C66   O34   D    
C30   C34   A    
O18   V4    S    
C18   C62   A    
S3    O29   S    
C5    C63   S    
C10   S2    S    
C20   H12   S    
C7    C61   S    
C23   H19   S    
S2    O26   S    
C36   C52   A    
C13   C53   A    
C10   C58   A    
O5    C1    A    
C9    C57   A    
C34   C50   A    
C46   C50   A    
C33   C49   A    
C45   C49   A    
O8    C4    A    
C2    C13   S    
O9    C5    A    
C52   H24   S    
C35   C51   A    
H4    C60   S    
C25   C29   A    
O26   H26   S    
C10   C42   A    
C39   C55   A    
C54   C66   S    
O6    V2    S    
C31   C39   A    
H6    C46   S    
C16   C60   A    
C65   H29   S    
C51   H23   S    
C27   C31   A    
O32   H28   S    
C38   C54   A    
S4    O32   S    
C50   H22   S    
C37   C53   A    
S1    O21   D    
C22   C26   A    
C9    C41   A    
C3    O13   A    
C21   C25   A    
C6    C64   S    
C44   C48   A    
C55   C67   S    
C66   H30   S    
S4    O31   D    
O6    C2    A    
C67   H31   S    
O11   V3    S    
C14   C58   A    
O12   V4    S    
C25   H13   S    
H2    C58   S    
C9    S1    S    
H1    C57   S    
C28   C32   A    
C29   C37   A    
O10   C6    A    
C11   S3    S    
C27   H15   S    
C18   C22   A    
C49   H21   S    
C47   C51   A    
C67   O35   D    
C17   C21   A    
O20   V2    S    
C33   C61   A    
C20   C64   A    
C68   O36   D    
C32   C40   A    
S2    O25   D    
O14   V2    S    
C17   H9    S    
C29   C33   A    
C24   C28   A    
C42   C46   A    
C4    O14   A    
C65   O33   D    
C41   C45   A    
C68   H32   S    
C17   C61   A    
C28   H16   S    
C43   C47   A    
O4    V2    S    
C20   C24   A    
C53   C65   S    
S1    O22   D    
C15   C55   A    
