data_mof_unit_60599.cif
_audit_creation_date              2012-12-10T16:44:36-0500
_audit_creation_method            fapswitch 2.2
_symmetry_space_group_name_H-M    P1
_symmetry_Int_Tables_number       1
_space_group_crystal_system       triclinic
_cell_length_a                    18.420752
_cell_length_b                    18.495652
_cell_length_c                    18.483592
_cell_angle_alpha                 119.905121
_cell_angle_beta                  119.691854
_cell_angle_gamma                 90.422251
_cell_volume                      4463.54799581

loop_
_atom_site_label
_atom_site_type_symbol
_atom_type_description
_atom_site_fract_x
_atom_site_fract_y
_atom_site_fract_z
_atom_type_partial_charge
C1    C     C_R   0.138544 0.361446 0.000340 0.532523
C2    C     C_R   0.532842 0.271119 0.857012 -0.113905
C3    C     C_R   0.586615 0.324180 0.857101 -0.113198
C4    C     C_R   0.863212 0.640256 0.001927 0.496140
C5    C     C_R   0.676786 0.335435 0.904987 -0.088507
C6    C     C_2   0.724480 0.780171 0.944293 -0.159770
C7    C     C_2   0.684054 0.797273 0.991513 -0.079207
C8    C     C_2   0.772156 0.716381 0.938739 -0.169965
C9    C     C_2   0.820902 0.707557 0.015524 -0.000111
C10   C     C_2   0.723856 0.280007 0.444168 -0.158526
C11   C     C_2   0.683980 0.192341 0.386705 -0.077376
C12   C     C_R   0.824060 0.160644 0.094815 -0.108794
C13   C     C_2   0.771574 0.333222 0.555667 -0.169291
C14   C     C_2   0.820875 0.305475 0.613339 0.000605
C15   C     C_2   0.337257 0.280866 0.059928 -0.152783
C16   C     C_R   0.138632 0.638766 0.277093 0.530991
C17   C     C_2   0.304428 0.192128 0.995650 -0.085676
C18   C     C_2   0.281211 0.337131 0.057662 -0.151837
C19   C     C_2   0.192348 0.304617 0.001464 -0.081981
C20   C     C_2   0.218596 0.800702 0.965592 -0.043727
C21   C     C_2   0.302969 0.804022 0.996982 -0.095359
C22   C     C_2   0.162145 0.736265 0.956001 -0.160917
C23   C     C_R   0.788841 0.206077 0.049581 0.000506
C24   C     C_2   0.196366 0.703890 0.011388 -0.104327
C25   C     C_2   0.218854 0.778600 0.556070 -0.150503
C26   C     C_2   0.307736 0.803399 0.612244 -0.090578
C27   C     C_2   0.162718 0.720098 0.443743 -0.147004
C28   C     C_R   0.863248 0.361345 0.722987 0.497341
C29   C     C_2   0.195531 0.696360 0.387755 -0.087435
C30   C     C_R   0.637125 0.138397 0.276806 0.516473
C31   C     C_R   0.361552 0.861126 0.722901 0.512279
C32   C     C_R   0.637206 0.860284 0.998664 0.512968
C33   C     C_R   0.361343 0.138363 0.999558 0.514900
C34   C     C_R   0.846198 0.263300 0.054821 -0.014011
C35   C     C_R   0.359927 0.861445 0.000675 0.511526
C36   C     C_R   0.640031 0.139810 0.000025 0.482683
C37   C     C_R   0.139872 0.640842 0.001542 0.518008
C38   C     C_R   0.860773 0.360220 0.000764 0.500297
C39   C     C_R   0.939879 0.276510 0.111741 -0.009843
C40   C     C_R   0.971577 0.228465 0.154162 -0.006314
C41   C     C_R   0.913455 0.170804 0.144655 -0.131493
C42   C     C_1   0.842353 0.769081 0.117215 0.210025
C43   C     C_1   0.842770 0.225563 0.573302 0.210780
C44   C     C_1   0.006381 0.341249 0.133436 0.212588
C45   C     C_R   0.697396 0.195848 0.000964 0.017795
C46   C     C_1   0.178853 0.858463 0.938802 0.251265
C47   C     C_1   0.064670 0.238031 0.209520 0.208188
C48   C     C_R   0.660593 0.239563 0.954165 0.014141
C49   C     C_R   0.715545 0.293764 0.954820 0.011246
C50   C     C_R   0.807344 0.305020 0.004133 0.007230
C51   C     C_R   0.568962 0.228894 0.904586 -0.089486
H1    H     H_    0.558346 0.356654 0.819695 0.118225
H2    H     H_    0.156120 0.234700 0.955248 0.116703
H3    H     H_    0.331356 0.760176 0.016573 0.095998
H4    H     H_    0.090630 0.716842 0.903903 0.164290
H5    H     H_    0.266873 0.727023 0.069539 0.111312
H6    H     H_    0.184963 0.800998 0.593304 0.164565
H7    H     H_    0.343978 0.780792 0.578430 0.111150
H8    H     H_    0.091512 0.696845 0.406337 0.165130
H9    H     H_    0.265670 0.719767 0.421715 0.108052
H10   H     H_    0.937717 0.134272 0.177726 0.129024
H11   H     H_    0.782887 0.116353 0.092434 0.129310
H12   H     H_    0.683200 0.762662 0.024407 0.129841
H13   H     H_    0.524100 0.187534 0.901454 0.117877
H14   H     H_    0.462735 0.262264 0.819514 0.119564
H15   H     H_    0.715367 0.377076 0.902152 0.114804
H16   H     H_    0.719177 0.809821 0.904588 0.162000
H17   H     H_    0.766747 0.674987 0.867895 0.150690
H18   H     H_    0.718064 0.314437 0.409136 0.161541
H19   H     H_    0.683555 0.158530 0.420544 0.131264
H20   H     H_    0.765775 0.398434 0.591611 0.150245
H21   H     H_    0.408439 0.314571 0.116238 0.160135
H22   H     H_    0.234325 0.156067 0.936710 0.117290
H23   H     H_    0.315138 0.408129 0.105265 0.158834
N1    N     N_1   0.859775 0.818075 0.198438 -0.275924
N2    N     N_1   0.860545 0.162022 0.541755 -0.273951
N3    N     N_1   0.060179 0.392806 0.151617 -0.284446
N4    N     N_1   0.146988 0.904538 0.917450 -0.269379
N5    N     N_1   0.139092 0.245670 0.253754 -0.275554
O1    O     O_3   0.000000 0.500000 0.000000 -0.448442
O2    O     O_R   0.325040 0.054120 0.939900 -0.528182
O3    O     O_R   0.444330 0.884140 0.060080 -0.539326
O4    O     O_R   0.054210 0.325030 0.939940 -0.525145
O5    O     O_R   0.615830 0.175840 0.060080 -0.542227
O6    O     O_R   0.324160 0.884140 0.939910 -0.524009
O7    O     O_R   0.615850 0.055700 0.939930 -0.542202
O8    O     O_R   0.614980 0.885710 0.939940 -0.543711
O9    O     O_R   0.445830 0.174930 0.060060 -0.543734
O10   O     O_R   0.614300 0.054120 0.229160 -0.528455
O11   O     O_R   0.325070 0.885060 0.770830 -0.538225
O12   O     O_R   0.054160 0.614240 0.229150 -0.528416
O13   O     O_R   0.885070 0.614240 0.060060 -0.536276
O14   O     O_R   0.174980 0.614900 0.229170 -0.533292
O15   O     O_R   0.885740 0.445830 0.770840 -0.549129
O16   O     O_R   0.175880 0.615810 0.060090 -0.543665
O17   O     O_R   0.884210 0.324110 0.939920 -0.529505
O18   O     O_R   0.055710 0.615810 0.939920 -0.539558
O19   O     O_R   0.884190 0.444260 0.060070 -0.536228
O20   O     O_R   0.885120 0.325030 0.770840 -0.532994
O21   O     O_R   0.175010 0.445830 0.060100 -0.534275
O22   O     O_R   0.885710 0.614900 0.939900 -0.548751
O23   O     O_3   0.500040 0.999960 0.000000 -0.451763
O24   O     O_R   0.614930 0.174930 0.229160 -0.541153
O25   O     O_R   0.445880 0.885710 0.770850 -0.538716
O26   O     O_R   0.614330 0.885060 0.060100 -0.529317
Zn1   Zn    Zn3+2 0.956610 0.542450 0.085830 0.967420
Zn2   Zn    Zn3+2 0.129220 0.543380 0.085850 0.965473
Zn3   Zn    Zn3+2 0.957530 0.543380 0.914160 0.934105
Zn4   Zn    Zn3+2 0.956640 0.370790 0.914170 0.976196
Zn5   Zn    Zn3+2 0.543440 0.957510 0.914170 0.937557
Zn6   Zn    Zn3+2 0.542510 0.956570 0.085840 0.960356
Zn7   Zn    Zn3+2 0.370820 0.956570 0.914150 0.961935
Zn8   Zn    Zn3+2 0.543410 0.129170 0.085830 0.936490

loop_
_geom_bond_atom_site_label_1
_geom_bond_atom_site_label_2
_ccdc_geom_bond_type
C40   C47   S    
O5    Zn8   S    
C23   C45   A    
C27   C29   D    
C15   C18   S    
O23   Zn7   S    
O11   Zn7   S    
C38   O19   A    
O6    Zn7   S    
C37   O18   A    
C11   H19   S    
O8    Zn5   S    
C15   H21   S    
O1    Zn2   S    
O15   Zn3   S    
C16   O14   A    
C17   C33   S    
C1    O4    A    
C44   N3    T    
O24   Zn8   S    
C33   O9    A    
C21   H3    S    
O20   Zn4   S    
O1    Zn1   S    
C37   O16   A    
C28   O15   A    
C18   C19   D    
O9    Zn8   S    
C22   H4    S    
O18   Zn3   S    
C48   C51   A    
C11   C30   S    
C8    C9    D    
O21   Zn2   S    
O1    Zn4   S    
O4    Zn4   S    
C41   H10   S    
C19   H2    S    
O22   Zn3   S    
O26   Zn6   S    
C26   C31   S    
C18   H23   S    
C13   C14   D    
C17   H22   S    
O12   Zn1   S    
C5    C49   A    
O23   Zn6   S    
C25   H6    S    
C30   O10   A    
C9    C42   S    
C1    O21   A    
C35   O3    A    
C34   C50   A    
C1    C19   S    
C34   C39   A    
C10   C11   D    
C39   C40   A    
C46   N4    T    
C6    C8    S    
C13   H20   S    
C36   O7    A    
C16   C29   S    
C32   O8    A    
C30   O24   A    
C12   C41   A    
C12   H11   S    
C12   C23   A    
C29   H9    S    
C31   O11   A    
C4    O22   A    
C24   C37   S    
C42   N1    T    
C36   C45   S    
C26   H7    S    
C7    H12   S    
C39   C44   S    
O2    Zn7   S    
O16   Zn2   S    
C21   C35   S    
C28   O20   A    
O13   Zn1   S    
C48   C49   A    
C20   C22   S    
C8    H17   S    
C32   O26   A    
C22   C24   D    
O23   Zn5   S    
C24   H5    S    
C45   C48   A    
C43   N2    T    
C15   C17   D    
O10   Zn6   S    
C40   C41   A    
C23   C34   A    
C7    C32   S    
O7    Zn5   S    
C51   H13   S    
C5    H15   S    
C3    C5    A    
C10   C13   S    
C2    H14   S    
C3    H1    S    
C6    C7    D    
C38   C50   S    
C25   C27   S    
O17   Zn4   S    
O1    Zn3   S    
O19   Zn1   S    
O3    Zn6   S    
C2    C3    A    
C25   C26   D    
O23   Zn8   S    
C6    H16   S    
C47   N5    T    
C31   O25   A    
O25   Zn5   S    
C35   O6    A    
C36   O5    A    
C20   C46   S    
C2    C51   A    
C10   H18   S    
C20   C21   D    
C16   O12   A    
C49   C50   A    
C38   O17   A    
C27   H8    S    
C14   C28   S    
C4    C9    S    
C33   O2    A    
O14   Zn2   S    
C14   C43   S    
C4    O13   A    
