data_mof_unit_46773.cif
_audit_creation_date              2012-12-10T17:10:58-0500
_audit_creation_method            fapswitch 2.2
_symmetry_space_group_name_H-M    P1
_symmetry_Int_Tables_number       1
_space_group_crystal_system       triclinic
_cell_length_a                    11.714343
_cell_length_b                    12.993763
_cell_length_c                    13.301324
_cell_angle_alpha                 92.640068
_cell_angle_beta                  75.764882
_cell_angle_gamma                 99.584136
_cell_volume                      1935.05314556

loop_
_atom_site_label
_atom_site_type_symbol
_atom_type_description
_atom_site_fract_x
_atom_site_fract_y
_atom_site_fract_z
_atom_type_partial_charge
C1    C     C_R   0.520348 0.700559 0.502480 0.801838
C2    C     C_R   0.435446 0.459473 0.980238 -0.003442
C3    C     C_R   0.461257 0.441831 0.871749 -0.017432
C4    C     C_R   0.526055 0.454317 0.033345 0.001904
C5    C     C_R   0.628060 0.407679 0.985158 0.084309
C6    C     C_R   0.634659 0.364347 0.884149 0.082388
C7    C     C_R   0.550835 0.380227 0.828962 0.158559
C8    C     C_R   0.519941 0.500355 0.131637 -0.233156
C9    C     C_R   0.699252 0.440911 0.144133 -0.241593
C10   C     C_R   0.392129 0.481454 0.811795 -0.134543
C11   C     C_R   0.468549 0.185364 0.490566 -0.049602
C12   C     C_R   0.434897 0.492002 0.697036 0.842890
C13   C     C_R   0.530809 0.813632 0.506438 -0.049023
C14   C     C_R   0.629332 0.982594 0.550008 -0.200021
C15   C     C_R   0.622533 0.874715 0.543611 -0.197999
C16   C     C_R   0.446941 0.860811 0.474467 -0.256383
C17   C     C_R   0.453899 0.968527 0.479643 0.146923
C18   C     C_R   0.545203 0.029925 0.518245 0.179304
C19   C     C_R   0.551152 0.137595 0.524266 -0.332540
C20   C     C_R   0.377930 0.123675 0.450693 0.159856
C21   C     C_R   0.370966 0.015469 0.446385 -0.266844
C22   C     C_R   0.946449 0.606381 0.590445 0.036703
C23   C     C_R   0.479769 0.299169 0.496337 0.846029
C24   C     C_R   0.826872 0.594034 0.581436 0.002443
C25   C     C_R   0.858719 0.453004 0.463220 0.290262
C26   C     C_R   0.979425 0.464205 0.467409 0.039642
C27   C     C_R   0.023727 0.540343 0.532613 0.003807
C28   C     C_R   0.144082 0.546597 0.538396 0.030321
C29   C     C_R   0.174189 0.408985 0.416243 0.070497
C30   C     C_R   0.056345 0.398838 0.408522 -0.288511
C31   C     C_R   0.564032 0.502307 0.303217 0.802501
C32   C     C_R   0.716575 0.404005 0.041653 0.173045
C33   C     C_R   0.599059 0.485948 0.190363 -0.081793
C34   C     C_R   0.285644 0.518789 0.864648 0.080667
C35   C     C_R   0.248060 0.511918 0.971904 -0.092936
C36   C     C_R   0.318991 0.480190 0.030501 0.123335
Cu1   Cu    Cu3+1 0.386470 0.492430 0.492410 0.938600
Cu2   Cu    Cu3+1 0.613530 0.507570 0.507590 0.925169
H1    H     H_    0.700020 0.028825 0.579627 0.136805
H2    H     H_    0.301326 0.968410 0.415977 0.136072
H3    H     H_    0.232626 0.358975 0.370452 0.149699
H4    H     H_    0.026495 0.339885 0.356347 0.177127
H5    H     H_    0.452225 0.547267 0.165000 0.158580
N1    N     N_R   0.215880 0.481050 0.481000 -0.186890
N2    N     N_R   0.784100 0.518950 0.519000 -0.205217
O1    O     O_R   0.419710 0.645650 0.494620 -0.594282
O2    O     O_R   0.611450 0.658430 0.507430 -0.587052
O3    O     O_R   0.357340 0.490460 0.641450 -0.592697
O4    O     O_R   0.549080 0.503250 0.654260 -0.564455
O5    O     O_R   0.388550 0.341570 0.492570 -0.547391
O6    O     O_R   0.580290 0.354350 0.505380 -0.609795
O7    O     O_R   0.450920 0.496750 0.345740 -0.584344
O8    O     O_R   0.642660 0.509540 0.358550 -0.590106
H6    H     H_    0.763289 0.431658 0.188065 0.147475
N3    N     N_3   0.294447 0.170173 0.412305 -0.589566
H7    H     H_    0.208371 0.139703 0.454008 0.217824
H8    H     H_    0.302249 0.148237 0.334583 0.207601
H9    H     H_    0.687783 0.839052 0.569079 0.149013
H10   H     H_    0.376518 0.813822 0.444941 0.150327
H11   H     H_    0.180928 0.603309 0.588796 0.145191
N4    N     N_3   0.988968 0.685254 0.657756 -0.597649
H12   H     H_    0.918997 0.722080 0.699717 0.215082
H13   H     H_    0.049403 0.742389 0.610763 0.210855
H14   H     H_    0.767546 0.644728 0.624860 0.133233
N5    N     N_3   0.723287 0.301967 0.834978 -0.612765
H15   H     H_    0.807330 0.348539 0.817713 0.261058
H16   H     H_    0.720614 0.239975 0.883305 0.246551
N6    N     N_3   0.815905 0.367027 0.403897 -0.621468
H17   H     H_    0.764523 0.388499 0.357687 0.258029
H18   H     H_    0.770528 0.305957 0.453665 0.229243
N7    N     N_3   0.823873 0.362425 0.997472 -0.625753
H19   H     H_    0.827293 0.300674 0.043810 0.219940
H20   H     H_    0.896576 0.420649 0.999600 0.231493
N8    N     N_3   0.211415 0.562228 0.812345 -0.587043
H21   H     H_    0.262812 0.623521 0.765031 0.226069
H22   H     H_    0.173597 0.504068 0.767977 0.250838
N9    N     N_3   0.261354 0.452425 0.136381 -0.611931
H23   H     H_    0.303716 0.399559 0.164846 0.231653
H24   H     H_    0.258137 0.519919 0.182186 0.217551
H25   H     H_    0.161156 0.530810 0.010619 0.161923
N10   N     N_3   0.547902 0.322445 0.734807 -0.569153
H26   H     H_    0.632454 0.337804 0.684104 0.260996
H27   H     H_    0.530124 0.242856 0.752265 0.220034
H28   H     H_    0.620066 0.183983 0.555836 0.152120

loop_
_geom_bond_atom_site_label_1
_geom_bond_atom_site_label_2
_ccdc_geom_bond_type
N3    H7    S    
C14   C18   A    
C35   C36   A    
C8    H5    S    
C31   O7    A    
C12   O3    A    
C12   O4    A    
Cu2   O4    S    
N9    H23   S    
Cu2   O8    S    
C11   C19   A    
C26   C27   A    
Cu1   Cu2   S    
N8    H22   S    
C24   N2    A    
C18   C19   A    
C3    C7    A    
C36   N9    S    
C5    C6    A    
C1    O1    A    
C35   H25   S    
C34   C35   A    
N4    H13   S    
Cu2   N2    S    
C9    C32   A    
C14   H1    S    
N6    H17   S    
C6    N5    S    
C16   C17   A    
N5    H16   S    
C31   C33   S    
C4    C8    A    
C5    C32   A    
C28   H11   S    
C24   H14   S    
C9    C33   A    
C25   N6    S    
C20   N3    S    
N10   H27   S    
N10   H26   S    
C32   N7    S    
N9    H24   S    
C11   C20   A    
N8    H21   S    
N7    H20   S    
Cu1   O7    S    
C1    O2    A    
C23   O5    A    
Cu2   O6    S    
C25   C26   A    
C28   N1    A    
C17   C21   A    
C16   H10   S    
C2    C4    A    
C29   C30   A    
C23   O6    A    
C17   C18   A    
C10   C34   A    
C31   O8    A    
Cu1   O3    S    
Cu2   O2    S    
C10   C12   S    
C34   N8    S    
C7    N10   S    
C26   C30   A    
C22   C27   A    
N3    H8    S    
C29   N1    A    
C15   H9    S    
C22   C24   A    
C1    C13   S    
C19   H28   S    
C25   N2    A    
C2    C36   A    
C29   H3    S    
C4    C5    A    
C6    C7    A    
Cu1   N1    S    
C13   C15   A    
C2    C3    A    
N7    H19   S    
C3    C10   A    
C22   N4    S    
Cu1   O5    S    
C21   H2    S    
C11   C23   S    
C8    C33   A    
N4    H12   S    
C20   C21   A    
N6    H18   S    
N5    H15   S    
C13   C16   A    
C27   C28   A    
C14   C15   A    
C30   H4    S    
C9    H6    S    
Cu1   O1    S    
