data_mof_unit_24807.cif
_audit_creation_date              2013-03-05T16:05:19-0500
_audit_creation_method            fapswitch 2.2
_symmetry_space_group_name_H-M    P1
_symmetry_Int_Tables_number       1
_space_group_crystal_system       triclinic
_cell_length_a                    10.799818
_cell_length_b                    9.516647
_cell_length_c                    15.910845
_cell_angle_alpha                 90.08766
_cell_angle_beta                  90.146503
_cell_angle_gamma                 90.006249
_cell_volume                      1635.27844146

loop_
_atom_site_label
_atom_site_type_symbol
_atom_site_description
_atom_site_fract_x
_atom_site_fract_y
_atom_site_fract_z
_atom_type_partial_charge
O1    O     O_R   0.319660 0.618740 0.500000 -0.552056
O2    O     O_R   0.319660 0.381260 0.500000 -0.557617
C1    C     C_R   0.262151 0.499958 0.500047 0.915101
O3    O     O_R   0.500020 0.618840 0.379440 -0.555042
O4    O     O_R   0.500020 0.381160 0.379440 -0.584246
C2    C     C_R   0.499825 0.499876 0.340308 0.840217
Cu1   Cu    Cu3+1 0.500020 0.640660 0.500000 1.042403
Cu2   Cu    Cu3+1 0.500020 0.359340 0.500000 1.035862
O5    O     O_R   0.680370 0.618830 0.500010 -0.587652
O6    O     O_R   0.680370 0.381170 0.500010 -0.590024
O7    O     O_R   0.500010 0.618730 0.620560 -0.573475
O8    O     O_R   0.500010 0.381270 0.620560 -0.553922
C3    C     C_R   0.737596 0.500012 0.500105 0.828406
C4    C     C_R   0.500041 0.500111 0.659725 0.837324
C5    C     C_3   0.485733 0.652634 0.050633 0.079232
C6    C     C_3   0.376015 0.420071 0.048965 0.124087
C7    C     C_3   0.385665 0.405391 0.951601 0.147839
C8    C     C_3   0.491648 0.654247 0.952671 0.137664
H1    H     H_    0.393522 0.692994 0.070061 0.163296
H2    H     H_    0.294904 0.486600 0.064615 0.199491
H3    H     H_    0.411901 0.294890 0.939530 0.212659
H4    H     H_    0.579205 0.705819 0.933584 0.200955
C9    C     C_1   0.498640 0.500358 0.749032 0.029076
C10   C     C_3   0.493954 0.498128 0.083597 -0.170844
C11   C     C_3   0.495741 0.498512 0.916698 -0.268955
C12   C     C_3   0.621694 0.429964 0.950542 0.418941
C13   C     C_3   0.613137 0.425668 0.049558 -0.415103
C14   C     C_1   0.496904 0.500302 0.824411 0.236260
C15   C     C_1   0.495531 0.498298 0.175704 0.181455
C16   C     C_1   0.497829 0.499368 0.251018 -0.008035
H5    H     H_    0.696672 0.468483 0.080465 0.257631
H6    H     H_    0.613416 0.315492 0.071763 0.247809
C17   C     C_R   0.063060 0.401674 0.550342 0.303238
C18   C     C_R   0.062750 0.597818 0.449811 0.325183
C19   C     C_R   0.934467 0.400340 0.547605 -0.184181
C20   C     C_R   0.934218 0.599553 0.452686 -0.190812
H7    H     H_    0.883658 0.325646 0.585647 0.192418
H8    H     H_    0.883251 0.674187 0.414539 0.200758
C21   C     C_R   0.870892 0.500035 0.500184 -0.143970
C22   C     C_R   0.127904 0.499822 0.500110 -0.266312
C23   C     C_R   0.426251 0.074283 0.445658 0.033864
C24   C     C_R   0.426313 0.925458 0.445626 0.047989
H9    H     H_    0.367073 0.130255 0.402151 0.142649
H10   H     H_    0.367295 0.869320 0.402035 0.182331
N1    N     N_R   0.500030 0.852070 0.500020 -0.186039
N2    N     N_R   0.500030 0.147930 0.500020 -0.178923
C25   C     C_R   0.573799 0.925730 0.554379 0.031747
C26   C     C_R   0.573826 0.074570 0.554365 0.040558
H11   H     H_    0.632998 0.869752 0.597859 0.149929
H12   H     H_    0.633075 0.130789 0.597820 0.147766
S1    S     S_3+6 0.374400 0.771418 0.910707 0.091818
O9    O     O_2   0.406134 0.919113 0.936463 -0.168252
O10   O     O_2   0.370546 0.765407 0.816372 -0.237179
O11   O     O_3   0.234180 0.732551 0.949853 -0.460502
H13   H     H_    0.177317 0.802334 0.924466 0.417236
S2    S     S_3+6 0.235736 0.415519 0.899145 0.133027
O12   O     O_2   0.235621 0.516151 0.826605 -0.199388
O13   O     O_2   0.205125 0.271637 0.865890 -0.169648
O14   O     O_3   0.123529 0.463074 0.966662 -0.443639
H14   H     H_    0.045335 0.453361 0.934496 0.421697
S3    S     S_3+6 0.342031 0.251570 0.097196 0.055434
O15   O     O_2   0.227299 0.191606 0.057311 -0.161035
O16   O     O_2   0.446793 0.149945 0.084651 -0.252959
O17   O     O_3   0.315507 0.271648 0.200616 -0.528122
H15   H     H_    0.307322 0.174891 0.222791 0.375935
S4    S     S_3+6 0.592037 0.776629 0.099633 0.095767
O18   O     O_2   0.713008 0.709367 0.122901 -0.200176
O19   O     O_2   0.617688 0.898296 0.042126 -0.147787
O20   O     O_3   0.526626 0.838506 0.188105 -0.498471
H16   H     H_    0.450993 0.888265 0.169223 0.373970
N3    N     N_R   0.729390 0.513627 0.921738 0.125995
O21   O     O_R   0.796997 0.587577 0.973170 -0.278347
O22   O     O_R   0.762285 0.508420 0.843137 -0.321526
N4    N     N_R   0.641946 0.284128 0.920479 0.148988
O23   O     O_R   0.586700 0.234873 0.853840 -0.322218
O24   O     O_R   0.734614 0.212795 0.950926 -0.228348
N5    N     N_R   0.125543 0.307233 0.606796 0.153497
O25   O     O_R   0.212068 0.353861 0.656600 -0.292984
O26   O     O_R   0.082592 0.181009 0.618471 -0.293676
N6    N     N_R   0.124912 0.691058 0.392735 0.132108
O27   O     O_R   0.083274 0.817935 0.381301 -0.325856
O28   O     O_R   0.209156 0.642591 0.342046 -0.362287

loop_
_geom_bond_atom_site_label_1
_geom_bond_atom_site_label_2
_geom_bond_distance
_ccdc_geom_bond_type
C5    C8    1.560232 S    
S4    O19   1.503021 D    
C23   C24   1.416314 A    
C10   C13   1.558273 S    
Cu1   Cu2   2.677223 S    
C25   H11   1.081706 S    
N5    O25   1.301187 A    
C11   C14   1.468565 S    
Cu1   O7    1.929847 S    
C12   C13   1.578968 S    
N4    O24   1.302223 A    
C18   C22   1.415942 A    
Cu1   N1    2.011914 S    
C19   H7    1.084287 S    
O4    C2    1.290820 A    
O7    C4    1.290263 A    
S4    O20   1.682237 S    
S2    O12   1.500875 D    
N1    C25   1.366991 A    
S3    O16   1.502021 D    
O5    C3    1.288690 A    
C10   C15   1.465554 S    
C12   N4    1.483702 S    
C18   N6    1.438118 S    
C5    H1    1.111806 S    
C6    C7    1.558958 S    
C23   N2    1.367020 A    
Cu2   O8    1.929213 S    
C26   H12   1.081786 S    
S4    O18   1.500686 D    
O14   H14   0.990581 S    
C6    C10   1.572498 S    
O1    Cu1   1.958971 S    
C12   N3    1.483370 S    
C23   H9    1.081807 S    
O20   H16   0.990435 S    
C8    C11   1.588604 S    
C24   H10   1.081324 S    
O3    Cu1   1.929102 S    
C8    S1    1.814081 S    
N5    O26   1.301385 A    
N2    C26   1.367002 A    
C17   C22   1.416558 A    
N4    O23   1.301969 A    
C13   H5    1.103977 S    
S1    O9    1.502804 D    
N6    O28   1.301421 A    
N3    O22   1.301841 A    
C11   C12   1.601059 S    
C5    S4    1.819513 S    
C7    H3    1.105784 S    
S1    O10   1.502428 D    
C24   N1    1.367133 A    
C4    C9    1.421082 S    
S3    O17   1.681575 S    
C19   C21   1.393042 A    
C15   C16   1.198529 T    
C25   C26   1.416457 A    
C6    H2    1.109488 S    
C9    C14   1.199536 T    
C7    S2    1.822383 S    
O3    C2    1.291213 A    
C5    C10   1.564328 S    
C2    C16   1.420790 S    
O8    C4    1.290437 A    
C1    C22   1.449849 S    
C6    S3    1.816615 S    
Cu1   O5    1.958818 S    
O11   H13   0.990435 S    
C13   H6    1.106952 S    
C8    H4    1.108632 S    
C20   C21   1.393020 A    
O2    Cu2   1.959016 S    
N6    O27   1.301385 A    
O6    C3    1.288762 A    
O4    Cu2   1.929734 S    
S2    O14   1.683039 S    
S1    O11   1.680303 S    
C7    C11   1.584821 S    
O17   H15   0.990610 S    
C20   H8    1.084226 S    
O2    C1    1.289149 A    
N3    O21   1.301191 A    
C17   N5    1.438565 S    
C17   C19   1.389402 A    
S2    O13   1.503648 D    
C18   C20   1.389096 A    
S3    O15   1.502807 D    
Cu2   N2    2.011916 S    
C3    C21   1.439563 S    
Cu2   O6    1.958773 S    
O1    C1    1.289736 A    
