data_mof_unit_51554.cif
_audit_creation_date              2012-12-10T17:03:24-0500
_audit_creation_method            fapswitch 2.2
_symmetry_space_group_name_H-M    P1
_symmetry_Int_Tables_number       1
_space_group_crystal_system       triclinic
_cell_length_a                    15.043986
_cell_length_b                    10.918165
_cell_length_c                    9.851009
_cell_angle_alpha                 110.627158
_cell_angle_beta                  98.739556
_cell_angle_gamma                 90.854804
_cell_volume                      1492.64034149

loop_
_atom_site_label
_atom_site_type_symbol
_atom_type_description
_atom_site_fract_x
_atom_site_fract_y
_atom_site_fract_z
_atom_type_partial_charge
C1    C     C_R   0.490893 0.253326 0.441667 0.840917
C2    C     C_R   0.503919 0.746592 0.558416 0.840976
C3    C     C_R   0.042663 0.267887 0.467705 -0.136744
C4    C     C_R   0.953266 0.717249 0.488614 -0.135645
C5    C     C_2   0.480337 0.111630 0.412828 0.223220
C6    C     C_2   0.499773 0.888024 0.587478 0.227049
C7    C     C_2   0.449969 0.069806 0.512478 0.374177
C8    C     C_2   0.447483 0.928596 0.489563 0.373660
C9    C     C_2   0.507036 0.510490 0.080721 0.202053
C10   C     C_2   0.492520 0.490270 0.919518 0.201352
C11   C     C_R   0.329298 0.500152 0.500737 0.944430
C12   C     C_R   0.670647 0.499390 0.499034 0.931187
C13   C     C_R   0.812610 0.606488 0.490190 0.286089
C14   C     C_R   0.184765 0.383726 0.482038 0.290323
C15   C     C_R   0.766633 0.496865 0.495894 -0.216211
C16   C     C_R   0.233013 0.500578 0.501508 -0.213871
C17   C     C_R   0.810527 0.384383 0.496251 0.312840
C18   C     C_R   0.190130 0.616588 0.516158 0.325767
C19   C     C_R   0.903278 0.378560 0.483903 -0.047547
C20   C     C_R   0.094832 0.613963 0.499590 -0.047232
C21   C     C_R   0.951563 0.493910 0.487765 -0.045176
C22   C     C_R   0.046016 0.496951 0.489461 -0.048309
C23   C     C_R   0.905690 0.606732 0.489923 -0.008798
C24   C     C_R   0.091477 0.382610 0.480954 -0.008343
C25   C     C_R   0.950458 0.263623 0.467483 0.417640
C26   C     C_R   0.045712 0.721912 0.491554 0.420466
Cu1   Cu    Cu3+1 0.515770 0.521810 0.644910 1.082688
Cu2   Cu    Cu3+1 0.484230 0.478190 0.355090 1.076077
H1    H     H_    0.075705 0.178280 0.456013 0.254914
H2    H     H_    0.918819 0.802126 0.483390 0.256113
H3    H     H_    0.439962 0.418188 0.845889 0.181658
H4    H     H_    0.559129 0.583322 0.154593 0.168872
N1    N     N_2   0.460520 0.445420 0.137370 -0.055550
N2    N     N_2   0.539480 0.554580 0.862630 -0.056383
O1    O     O_R   0.508410 0.332340 0.577400 -0.532926
O2    O     O_R   0.491590 0.667660 0.422600 -0.537380
O3    O     O_R   0.481780 0.295500 0.332650 -0.600709
O4    O     O_R   0.518220 0.704500 0.667350 -0.596459
O5    O     O_R   0.383570 0.518390 0.622380 -0.572114
O6    O     O_R   0.616430 0.481610 0.377620 -0.581790
O7    O     O_R   0.356940 0.481550 0.377630 -0.562085
O8    O     O_R   0.643060 0.518450 0.622370 -0.560199
Cl1   Cl    Cl    0.752157 0.745211 0.489705 -0.549981
Cl2   Cl    Cl    0.243351 0.239773 0.460968 -0.574584
Cl3   Cl    Cl    0.746328 0.259528 0.523264 -0.476301
Cl4   Cl    Cl    0.260531 0.763580 0.572712 -0.510639
Cl5   Cl    Cl    0.901092 0.105071 0.431286 -0.416242
Cl6   Cl    Cl    0.090363 0.861597 0.466635 -0.431059
O9    O     O_3   0.393123 0.839338 0.367399 -0.659962
H5    H     H_    0.356506 0.888734 0.314651 0.372393
O10   O     O_3   0.423036 0.157856 0.636612 -0.675076
H6    H     H_    0.398420 0.107572 0.690823 0.377093
O11   O     O_3   0.550086 0.979866 0.712328 -0.697816
H7    H     H_    0.587516 0.932987 0.767196 0.358000
O12   O     O_3   0.502853 0.020819 0.286386 -0.698581
H8    H     H_    0.528195 0.068581 0.230396 0.362411
O13   O     O_3   0.604191 0.644052 0.954380 -0.606478
H9    H     H_    0.631370 0.681681 0.890997 0.385250
O14   O     O_3   0.396342 0.355153 0.045381 -0.615983
H10   H     H_    0.369311 0.317249 0.108668 0.388557

loop_
_geom_bond_atom_site_label_1
_geom_bond_atom_site_label_2
_ccdc_geom_bond_type
C12   O6    A    
N2    O13   S    
C4    C26   A    
O12   H8    S    
C15   C17   A    
C14   C16   A    
C26   Cl6   S    
C11   C16   S    
C25   Cl5   S    
C14   Cl2   S    
C12   C15   S    
C1    O3    A    
Cu1   O1    S    
C13   C15   A    
N1    O14   S    
C7    O10   S    
O14   H10   S    
C10   N2    D    
C21   C22   A    
C9    N1    D    
Cu1   O8    S    
C1    O1    A    
O13   H9    S    
C2    C6    S    
C12   O8    A    
C20   C26   A    
Cu2   O3    S    
C1    C5    S    
C18   Cl4   S    
C16   C18   A    
C19   C21   A    
C13   C23   A    
C20   C22   A    
Cu2   N1    S    
C11   O7    A    
C18   C20   A    
C21   C23   A    
Cu1   N2    S    
C19   C25   A    
C22   C24   A    
C8    O9    S    
C7    C8    S    
Cu2   O6    S    
Cu1   O4    S    
C14   C24   A    
O10   H6    S    
C11   O5    A    
Cu2   O7    S    
C13   Cl1   S    
C3    C25   A    
Cu1   O5    S    
Cu2   O2    S    
C3    H1    S    
O9    H5    S    
C9    C10   S    
C2    O2    A    
Cu1   Cu2   S    
C5    C7    D    
C4    C23   A    
C2    O4    A    
C6    C8    D    
C6    O11   S    
C9    H4    S    
C17   C19   A    
O11   H7    S    
C10   H3    S    
C5    O12   S    
C4    H2    S    
C17   Cl3   S    
C3    C24   A    
