data_mof_unit_46802.cif
_audit_creation_date              2012-12-10T20:39:58-0500
_audit_creation_method            fapswitch 2.2
_symmetry_space_group_name_H-M    P1
_symmetry_Int_Tables_number       1
_space_group_crystal_system       triclinic
_cell_length_a                    23.419517
_cell_length_b                    10.661517
_cell_length_c                    9.856014
_cell_angle_alpha                 89.894956
_cell_angle_beta                  90.003268
_cell_angle_gamma                 89.959577
_cell_volume                      2460.91951807

loop_
_atom_site_label
_atom_site_type_symbol
_atom_type_description
_atom_site_fract_x
_atom_site_fract_y
_atom_site_fract_z
_atom_type_partial_charge
C1    C     C_R   0.500855 0.260072 0.500257 0.880378
C2    C     C_R   0.967998 0.345069 0.690809 -0.115117
C3    C     C_R   0.027643 0.335998 0.689531 -0.029701
C4    C     C_R   0.059531 0.411454 0.596906 -0.098949
C5    C     C_R   0.029888 0.487624 0.501888 -0.008863
C6    C     C_R   0.060067 0.560881 0.406405 -0.008315
C7    C     C_R   0.030441 0.634580 0.311480 -0.143617
C8    C     C_R   0.971193 0.636894 0.311103 -0.134421
C9    C     C_R   0.119775 0.417607 0.596745 0.496650
C10   C     C_R   0.119462 0.559613 0.408477 0.517162
C11   C     C_R   0.238050 0.542318 0.612834 -0.074700
C12   C     C_R   0.389408 0.499613 0.500128 0.886736
C13   C     C_R   0.297304 0.544374 0.612549 -0.220347
C14   C     C_R   0.327372 0.497209 0.500700 -0.034757
C15   C     C_R   0.297796 0.446262 0.390204 -0.209394
C16   C     C_R   0.238586 0.442465 0.391575 -0.087570
C17   C     C_R   0.208653 0.490981 0.502554 0.303881
C18   C     C_R   0.761669 0.394236 0.440313 -0.015719
C19   C     C_R   0.701372 0.396194 0.439258 -0.072950
C20   C     C_R   0.672395 0.498697 0.499626 -0.202588
C21   C     C_R   0.702702 0.600505 0.556162 -0.060619
C22   C     C_R   0.762092 0.597674 0.553615 -0.019274
C23   C     C_R   0.503557 0.739585 0.500054 0.866988
C24   C     C_R   0.791128 0.496552 0.496937 0.150081
C25   C     C_R   0.491679 0.063074 0.617759 0.139193
C26   C     C_R   0.508125 0.128663 0.502819 -0.134859
C27   C     C_R   0.537122 0.067479 0.397630 -0.169506
C28   C     C_R   0.541440 0.936878 0.399021 -0.039023
C29   C     C_R   0.512429 0.871220 0.503244 -0.175876
C30   C     C_R   0.492428 0.935805 0.616370 0.128577
C31   C     C_3   0.438228 0.926360 0.697301 -0.228106
C32   C     C_3   0.437728 0.069332 0.698726 -0.488113
C33   C     C_R   0.467982 0.414650 0.071372 0.237512
C34   C     C_R   0.610354 0.500597 0.499932 0.800937
C35   C     C_R   0.535645 0.575952 0.071759 -0.086309
C36   C     C_R   0.535576 0.576176 0.927742 -0.098766
C37   C     C_R   0.468017 0.414594 0.928734 0.222817
C38   C     C_3   0.404751 0.400856 0.922796 -0.496756
C39   C     C_3   0.404686 0.401163 0.076715 -0.514817
C40   C     C_R   0.880906 0.567007 0.407128 0.513919
C41   C     C_R   0.879390 0.426836 0.596558 0.518792
C42   C     C_R   0.939029 0.421373 0.598026 -0.064449
C43   C     C_R   0.969824 0.491503 0.502024 -0.014729
C44   C     C_R   0.940514 0.566072 0.406102 -0.016261
H1    H     H_    0.943898 0.288099 0.761770 0.225974
H2    H     H_    0.786619 0.674390 0.595915 0.192713
H3    H     H_    0.555654 0.121010 0.315065 0.206471
H4    H     H_    0.402049 0.114003 0.641739 0.219296
H5    H     H_    0.445226 0.108975 0.801420 0.193965
H6    H     H_    0.383296 0.485060 0.120236 0.225120
H7    H     H_    0.052928 0.690963 0.237209 0.200467
H8    H     H_    0.949577 0.694603 0.236494 0.204075
H9    H     H_    0.214899 0.580567 0.698418 0.155939
H10   H     H_    0.320376 0.407515 0.304187 0.154897
N1    N     N_R   0.851938 0.497375 0.500831 -0.367904
N2    N     N_R   0.147763 0.489067 0.502469 -0.349670
N3    N     N_R   0.499610 0.499140 0.142800 -0.118515
N4    N     N_R   0.499610 0.499180 0.857150 -0.119378
O1    O     O_R   0.500010 0.316790 0.614690 -0.605214
O2    O     O_2   0.848862 0.361612 0.688966 -0.515554
O3    O     O_2   0.150622 0.355417 0.690686 -0.581852
O4    O     O_2   0.149004 0.630045 0.318690 -0.548105
O5    O     O_R   0.500000 0.316760 0.385350 -0.620104
O6    O     O_R   0.416160 0.499980 0.614700 -0.630942
O7    O     O_R   0.416150 0.499940 0.385360 -0.610403
O8    O     O_R   0.500000 0.683240 0.614650 -0.633152
O9    O     O_R   0.499990 0.683210 0.385310 -0.618444
O10   O     O_R   0.583850 0.500060 0.614640 -0.607483
O11   O     O_R   0.583840 0.500020 0.385300 -0.621976
O12   O     O_2   0.851943 0.635905 0.314913 -0.520254
Zn1   Zn    Zn3+2 0.500000 0.500020 0.653130 0.955494
Zn2   Zn    Zn3+2 0.500000 0.499980 0.346870 0.968998
C45   C     C_2   0.667843 0.293581 0.375165 0.562390
H11   H     H_    0.628601 0.261545 0.422082 0.017455
O13   O     O_2   0.682286 0.248262 0.266783 -0.500568
C46   C     C_2   0.673129 0.712377 0.613317 0.445111
H12   H     H_    0.627179 0.722388 0.606120 0.041650
O14   O     O_2   0.699972 0.795998 0.668818 -0.519767
C47   C     C_2   0.576460 0.872666 0.294562 0.461095
H13   H     H_    0.590969 0.777225 0.310620 0.053814
O15   O     O_2   0.590745 0.926736 0.190636 -0.532996
C48   C     C_2   0.388593 0.869011 0.622106 0.467993
H14   H     H_    0.362892 0.798030 0.671856 0.045001
O16   O     O_2   0.376714 0.901401 0.506520 -0.551620
H15   H     H_    0.445422 0.884351 0.799258 0.142893
H16   H     H_    0.563698 0.638798 0.125804 0.159495
C49   C     C_2   0.053792 0.240910 0.780701 0.493269
H17   H     H_    0.090605 0.187008 0.748616 0.121872
O17   O     O_2   0.033045 0.218564 0.891839 -0.550614
H18   H     H_    0.563421 0.639558 0.873167 0.163901
H19   H     H_    0.383290 0.484327 0.878274 0.217525
H20   H     H_    0.391630 0.309498 0.878608 0.206546
H21   H     H_    0.391497 0.309948 0.121570 0.209773
H22   H     H_    0.319516 0.584084 0.698674 0.141526
H23   H     H_    0.215848 0.402010 0.306585 0.156158
C50   C     C_2   0.795302 0.286113 0.388012 0.559149
H24   H     H_    0.837064 0.301643 0.343348 0.046076
O18   O     O_2   0.778279 0.178508 0.400510 -0.490739

loop_
_geom_bond_atom_site_label_1
_geom_bond_atom_site_label_2
_ccdc_geom_bond_type
C49   H17   S    
C31   H15   S    
C18   C50   S    
C45   H11   S    
C19   C20   A    
C7    C8    A    
C24   N1    S    
C21   C46   S    
C26   C27   A    
C29   C30   A    
C31   C48   S    
C40   O12   S    
C18   C24   A    
C23   C29   S    
C23   O8    A    
C28   C29   A    
C46   O14   D    
C18   C19   A    
C36   N4    A    
C1    O1    A    
C5    C6    A    
C12   O6    A    
C35   H16   S    
N4    Zn1   S    
C27   H3    S    
C15   C16   A    
C38   H20   S    
O9    Zn2   S    
C41   C42   A    
O6    Zn1   S    
C23   O9    A    
C28   C47   S    
C41   N1    A    
C39   H21   S    
C31   C32   S    
C16   C17   A    
C50   O18   D    
C10   N2    A    
C8    H8    S    
C37   N4    A    
C11   H9    S    
C20   C34   S    
C25   C32   S    
C5    C43   A    
C21   C22   A    
C32   H4    S    
C10   O4    S    
C1    O5    A    
C2    H1    S    
C3    C49   S    
C15   H10   S    
C19   C45   S    
C46   H12   S    
C34   O10   A    
C47   O15   D    
C25   C26   A    
C38   H19   S    
C33   C37   A    
C35   C36   A    
O11   Zn2   S    
C43   C44   A    
C37   C38   S    
C9    O3    S    
O8    Zn1   S    
C34   O11   A    
C30   C31   S    
C40   N1    A    
C50   H24   S    
C9    N2    A    
C33   C39   S    
C20   C21   A    
C17   N2    S    
C22   H2    S    
C12   C14   S    
C48   O16   D    
C49   O17   D    
C1    C26   S    
C22   C24   A    
C42   C43   A    
C45   O13   D    
C3    C4    A    
C36   H18   S    
C25   C30   A    
C11   C17   A    
C16   H23   S    
C33   N3    A    
C8    C44   A    
C41   O2    S    
C4    C5    A    
C6    C10   A    
C6    C7    A    
O7    Zn2   S    
C12   O7    A    
C13   H22   S    
C35   N3    A    
C2    C3    A    
C7    H7    S    
C11   C13   A    
C38   C39   S    
C2    C42   A    
O10   Zn1   S    
N3    Zn2   S    
C32   H5    S    
C47   H13   S    
C40   C44   A    
C39   H6    S    
O5    Zn2   S    
C48   H14   S    
C27   C28   A    
C14   C15   A    
C4    C9    A    
C13   C14   A    
O1    Zn1   S    
