data_mof_unit_45729.cif
_audit_creation_date              2012-10-26T21:13:42-0400
_audit_creation_method            fapswitch 2.2
_symmetry_space_group_name_H-M    P1
_symmetry_Int_Tables_number       1
_space_group_crystal_system       triclinic
_cell_length_a                    9.06696
_cell_length_b                    10.861706
_cell_length_c                    9.603966
_cell_angle_alpha                 91.38408
_cell_angle_beta                  90.184244
_cell_angle_gamma                 91.526824
_cell_volume                      945.205349991

loop_
_atom_site_label
_atom_site_type_symbol
_atom_type_description
_atom_site_fract_x
_atom_site_fract_y
_atom_site_fract_z
_atom_type_partial_charge
C1    C     C_R   0.495115 0.262074 0.497828 0.572846
C2    C     C_R   0.623225 0.535734 0.928431 0.149583
C3    C     C_3   0.710499 0.653307 0.924660 -0.253501
C4    C     C_R   0.220876 0.499967 0.499848 0.571401
C5    C     C_3   0.705306 0.657569 0.083407 -0.240432
C6    C     C_R   0.488353 0.736986 0.500858 0.556890
C7    C     C_R   0.779123 0.500252 0.500167 0.545308
C8    C     C_1   0.065618 0.500105 0.499821 -0.007759
C9    C     C_1   0.934398 0.500197 0.500217 -0.028094
C10   C     C_R   0.465953 0.066722 0.618573 -0.046355
C11   C     C_R   0.472668 0.128293 0.493319 -0.036637
C12   C     C_R   0.424732 0.928959 0.374891 0.239912
C13   C     C_R   0.442101 0.058074 0.368877 0.247202
C14   C     C_1   0.270950 0.375823 0.140564 0.307095
C15   C     C_1   0.283926 0.362338 0.847892 0.262408
C16   C     C_R   0.458630 0.868811 0.500029 -0.051236
C17   C     C_R   0.460605 0.940673 0.622140 0.023765
C18   C     C_3   0.546632 0.939515 0.754224 0.120996
C19   C     C_3   0.555624 0.079526 0.748767 -0.183409
C20   C     C_R   0.622283 0.537494 0.074555 0.156541
C21   C     C_R   0.390068 0.440830 0.071944 0.094893
C22   C     C_R   0.391948 0.438627 0.922977 0.075250
Cl1   Cl    Cl    0.437214 0.123623 0.202262 -0.485879
Cl2   Cl    Cl    0.353076 0.846814 0.227024 -0.442784
Cl3   Cl    Cl    0.431343 0.887518 0.892083 -0.479733
Cu1   Cu    Cu3+1 0.499990 0.499980 0.640670 1.004216
Cu2   Cu    Cu3+1 0.500010 0.500020 0.359330 1.055797
H1    H     H_    0.649427 0.726625 0.875272 0.197387
H2    H     H_    0.815610 0.649022 0.132510 0.146687
H3    H     H_    0.638003 0.733470 0.126396 0.219935
H4    H     H_    0.655184 0.895440 0.742890 0.105860
H5    H     H_    0.495543 0.127787 0.833858 0.217668
H6    H     H_    0.669150 0.116348 0.729417 0.120185
H7    H     H_    0.823252 0.639688 0.882895 0.141701
N1    N     N_R   0.500920 0.500930 0.147930 -0.235715
N2    N     N_R   0.500930 0.500890 0.852020 -0.242817
N3    N     N_1   0.174266 0.322926 0.192921 -0.228971
N4    N     N_1   0.197265 0.300056 0.789439 -0.262172
O1    O     O_R   0.500000 0.319640 0.618810 -0.512947
O2    O     O_R   0.500020 0.319680 0.381230 -0.451187
O3    O     O_R   0.288380 0.499980 0.618770 -0.492029
O4    O     O_R   0.288400 0.500020 0.381190 -0.489456
O5    O     O_R   0.499980 0.680320 0.618770 -0.490005
O6    O     O_R   0.500000 0.680360 0.381190 -0.463625
O7    O     O_R   0.711600 0.499980 0.618810 -0.507305
O8    O     O_R   0.711620 0.500020 0.381230 -0.501481

loop_
_geom_bond_atom_site_label_1
_geom_bond_atom_site_label_2
_ccdc_geom_bond_type
C15   N4    T    
C21   N1    A    
C22   N2    A    
C12   Cl2   S    
C3    H7    S    
Cu2   O2    S    
C4    C8    S    
C1    O2    A    
C2    C3    S    
C5    C20   S    
C6    O6    A    
C21   C22   A    
C14   N3    T    
C11   C13   A    
Cu2   O4    S    
C13   Cl1   S    
Cu1   Cu2   S    
C18   Cl3   S    
C4    O4    A    
C19   H5    S    
C7    O7    A    
C14   C21   S    
Cu1   N2    S    
C3    H1    S    
Cu1   O3    S    
C10   C19   S    
Cu1   O5    S    
C17   C18   S    
C5    H2    S    
C6    O5    A    
C19   H6    S    
Cu1   O1    S    
C4    O3    A    
C1    O1    A    
C10   C17   A    
C2    C20   A    
C7    O8    A    
C12   C13   A    
Cu2   O8    S    
C18   C19   S    
C10   C11   A    
C2    N2    A    
C7    C9    S    
C16   C17   A    
C18   H4    S    
Cu1   O7    S    
Cu2   N1    S    
C20   N1    A    
C6    C16   S    
Cu2   O6    S    
C15   C22   S    
C12   C16   A    
C5    H3    S    
C8    C9    T    
C3    C5    S    
C1    C11   S    
