data_mof_unit_7552.cif
_audit_creation_date              2012-12-11T15:31:43-0500
_audit_creation_method            fapswitch 2.2
_symmetry_space_group_name_H-M    P1
_symmetry_Int_Tables_number       1
_space_group_crystal_system       triclinic
_cell_length_a                    6.942731
_cell_length_b                    14.774932
_cell_length_c                    21.303001
_cell_angle_alpha                 74.599285
_cell_angle_beta                  90.457024
_cell_angle_gamma                 90.588897
_cell_volume                      2106.61787134

loop_
_atom_site_label
_atom_site_type_symbol
_atom_type_description
_atom_site_fract_x
_atom_site_fract_y
_atom_site_fract_z
_atom_type_partial_charge
O1    O     O_R   0.648150 0.130050 0.214300 -0.535636
O2    O     O_R   0.351850 0.869950 0.785700 -0.535638
O3    O     O_R   0.320490 0.006660 0.340150 -0.545746
O4    O     O_R   0.679510 0.993340 0.659850 -0.545745
O5    O     O_R   0.146100 0.869940 0.285700 -0.534815
O6    O     O_R   0.853900 0.130060 0.714300 -0.534820
C1    C     C_R   0.489454 0.001559 0.367144 0.671871
C2    C     C_R   0.510546 0.998440 0.632856 0.671873
O7    O     O_R   0.318690 0.137980 0.218120 -0.540972
O8    O     O_R   0.681310 0.862020 0.781880 -0.540966
O9    O     O_R   0.144280 0.002190 0.162800 -0.540753
O10   O     O_R   0.855720 0.997810 0.837200 -0.540752
C3    C     C_R   0.487704 0.175737 0.205317 0.702835
C4    C     C_R   0.512297 0.824263 0.794682 0.702842
O11   O     O_R   0.649960 0.997790 0.337200 -0.542848
O12   O     O_R   0.350040 0.002210 0.662800 -0.542841
O13   O     O_3   0.479300 0.955290 0.231990 -0.365395
O14   O     O_3   0.520700 0.044710 0.768010 -0.365408
V1    V     V_3+5 0.206040 0.008290 0.253340 1.438141
V2    V     V_3+5 0.793960 0.991710 0.746660 1.438128
O15   O     O_R   0.814320 0.993320 0.159850 -0.542023
O16   O     O_R   0.185680 0.006680 0.840150 -0.542029
C5    C     C_R   0.982412 0.998636 0.132784 0.704136
C6    C     C_R   0.017588 0.001363 0.867216 0.704131
O17   O     O_R   0.816120 0.862000 0.281880 -0.540707
O18   O     O_R   0.183880 0.138000 0.718120 -0.540724
C7    C     C_R   0.984227 0.824350 0.293557 0.702248
C8    C     C_R   0.015774 0.175650 0.706445 0.702241
V3    V     V_3+5 0.705540 0.991700 0.246660 1.447465
V4    V     V_3+5 0.294460 0.008300 0.753340 1.447409
O19   O     O_3   0.982150 0.044700 0.268010 -0.373301
O20   O     O_3   0.017850 0.955300 0.731990 -0.373292
C9    C     C_R   0.988805 0.722913 0.321112 -0.041386
C10   C     C_R   0.011233 0.277092 0.678902 -0.041365
C11   C     C_R   0.943561 0.566405 0.309087 -0.098606
C12   C     C_R   0.057222 0.433568 0.690906 -0.098638
C13   C     C_R   0.953074 0.662874 0.281633 -0.111206
C14   C     C_R   0.047479 0.337105 0.718363 -0.111168
C15   C     C_R   0.012538 0.686849 0.388263 -0.210767
C16   C     C_R   0.987250 0.313174 0.611762 -0.210770
C17   C     C_R   0.996923 0.589279 0.417910 0.085652
C18   C     C_R   0.003343 0.410724 0.582101 0.085634
C19   C     C_R   0.963040 0.529289 0.376680 0.138851
C20   C     C_R   0.037597 0.470695 0.623320 0.138837
C21   C     C_R   0.010404 0.549665 0.486821 0.063421
C22   C     C_R   0.989995 0.450331 0.513186 0.063420
C23   C     C_R   0.958306 0.393930 0.469754 -0.187675
C24   C     C_R   0.042457 0.606047 0.530243 -0.187669
C25   C     C_R   0.945557 0.432823 0.403068 -0.185068
C26   C     C_R   0.055370 0.567147 0.596925 -0.185054
H1    H     H_    0.919952 0.386716 0.371790 0.120366
H2    H     H_    0.081344 0.613234 0.628193 0.120380
H3    H     H_    0.962034 0.262562 0.584328 0.090370
H4    H     H_    0.037136 0.737489 0.415716 0.090331
H5    H     H_    0.069648 0.309133 0.770282 0.125684
H6    H     H_    0.931113 0.690829 0.229704 0.125715
H7    H     H_    0.916771 0.520793 0.277571 0.117415
H8    H     H_    0.084361 0.479161 0.722413 0.117451
H9    H     H_    0.941877 0.318834 0.485443 0.116146
H10   H     H_    0.059277 0.681124 0.514544 0.116156
C27   C     C_3   0.907820 0.924186 0.990883 -0.109920
C28   C     C_3   0.092181 0.075812 0.009117 -0.109911
C29   C     C_3   0.083602 0.921982 0.036587 -0.121542
C30   C     C_3   0.916398 0.078016 0.963413 -0.121546
H11   H     H_    0.152465 0.857723 0.067260 0.143847
H12   H     H_    0.847535 0.142276 0.932741 0.143845
H13   H     H_    0.831098 0.861843 0.982915 0.130253
H14   H     H_    0.168905 0.138155 0.017085 0.130256
C31   C     C_3   0.990619 0.999231 0.062151 -0.025096
C32   C     C_3   0.009382 0.000767 0.937850 -0.025101
C33   C     C_3   0.814699 0.001468 0.017256 -0.129694
C34   C     C_3   0.185301 0.998530 0.982744 -0.129697
H15   H     H_    0.661793 0.002721 0.031828 0.115435
H16   H     H_    0.338208 0.997277 0.968172 0.115431
C35   C     C_3   0.681289 0.994705 0.479672 -0.120178
C36   C     C_3   0.318710 0.005295 0.520328 -0.120181
C37   C     C_3   0.603032 0.073635 0.507729 -0.135664
C38   C     C_3   0.396968 0.926364 0.492271 -0.135664
H17   H     H_    0.687895 0.134434 0.514597 0.098258
H18   H     H_    0.312105 0.865566 0.485403 0.098244
H19   H     H_    0.830844 0.990399 0.462669 0.107347
H20   H     H_    0.169155 0.009600 0.537331 0.107348
C39   C     C_3   0.502211 0.999026 0.562259 -0.004819
C40   C     C_3   0.497788 0.000974 0.437741 -0.004812
C41   C     C_3   0.580539 0.920110 0.535021 -0.142074
C42   C     C_3   0.419460 0.079889 0.464979 -0.142068
H21   H     H_    0.646569 0.854138 0.564397 0.102875
H22   H     H_    0.353430 0.145861 0.435603 0.102859
C43   C     C_R   0.495990 0.277788 0.178190 -0.047032
C44   C     C_R   0.504030 0.722212 0.821810 -0.047041
C45   C     C_R   0.472163 0.434037 0.193267 -0.031636
C46   C     C_R   0.528066 0.565969 0.806736 -0.031613
C47   C     C_R   0.489885 0.337002 0.219052 -0.215067
C48   C     C_R   0.510245 0.662999 0.780949 -0.215056
C49   C     C_R   0.500417 0.315736 0.111028 -0.172119
C50   C     C_R   0.499605 0.684264 0.888972 -0.172126
C51   C     C_R   0.502417 0.413899 0.083007 0.075378
C52   C     C_R   0.497689 0.586102 0.916996 0.075380
C53   C     C_R   0.462651 0.473423 0.124116 0.033143
C54   C     C_R   0.537546 0.526584 0.875889 0.033150
C55   C     C_R   0.529291 0.453132 0.014485 0.004634
C56   C     C_R   0.470830 0.546868 0.985520 0.004643
C57   C     C_R   0.383010 0.597432 0.025831 -0.092614
C58   C     C_R   0.617151 0.402571 0.974179 -0.092617
C59   C     C_R   0.399723 0.566267 0.094200 -0.108311
C60   C     C_R   0.600530 0.433750 0.905807 -0.108330
H23   H     H_    0.507917 0.732777 0.919017 0.108000
H24   H     H_    0.492063 0.267229 0.080979 0.107996
H25   H     H_    0.508463 0.693114 0.728595 0.102859
H26   H     H_    0.491695 0.306886 0.271407 0.102868
C61   C     C_1   0.331793 0.628265 0.131848 0.312442
N1    N     N_1   0.277431 0.678593 0.161115 -0.370226
C62   C     C_1   0.668628 0.371783 0.868161 0.312492
N2    N     N_1   0.723135 0.321482 0.838895 -0.370212
C63   C     C_1   0.467566 0.488891 0.240231 0.283466
N3    N     N_1   0.464334 0.531949 0.278371 -0.331407
C64   C     C_1   0.532820 0.511120 0.759771 0.283417
N4    N     N_1   0.536183 0.468067 0.721631 -0.331433
C65   C     C_1   0.250161 0.673436 0.998437 0.298942
N5    N     N_1   0.143725 0.733536 0.976619 -0.387154
C66   C     C_1   0.749943 0.326548 0.001589 0.298947
N6    N     N_1   0.856334 0.266433 0.023419 -0.387160

loop_
_geom_bond_atom_site_label_1
_geom_bond_atom_site_label_2
_ccdc_geom_bond_type
C27   C32   S    
C29   H11   S    
C55   C56   A    
O11   V3    S    
C2    C39   S    
O13   V3    S    
C5    C31   S    
C61   N1    T    
O4    C2    A    
V1    O19   S    
C58   C60   A    
C6    C32   S    
C23   C25   A    
C21   C22   A    
C7    C9    S    
O9    V1    S    
C9    C15   A    
C10   C16   A    
C11   C13   A    
C36   C38   S    
O3    C1    A    
C38   H18   S    
C35   C40   S    
C15   H4    S    
C37   C39   S    
O12   V4    S    
C63   N3    T    
C31   C33   S    
C18   C22   A    
C30   C33   S    
C27   C29   S    
O7    C3    A    
C4    C44   S    
C28   C30   S    
C1    O11   A    
O5    C7    A    
C13   H6    S    
O7    V1    S    
O6    C8    A    
C14   H5    S    
C29   C31   S    
O8    V2    S    
C25   H1    S    
C50   C52   A    
C26   H2    S    
O3    V1    S    
O14   V4    S    
C30   C32   S    
C11   C19   A    
O14   V2    S    
C47   H26   S    
C24   H10   S    
C27   C33   S    
C41   H21   S    
C1    C40   S    
C59   C61   S    
C8    C10   S    
C2    O12   A    
C17   C19   A    
C18   C20   A    
C36   C39   S    
O1    V3    S    
O18   C8    A    
C51   C53   A    
C35   C41   S    
C44   C48   A    
C37   H17   S    
O17   V3    S    
C53   C59   A    
C60   C62   S    
C34   H16   S    
O8    C4    A    
C36   H20   S    
C33   H15   S    
C19   C25   A    
C58   C66   S    
C52   C56   A    
O15   V3    S    
C9    C13   A    
C28   C31   S    
C30   H12   S    
C43   C49   A    
C46   C64   S    
C45   C47   A    
C27   H13   S    
O10   V2    S    
C46   C48   A    
C28   C34   S    
C57   C59   A    
C24   C26   A    
C35   C37   S    
C66   N6    T    
C38   C41   S    
C39   C41   S    
C50   H23   S    
C37   C42   S    
O18   V4    S    
C55   C58   A    
C52   C54   A    
O15   C5    A    
O16   C6    A    
C12   C20   A    
O1    C3    A    
O2    V4    S    
C36   C42   S    
C46   C54   A    
C62   N2    T    
V2    O20   S    
C21   C24   A    
C20   C26   A    
C22   C23   A    
O16   V4    S    
C3    C43   S    
C10   C14   A    
C54   C60   A    
C57   C65   S    
C40   C42   S    
C16   C18   A    
C65   N5    T    
C49   C51   A    
C44   C50   A    
O5    V1    S    
C35   H19   S    
O17   C7    A    
O6    V2    S    
O10   C6    A    
C48   H25   S    
C12   H8    S    
C28   H14   S    
C11   H7    S    
C12   C14   A    
V3    O19   S    
C64   N4    T    
V4    O20   S    
O9    C5    A    
O13   V1    S    
C45   C63   S    
C42   H22   S    
C43   C47   A    
C56   C57   A    
O2    C4    A    
C49   H24   S    
C23   H9    S    
O4    V2    S    
C38   C40   S    
C29   C34   S    
C15   C17   A    
C16   H3    S    
C17   C21   A    
C32   C34   S    
C45   C53   A    
C51   C55   A    
