data_mof_unit_9396.cif
_audit_creation_date              2012-12-10T16:52:04-0500
_audit_creation_method            fapswitch 2.2
_symmetry_space_group_name_H-M    P1
_symmetry_Int_Tables_number       1
_space_group_crystal_system       triclinic
_cell_length_a                    7.760106
_cell_length_b                    8.567372
_cell_length_c                    14.936454
_cell_angle_alpha                 91.152853
_cell_angle_beta                  85.571558
_cell_angle_gamma                 93.825596
_cell_volume                      987.748367709

loop_
_atom_site_label
_atom_site_type_symbol
_atom_type_description
_atom_site_fract_x
_atom_site_fract_y
_atom_site_fract_z
_atom_type_partial_charge
C1    C     C_R   0.545938 0.794809 0.497652 0.967282
C2    C     C_R   0.647544 0.559960 0.809035 -0.203531
C3    C     C_R   0.496334 0.505471 0.231455 -0.071632
C4    C     C_R   0.503666 0.494529 0.768544 -0.071631
C5    C     C_R   0.640823 0.571657 0.181177 -0.212231
C6    C     C_R   0.359176 0.428344 0.818823 -0.212231
C7    C     C_R   0.644289 0.572040 0.088207 0.069632
C8    C     C_R   0.355709 0.427962 0.911793 0.069632
C9    C     C_R   0.499566 0.502106 0.046612 0.043639
C10   C     C_R   0.500432 0.497895 0.953388 0.043639
C11   C     C_R   0.353730 0.436152 0.098376 0.103455
C12   C     C_R   0.454062 0.205190 0.502348 0.967283
C13   C     C_R   0.646269 0.563848 0.901624 0.103456
C14   C     C_R   0.788120 0.639310 0.035784 0.159279
C15   C     C_R   0.211876 0.360694 0.964216 0.159279
C16   C     C_R   0.787941 0.634188 0.942798 -0.195045
C17   C     C_R   0.212057 0.365814 0.057202 -0.195045
C18   C     C_2   0.570092 0.958375 0.496281 -0.365460
C19   C     C_2   0.429907 0.041625 0.503719 -0.365460
C20   C     C_R   0.501467 0.498578 0.673075 0.888003
C21   C     C_R   0.498533 0.501422 0.326925 0.888003
C22   C     C_R   0.352456 0.440040 0.190965 -0.203531
H1    H     H_    0.241889 0.388526 0.231538 0.151982
H2    H     H_    0.985925 0.617180 0.567969 0.192122
H3    H     H_    0.758112 0.611473 0.768462 0.151982
H4    H     H_    0.749160 0.622670 0.215546 0.186905
H5    H     H_    0.250837 0.377333 0.784454 0.186905
H6    H     H_    0.898909 0.685413 0.902582 0.180066
H7    H     H_    0.101089 0.314589 0.097418 0.180066
H8    H     H_    0.702375 0.009728 0.489171 0.182513
H9    H     H_    0.297625 0.990272 0.510829 0.182513
H10   H     H_    0.014075 0.382820 0.432031 0.192122
I1    I     I_    0.009849 0.753312 0.090062 -0.377585
I2    I     I_    0.990143 0.246697 0.909939 -0.377587
N1    N     N_2   0.950330 0.457950 0.475660 -0.170271
N2    N     N_2   0.049670 0.542050 0.524340 -0.170271
O1    O     O_R   0.389250 0.738570 0.505970 -0.611033
O2    O     O_R   0.610750 0.261430 0.494030 -0.611033
O3    O     O_R   0.678390 0.711620 0.490370 -0.631104
O4    O     O_R   0.321610 0.288380 0.509630 -0.631104
O5    O     O_R   0.355420 0.513510 0.639950 -0.619348
O6    O     O_R   0.644580 0.486490 0.360050 -0.619348
O7    O     O_R   0.644560 0.486560 0.624350 -0.625954
O8    O     O_R   0.355440 0.513440 0.375650 -0.625954
Zn1   Zn    Zn3+2 0.306940 0.517990 0.510420 0.958315
Zn2   Zn    Zn3+2 0.693060 0.482010 0.489580 0.958315

loop_
_geom_bond_atom_site_label_1
_geom_bond_atom_site_label_2
_ccdc_geom_bond_type
C12   O4    A    
C2    C4    A    
C16   H6    S    
C18   H8    S    
C2    H3    S    
C21   O8    A    
C17   H7    S    
C9    C10   A    
C15   I2    S    
C6    H5    S    
C1    O1    A    
C19   H9    S    
C14   I1    S    
C20   O5    A    
N2    Zn1   S    
C9    C11   A    
C1    C18   S    
H2    N2    S    
O3    Zn2   S    
C12   C19   S    
C4    C6    A    
C8    C15   A    
C12   O2    A    
O4    Zn1   S    
O7    Zn2   S    
C14   C16   A    
O2    Zn2   S    
C3    C21   S    
C1    O3    A    
O1    Zn1   S    
C5    H4    S    
C4    C20   S    
H10   N1    S    
C7    C9    A    
C20   O7    A    
O8    Zn1   S    
C8    C10   A    
C18   C19   D    
O6    Zn2   S    
C13   C16   A    
C5    C7    A    
C2    C13   A    
O5    Zn1   S    
C22   H1    S    
C11   C17   A    
C3    C22   A    
C6    C8    A    
C11   C22   A    
C15   C17   A    
N1    Zn2   S    
C10   C13   A    
C7    C14   A    
C21   O6    A    
C3    C5    A    
N1    N2    D    
