data_mof_unit_60463.cif
_audit_creation_date              2013-03-05T16:11:37-0500
_audit_creation_method            fapswitch 2.2
_symmetry_space_group_name_H-M    P1
_symmetry_Int_Tables_number       1
_space_group_crystal_system       triclinic
_cell_length_a                    18.114415
_cell_length_b                    18.11605
_cell_length_c                    42.957578
_cell_angle_alpha                 89.986746
_cell_angle_beta                  89.99731
_cell_angle_gamma                 89.995
_cell_volume                      14097.0291382

loop_
_atom_site_label
_atom_site_type_symbol
_atom_site_description
_atom_site_fract_x
_atom_site_fract_y
_atom_site_fract_z
_atom_type_partial_charge
Zn1   Zn    Zn3+2 0.499980 0.087890 0.224030 1.043776
Zn2   Zn    Zn3+2 0.500020 0.912110 0.775970 1.049058
Zn3   Zn    Zn3+2 0.912110 0.499980 0.224030 1.043681
Zn4   Zn    Zn3+2 0.087890 0.500020 0.775970 1.044188
Zn5   Zn    Zn3+2 0.500020 0.912110 0.224030 1.043800
Zn6   Zn    Zn3+2 0.499980 0.087890 0.775970 1.044307
Zn7   Zn    Zn3+2 0.087890 0.500020 0.224030 1.049091
Zn8   Zn    Zn3+2 0.912110 0.499980 0.775970 1.045628
Zn9   Zn    Zn3+2 0.999980 0.587890 0.724030 1.043381
Zn10  Zn    Zn3+2 0.000020 0.412110 0.275970 1.043778
Zn11  Zn    Zn3+2 0.412110 0.999980 0.724030 1.043128
Zn12  Zn    Zn3+2 0.587890 0.000020 0.275970 1.043677
Zn13  Zn    Zn3+2 0.000020 0.412110 0.724030 1.043467
Zn14  Zn    Zn3+2 0.999980 0.587890 0.275970 1.043809
Zn15  Zn    Zn3+2 0.587890 0.000020 0.724030 1.042053
Zn16  Zn    Zn3+2 0.412110 0.999980 0.275970 1.049097
O1    O     O_3   0.500000 0.000000 0.250000 -0.524768
O2    O     O_3   0.500000 0.000000 0.750000 -0.524574
O3    O     O_3   0.000000 0.500000 0.250000 -0.524768
O4    O     O_3   0.000000 0.500000 0.750000 -0.524273
O5    O     O_R   0.438450 0.000020 0.319320 -0.626667
O6    O     O_R   0.561550 0.999980 0.680680 -0.630978
O7    O     O_R   0.999980 0.438450 0.319320 -0.631121
O8    O     O_R   0.000020 0.561550 0.680680 -0.631583
O9    O     O_R   0.561550 0.999980 0.319320 -0.632087
O10   O     O_R   0.438450 0.000020 0.680680 -0.630996
O11   O     O_R   0.000020 0.561550 0.319320 -0.630139
O12   O     O_R   0.999980 0.438450 0.680680 -0.630761
O13   O     O_R   0.938450 0.500020 0.819320 -0.630433
O14   O     O_R   0.061550 0.499980 0.180680 -0.626673
O15   O     O_R   0.499980 0.938450 0.819320 -0.626098
O16   O     O_R   0.500020 0.061550 0.180680 -0.631120
O17   O     O_R   0.061550 0.499980 0.819320 -0.631163
O18   O     O_R   0.938450 0.500020 0.180680 -0.632085
O19   O     O_R   0.500020 0.061550 0.819320 -0.631998
O20   O     O_R   0.499980 0.938450 0.180680 -0.630137
O21   O     O_R   0.648010 0.086580 0.268180 -0.621215
O22   O     O_R   0.351990 0.913420 0.731820 -0.621038
O23   O     O_R   0.913420 0.648010 0.268180 -0.622610
O24   O     O_R   0.086580 0.351990 0.731820 -0.621315
O25   O     O_R   0.351990 0.913420 0.268180 -0.611340
O26   O     O_R   0.648010 0.086580 0.731820 -0.621923
O27   O     O_R   0.086580 0.351990 0.268180 -0.621314
O28   O     O_R   0.913420 0.648010 0.731820 -0.623400
O29   O     O_R   0.148010 0.586580 0.768180 -0.620942
O30   O     O_R   0.851990 0.413420 0.231820 -0.621215
O31   O     O_R   0.413420 0.148010 0.768180 -0.621436
O32   O     O_R   0.586580 0.851990 0.231820 -0.622615
O33   O     O_R   0.851990 0.413420 0.768180 -0.621248
O34   O     O_R   0.148010 0.586580 0.231820 -0.611356
O35   O     O_R   0.586580 0.851990 0.768180 -0.610142
O36   O     O_R   0.413420 0.148010 0.231820 -0.621316
O37   O     O_R   0.413460 0.851950 0.231830 -0.643593
O38   O     O_R   0.586540 0.148050 0.768170 -0.638959
O39   O     O_R   0.148050 0.413460 0.231830 -0.641137
O40   O     O_R   0.851950 0.586540 0.768170 -0.638241
O41   O     O_R   0.586540 0.148050 0.231830 -0.639469
O42   O     O_R   0.413460 0.851950 0.768170 -0.640957
O43   O     O_R   0.851950 0.586540 0.231830 -0.639475
O44   O     O_R   0.148050 0.413460 0.768170 -0.639755
O45   O     O_R   0.913460 0.351950 0.731830 -0.639367
O46   O     O_R   0.086540 0.648050 0.268170 -0.643588
O47   O     O_R   0.648050 0.913460 0.731830 -0.644962
O48   O     O_R   0.351950 0.086540 0.268170 -0.641134
O49   O     O_R   0.086540 0.648050 0.731830 -0.639160
O50   O     O_R   0.913460 0.351950 0.268170 -0.639468
O51   O     O_R   0.351950 0.086540 0.731830 -0.639656
O52   O     O_R   0.648050 0.913460 0.268170 -0.639472
C1    C     C_R   0.499998 0.999995 0.334244 0.876691
C2    C     C_R   0.500001 1.000000 0.665756 0.872738
C3    C     C_R   0.000003 0.499993 0.334243 0.874183
C4    C     C_R   0.000003 0.500007 0.665757 0.872103
C5    C     C_R   0.999998 0.500003 0.834244 0.873971
C6    C     C_R   0.000001 0.500006 0.165756 0.876695
C7    C     C_R   0.500007 0.999993 0.834243 0.877118
C8    C     C_R   0.499998 0.000007 0.165757 0.874184
C9    C     C_R   0.641593 0.141603 0.249939 0.879042
C10   C     C_R   0.358406 0.858397 0.750062 0.878286
C11   C     C_R   0.858399 0.641589 0.249938 0.877156
C12   C     C_R   0.141600 0.358411 0.750062 0.878803
C13   C     C_R   0.358647 0.858217 0.250093 0.895559
C14   C     C_R   0.641595 0.141598 0.750059 0.877996
C15   C     C_R   0.141600 0.358406 0.249939 0.878401
C16   C     C_R   0.858410 0.641565 0.750047 0.881623
C17   C     C_R   0.141593 0.641603 0.749939 0.879887
C18   C     C_R   0.858407 0.358397 0.250061 0.879043
C19   C     C_R   0.358400 0.141589 0.749938 0.878824
C20   C     C_R   0.641600 0.858411 0.250062 0.877149
C21   C     C_R   0.858404 0.358403 0.749940 0.879141
C22   C     C_R   0.141353 0.641783 0.249907 0.895578
C23   C     C_R   0.641792 0.858615 0.750077 0.893014
C24   C     C_R   0.358400 0.141594 0.250061 0.878401
C25   C     C_3   0.231596 0.197384 0.271068 -0.205503
C26   C     C_3   0.767760 0.802089 0.728708 -0.219295
C27   C     C_3   0.802643 0.231553 0.271048 -0.204558
C28   C     C_3   0.197370 0.768433 0.728943 -0.204476
C29   C     C_3   0.768421 0.802603 0.271061 -0.204564
C30   C     C_3   0.231578 0.197394 0.728940 -0.204948
C31   C     C_3   0.198430 0.766828 0.271697 -0.223290
C32   C     C_3   0.802659 0.231581 0.728957 -0.203855
C33   C     C_3   0.733316 0.698710 0.771948 -0.210110
C34   C     C_3   0.268404 0.302616 0.228931 -0.205507
C35   C     C_3   0.302626 0.731569 0.771058 -0.204839
C36   C     C_3   0.697357 0.268447 0.228952 -0.204562
C37   C     C_3   0.268422 0.302606 0.771060 -0.204994
C38   C     C_3   0.731579 0.697397 0.228939 -0.204565
C39   C     C_3   0.697336 0.268425 0.771040 -0.204493
C40   C     C_3   0.301571 0.733172 0.228304 -0.223296
C41   C     C_3   0.184305 0.219227 0.242222 -0.267350
C42   C     C_3   0.816788 0.781034 0.757158 -0.268768
C43   C     C_3   0.780776 0.184325 0.242194 -0.267535
C44   C     C_3   0.219216 0.815682 0.757794 -0.267252
C45   C     C_3   0.815693 0.780770 0.242209 -0.269830
C46   C     C_3   0.184308 0.219230 0.757792 -0.267369
C47   C     C_3   0.219644 0.816516 0.243464 -0.271802
C48   C     C_3   0.780775 0.184325 0.757810 -0.269578
C49   C     C_3   0.684286 0.719648 0.743494 -0.268166
C50   C     C_3   0.315695 0.280772 0.257778 -0.267350
C51   C     C_3   0.280780 0.684321 0.742207 -0.267255
C52   C     C_3   0.719224 0.315675 0.257806 -0.267536
C53   C     C_3   0.315692 0.280770 0.742208 -0.267088
C54   C     C_3   0.684307 0.719230 0.257790 -0.269839
C55   C     C_3   0.719221 0.315681 0.742187 -0.267146
C56   C     C_3   0.280356 0.683483 0.256536 -0.271813
H1    H     H_    0.130465 0.195045 0.235272 0.197767
H2    H     H_    0.871180 0.805250 0.763275 0.197397
H3    H     H_    0.804963 0.130505 0.235222 0.197805
H4    H     H_    0.195023 0.869507 0.764755 0.197927
H5    H     H_    0.869529 0.804953 0.235250 0.195160
H6    H     H_    0.130471 0.195048 0.764753 0.197782
H7    H     H_    0.195488 0.871110 0.237611 0.196568
H8    H     H_    0.804966 0.130502 0.764786 0.195300
H9    H     H_    0.629978 0.695294 0.737342 0.197251
H10   H     H_    0.369535 0.304955 0.264728 0.197766
H11   H     H_    0.304973 0.630496 0.735246 0.198059
H12   H     H_    0.695036 0.369495 0.264777 0.197804
H13   H     H_    0.369529 0.304952 0.735247 0.198058
H14   H     H_    0.630471 0.695047 0.264750 0.195155
H15   H     H_    0.695032 0.369505 0.735211 0.198528
H16   H     H_    0.304512 0.628889 0.262389 0.196578
H17   H     H_    0.217725 0.154608 0.288630 0.210031
H18   H     H_    0.780853 0.844101 0.710718 0.211910
H19   H     H_    0.845439 0.217644 0.288594 0.210998
H20   H     H_    0.154588 0.782329 0.711390 0.210974
H21   H     H_    0.782306 0.845367 0.288617 0.210219
H22   H     H_    0.217692 0.154628 0.711386 0.210666
H23   H     H_    0.156615 0.779746 0.289792 0.206042
H24   H     H_    0.845470 0.217693 0.711416 0.210897
H25   H     H_    0.720290 0.656819 0.789997 0.204416
H26   H     H_    0.282275 0.345392 0.211370 0.210029
H27   H     H_    0.345408 0.717674 0.788612 0.210599
H28   H     H_    0.654561 0.282356 0.211406 0.210995
H29   H     H_    0.282308 0.345372 0.788614 0.210643
H30   H     H_    0.717693 0.654633 0.211383 0.210216
H31   H     H_    0.654525 0.282313 0.788581 0.211030
H32   H     H_    0.343386 0.720253 0.210208 0.206050
C57   C     C_3   0.198685 0.301319 0.249663 -0.128749
C58   C     C_3   0.801595 0.698834 0.750433 -0.115216
C59   C     C_3   0.698679 0.198690 0.249663 -0.129192
C60   C     C_3   0.301319 0.801311 0.750338 -0.128890
C61   C     C_3   0.801310 0.698674 0.249660 -0.128231
C62   C     C_3   0.198689 0.301325 0.750339 -0.129236
C63   C     C_3   0.301853 0.800932 0.250128 -0.113911
C64   C     C_3   0.698684 0.198685 0.750332 -0.128995
C65   C     C_3   0.699333 0.802003 0.750225 -0.127834
C66   C     C_3   0.301315 0.198680 0.250337 -0.128749
C67   C     C_3   0.198678 0.698691 0.749663 -0.129610
C68   C     C_3   0.801321 0.301310 0.250337 -0.129193
C69   C     C_3   0.301311 0.198675 0.749661 -0.129239
C70   C     C_3   0.698690 0.801326 0.250340 -0.128231
C71   C     C_3   0.801312 0.301320 0.749666 -0.129110
C72   C     C_3   0.198148 0.699067 0.249873 -0.113911
C73   C     C_3   0.245280 0.279631 0.277746 0.358008
C74   C     C_3   0.753376 0.719685 0.722745 0.358552
C75   C     C_3   0.720392 0.245224 0.277752 0.357946
C76   C     C_3   0.279627 0.754757 0.722251 0.357819
C77   C     C_3   0.754733 0.720352 0.277748 0.359245
C78   C     C_3   0.245265 0.279644 0.722252 0.358270
C79   C     C_3   0.280738 0.751967 0.277648 0.357460
C80   C     C_3   0.720412 0.245248 0.722243 0.358066
C81   C     C_3   0.747721 0.781089 0.777969 0.356476
C82   C     C_3   0.254719 0.220369 0.222254 0.358007
C83   C     C_3   0.220369 0.745246 0.777750 0.357433
C84   C     C_3   0.779608 0.254776 0.222247 0.357948
C85   C     C_3   0.254735 0.220356 0.777748 0.358311
C86   C     C_3   0.745267 0.779648 0.222252 0.359244
C87   C     C_3   0.779583 0.254757 0.777754 0.358264
C88   C     C_3   0.219263 0.748032 0.222353 0.357457
C89   C     C_R   0.498242 0.066719 0.114909 -0.182994
C90   C     C_R   0.501784 0.933281 0.885091 -0.181541
C91   C     C_R   0.933281 0.498841 0.114915 -0.184148
C92   C     C_R   0.066715 0.501205 0.885086 -0.182896
C93   C     C_R   0.501741 0.933315 0.114920 -0.181249
C94   C     C_R   0.498248 0.066685 0.885080 -0.184139
C95   C     C_R   0.066721 0.501197 0.114912 -0.181608
C96   C     C_R   0.933275 0.498837 0.885088 -0.181503
C97   C     C_R   0.998307 0.566717 0.614907 -0.183915
C98   C     C_R   0.001748 0.433279 0.385091 -0.182991
C99   C     C_R   0.433285 0.998757 0.614914 -0.183029
C100  C     C_R   0.566718 0.001216 0.385085 -0.184145
C101  C     C_R   0.001742 0.433311 0.614920 -0.182959
C102  C     C_R   0.998298 0.566685 0.385080 -0.181251
C103  C     C_R   0.566723 0.001238 0.614912 -0.183053
C104  C     C_R   0.433279 0.998762 0.385088 -0.181601
H33   H     H_    0.495816 0.118541 0.127441 0.217935
H34   H     H_    0.504226 0.881461 0.872558 0.217305
H35   H     H_    0.881397 0.498901 0.127452 0.217289
H36   H     H_    0.118600 0.501144 0.872550 0.217232
H37   H     H_    0.504169 0.881490 0.127460 0.217671
H38   H     H_    0.495807 0.118508 0.872539 0.217984
H39   H     H_    0.118605 0.501134 0.127446 0.216565
H40   H     H_    0.881391 0.498893 0.872553 0.217058
H41   H     H_    0.995903 0.618540 0.627439 0.217595
H42   H     H_    0.004151 0.381458 0.372558 0.217933
H43   H     H_    0.381399 0.998770 0.627450 0.217333
H44   H     H_    0.618603 0.001193 0.372548 0.217297
H45   H     H_    0.004141 0.381486 0.627461 0.217992
H46   H     H_    0.995886 0.618510 0.372541 0.217666
H47   H     H_    0.618608 0.001227 0.627446 0.217241
H48   H     H_    0.381394 0.998784 0.372554 0.216577
C105  C     C_R   0.497088 0.067634 0.082305 0.285739
C106  C     C_R   0.502932 0.932367 0.917695 0.285056
C107  C     C_R   0.932316 0.499921 0.082312 0.285401
C108  C     C_R   0.067677 0.500140 0.917689 0.285283
C109  C     C_R   0.502892 0.932402 0.082317 0.285786
C110  C     C_R   0.497096 0.067598 0.917682 0.285696
C111  C     C_R   0.067682 0.500125 0.082308 0.284648
C112  C     C_R   0.932310 0.499919 0.917691 0.285452
C113  C     C_R   0.997166 0.567630 0.582304 0.285715
C114  C     C_R   0.002912 0.432363 0.417694 0.285728
C115  C     C_R   0.432321 0.999828 0.582311 0.285116
C116  C     C_R   0.567684 0.000144 0.417688 0.285364
C117  C     C_R   0.002904 0.432395 0.582318 0.285446
C118  C     C_R   0.997160 0.567597 0.417683 0.285760
C119  C     C_R   0.567689 0.000165 0.582309 0.285160
C120  C     C_R   0.432316 0.999838 0.417691 0.284631
C121  C     C_R   0.499989 0.000018 0.065750 -0.176545
C122  C     C_R   0.500013 0.999983 0.934249 -0.176379
C123  C     C_R   0.999998 0.500025 0.065750 -0.175314
C124  C     C_R   0.999993 0.500032 0.934250 -0.175355
C125  C     C_R   0.000038 0.500012 0.565750 -0.176487
C126  C     C_R   0.000042 0.499980 0.434249 -0.176548
C127  C     C_R   0.500005 0.999995 0.565749 -0.175361
C128  C     C_R   0.500001 0.999992 0.434250 -0.175328
C129  C     C_R   0.499994 0.000016 0.131389 -0.128079
C130  C     C_R   0.500014 0.999984 0.868611 -0.128382
C131  C     C_R   0.000002 0.500016 0.131388 -0.127992
C132  C     C_R   0.999996 0.500014 0.868612 -0.127738
C133  C     C_R   0.000016 0.500014 0.631388 -0.128209
C134  C     C_R   0.000015 0.499984 0.368611 -0.128068
C135  C     C_R   0.500004 0.999999 0.631388 -0.127995
C136  C     C_R   0.499998 0.999989 0.368612 -0.128000
N1    N     N_R   0.449434 0.959836 0.015495 -0.077369
N2    N     N_R   0.550566 0.040166 0.984504 -0.077961
N3    N     N_R   0.037843 0.552351 0.015485 -0.077185
N4    N     N_R   0.962144 0.447711 0.984515 -0.077458
N5    N     N_R   0.550557 0.040179 0.015485 -0.078065
N6    N     N_R   0.449444 0.959822 0.984514 -0.077646
N7    N     N_R   0.962146 0.447709 0.015496 -0.077331
N8    N     N_R   0.037841 0.552353 0.984504 -0.076898
N9    N     N_R   0.949460 0.459853 0.515497 -0.077913
N10   N     N_R   0.050628 0.540133 0.484503 -0.077364
N11   N     N_R   0.537813 0.052344 0.515484 -0.077245
N12   N     N_R   0.462195 0.947642 0.484515 -0.077273
N13   N     N_R   0.050624 0.540144 0.515484 -0.077694
N14   N     N_R   0.949463 0.459841 0.484515 -0.078041
N15   N     N_R   0.462196 0.947643 0.515497 -0.077256
N16   N     N_R   0.537811 0.052344 0.484503 -0.077277
C137  C     C_R   0.000048 0.499981 0.468501 0.411747
C138  C     C_R   0.000039 0.500006 0.531499 0.411629
C139  C     C_R   0.500002 0.999993 0.468501 0.411752
C140  C     C_R   0.500005 0.999994 0.531498 0.411718
C141  C     C_R   0.500010 0.999987 0.968500 0.411780
C142  C     C_R   0.499990 0.000015 0.031499 0.411744
C143  C     C_R   0.999992 0.500033 0.968501 0.411809
C144  C     C_R   0.999996 0.500028 0.031499 0.411741
N17   N     N_R   0.239116 0.314189 0.308232 0.221439
O53   O     O_R   0.221126 0.275053 0.332448 -0.319991
O54   O     O_R   0.251606 0.384488 0.311320 -0.365737
N18   N     N_R   0.757450 0.683940 0.692442 0.220589
O55   O     O_R   0.774026 0.722069 0.667764 -0.319748
O56   O     O_R   0.744510 0.613584 0.689981 -0.369341
N19   N     N_R   0.685863 0.239000 0.308247 0.221624
O57   O     O_R   0.725028 0.220951 0.332446 -0.316797
O58   O     O_R   0.615560 0.251489 0.311360 -0.369058
N20   N     N_R   0.314179 0.760958 0.691761 0.221708
O59   O     O_R   0.275033 0.778993 0.667554 -0.316585
O60   O     O_R   0.384483 0.748462 0.688659 -0.368395
N21   N     N_R   0.760910 0.685774 0.308235 0.220867
O61   O     O_R   0.778963 0.724885 0.332444 -0.320873
O62   O     O_R   0.748376 0.615482 0.311333 -0.369763
N22   N     N_R   0.239085 0.314215 0.691762 0.221525
O63   O     O_R   0.221072 0.275092 0.667553 -0.319837
O64   O     O_R   0.251583 0.384514 0.688664 -0.368672
N23   N     N_R   0.314105 0.752789 0.308520 0.223871
O65   O     O_R   0.289143 0.708760 0.329989 -0.316222
O66   O     O_R   0.369690 0.795792 0.314655 -0.375111
N24   N     N_R   0.685911 0.239047 0.691745 0.221779
O67   O     O_R   0.725099 0.221024 0.667551 -0.316678
O68   O     O_R   0.615611 0.251532 0.688623 -0.368327
N25   N     N_R   0.746038 0.814418 0.808843 0.223494
O69   O     O_R   0.789777 0.789704 0.830463 -0.317739
O70   O     O_R   0.702774 0.869916 0.814800 -0.375688
N26   N     N_R   0.260884 0.185811 0.191768 0.221439
O71   O     O_R   0.278874 0.224947 0.167551 -0.319994
O72   O     O_R   0.248393 0.115512 0.188680 -0.365737
N27   N     N_R   0.185817 0.739044 0.808241 0.221673
O73   O     O_R   0.224964 0.721008 0.832447 -0.316685
O74   O     O_R   0.115512 0.751536 0.811342 -0.365636
N28   N     N_R   0.814137 0.260999 0.191753 0.221626
O75   O     O_R   0.774971 0.279046 0.167553 -0.316819
O76   O     O_R   0.884440 0.248512 0.188640 -0.369058
N29   N     N_R   0.260915 0.185785 0.808238 0.221419
O77   O     O_R   0.278925 0.224909 0.832447 -0.320032
O78   O     O_R   0.248419 0.115486 0.811336 -0.369150
N30   N     N_R   0.739090 0.814226 0.191764 0.220869
O79   O     O_R   0.721037 0.775115 0.167556 -0.320866
O80   O     O_R   0.751626 0.884517 0.188666 -0.369756
N31   N     N_R   0.814084 0.260959 0.808253 0.221142
O81   O     O_R   0.774895 0.278981 0.832446 -0.317354
O82   O     O_R   0.884385 0.248477 0.811375 -0.369764
N32   N     N_R   0.185896 0.747206 0.191480 0.223879
O83   O     O_R   0.210908 0.791184 0.170001 -0.316209
O84   O     O_R   0.130271 0.704246 0.185354 -0.375132
N33   N     N_R   0.490513 0.137453 0.066532 0.235083
O85   O     O_R   0.520330 0.196361 0.078465 -0.287115
O86   O     O_R   0.446465 0.144614 0.042789 -0.281714
N34   N     N_R   0.509515 0.862550 0.933469 0.234516
O87   O     O_R   0.479708 0.803637 0.921535 -0.289086
O88   O     O_R   0.553558 0.855398 0.957214 -0.282592
N35   N     N_R   0.862267 0.503329 0.066546 0.233262
O89   O     O_R   0.804766 0.470870 0.078487 -0.282982
O90   O     O_R   0.853123 0.546998 0.042797 -0.284291
N36   N     N_R   0.137724 0.496747 0.933457 0.233288
O91   O     O_R   0.195220 0.529214 0.921516 -0.282725
O92   O     O_R   0.146874 0.453082 0.957207 -0.284341
N37   N     N_R   0.509469 0.862585 0.066556 0.235045
O93   O     O_R   0.479640 0.803678 0.078498 -0.287827
O94   O     O_R   0.553536 0.855422 0.042819 -0.282304
N38   N     N_R   0.490503 0.137414 0.933443 0.235035
O95   O     O_R   0.520317 0.196328 0.921500 -0.287034
O96   O     O_R   0.446439 0.144566 0.957181 -0.281996
N39   N     N_R   0.137729 0.496712 0.066538 0.233330
O97   O     O_R   0.195237 0.529155 0.078472 -0.286450
O98   O     O_R   0.146863 0.453049 0.042794 -0.284063
N40   N     N_R   0.862261 0.503323 0.933459 0.233259
O99   O     O_R   0.804762 0.470861 0.921527 -0.283811
O100  O     O_R   0.853115 0.546991 0.957200 -0.283990
N41   N     N_R   0.990633 0.637451 0.566529 0.234912
O101  O     O_R   0.020483 0.696343 0.578462 -0.287195
O102  O     O_R   0.946591 0.644635 0.542786 -0.282172
N42   N     N_R   0.009465 0.362541 0.433467 0.235094
O103  O     O_R   0.979624 0.303644 0.421535 -0.287059
O104  O     O_R   0.053516 0.355364 0.457208 -0.281684
N43   N     N_R   0.362270 0.003164 0.566544 0.233290
O105  O     O_R   0.304801 0.970645 0.578484 -0.282688
O106  O     O_R   0.353082 0.046825 0.542795 -0.284154
N44   N     N_R   0.637735 0.996794 0.433454 0.233276
O107  O     O_R   0.695211 0.029297 0.421512 -0.282894
O108  O     O_R   0.646914 0.953135 0.457205 -0.284275
N45   N     N_R   0.009452 0.362573 0.566558 0.235046
O109  O     O_R   0.979595 0.303681 0.578501 -0.286814
O110  O     O_R   0.053514 0.355390 0.542821 -0.281878
N46   N     N_R   0.990618 0.637417 0.433445 0.235051
O111  O     O_R   0.020469 0.696311 0.421501 -0.287778
O112  O     O_R   0.946566 0.644598 0.457185 -0.282245
N47   N     N_R   0.637741 0.996827 0.566540 0.233267
O113  O     O_R   0.695210 0.029343 0.578472 -0.282863
O114  O     O_R   0.646929 0.953164 0.542800 -0.284193
N48   N     N_R   0.362266 0.003196 0.433461 0.233329
O115  O     O_R   0.304786 0.970699 0.421529 -0.286418
O116  O     O_R   0.353094 0.046857 0.457203 -0.284006

loop_
_geom_bond_atom_site_label_1
_geom_bond_atom_site_label_2
_geom_bond_distance
_ccdc_geom_bond_type
C41   C82   1.537205 S    
N32   O84   1.300185 A    
C96   C112  1.400804 A    
C51   C67   1.543418 S    
C91   C131  1.400723 A    
C121  C142  1.471366 S    
Zn7   O39   1.938650 S    
C49   H9    1.110153 S    
C27   C68   1.545510 S    
Zn8   O40   1.938650 S    
N37   O93   1.301448 A    
C97   H41   1.083199 S    
N25   O69   1.300212 A    
C111  N39   1.439671 S    
C35   C83   1.537578 S    
C30   C46   1.557522 S    
Zn5   O20   1.922269 S    
C109  C121  1.417491 A    
Zn6   O19   1.922269 S    
C82   N26   1.455963 S    
C99   C115  1.400794 A    
N8    C143  1.357013 A    
N1    N6    1.330882 A    
O34   C22   1.272256 A    
C50   C73   1.537207 S    
Zn11  O51   1.938758 S    
C54   C70   1.543407 S    
Zn3   O3    1.944083 S    
C96   C132  1.400720 A    
C46   H6    1.110112 S    
C11   C61   1.462496 S    
C26   C65   1.546153 S    
Zn5   O32   1.938131 S    
N28   O76   1.300307 A    
C86   N30   1.455956 S    
C34   C82   1.537565 S    
N38   O95   1.301449 A    
C38   C86   1.537571 S    
O22   C10   1.273100 A    
Zn3   O18   1.922343 S    
C95   C131  1.400715 A    
C105  C121  1.417511 A    
N30   O79   1.300321 A    
C17   C67   1.462595 S    
N13   C138  1.357022 A    
C116  N44   1.439677 S    
C51   C76   1.537218 S    
C28   H20   1.110173 S    
N15   C140  1.357018 A    
C52   C75   1.537219 S    
N43   O105  1.301452 A    
C56   C72   1.542454 S    
C97   C133  1.400719 A    
N42   O103  1.301451 A    
N7    C144  1.357013 A    
C119  C127  1.417492 A    
C9    C59   1.462599 S    
O17   C5    1.286117 A    
C33   C58   1.543985 S    
N12   C139  1.357019 A    
Zn7   O3    1.943996 S    
O9    C1    1.286113 A    
N24   O67   1.300268 A    
C36   C59   1.545509 S    
O39   C15   1.270116 A    
C98   H42   1.083201 S    
C91   C107  1.400796 A    
O11   C3    1.286167 A    
C52   C68   1.543421 S    
C31   H23   1.110294 S    
C44   C60   1.543424 S    
Zn13  O4    1.944370 S    
C29   H21   1.110177 S    
Zn14  O3    1.944366 S    
C40   C88   1.536462 S    
Zn15  O26   1.938446 S    
Zn3   O30   1.938303 S    
C77   N21   1.455957 S    
C95   C111  1.400814 A    
N3    C144  1.357017 A    
C36   H28   1.110173 S    
N22   O64   1.300310 A    
C93   C109  1.400793 A    
N9    N14   1.330873 A    
C104  C120  1.400807 A    
C107  C123  1.417478 A    
N10   C137  1.357024 A    
N20   O60   1.300309 A    
C14   C64   1.462631 S    
C25   C73   1.537565 S    
C50   C66   1.543391 S    
C47   C63   1.542454 S    
Zn9   O49   1.938855 S    
C45   C61   1.543407 S    
C96   H40   1.083187 S    
C94   C130  1.400728 A    
O47   C23   1.270488 A    
C100  C116  1.400794 A    
C39   H31   1.110164 S    
O31   C19   1.273225 A    
Zn15  O2    1.943996 S    
C37   H29   1.110173 S    
N31   O82   1.300300 A    
Zn11  O2    1.944083 S    
Zn16  O5    1.922387 S    
O27   C15   1.273088 A    
C87   N31   1.455961 S    
C66   C82   1.523781 S    
C41   C57   1.543391 S    
N48   O115  1.301443 A    
N23   O66   1.300180 A    
C125  C138  1.471357 S    
Zn12  O52   1.938758 S    
C46   C85   1.537205 S    
C118  N46   1.439685 S    
C99   H43   1.083200 S    
Zn8   O13   1.922387 S    
N30   O80   1.300314 A    
C90   H34   1.083202 S    
C112  C124  1.417484 A    
N1    C142  1.357024 A    
C90   C106  1.400830 A    
O14   C6    1.286120 A    
N29   O78   1.300310 A    
Zn14  O46   1.938742 S    
C55   H15   1.110107 S    
N46   O111  1.301447 A    
C38   C61   1.545485 S    
C53   H13   1.110114 S    
N33   O86   1.301444 A    
C127  C140  1.471340 S    
C27   C75   1.537577 S    
C93   H37   1.083203 S    
C42   C81   1.537649 S    
Zn13  O24   1.938131 S    
C4    C133  1.476388 S    
C30   C78   1.537572 S    
C122  C141  1.471357 S    
C50   H10   1.110113 S    
N26   O72   1.300305 A    
N17   O53   1.300285 A    
C30   C69   1.545488 S    
Zn4   O44   1.938758 S    
C58   C74   1.523223 S    
C106  N34   1.439691 S    
Zn4   O29   1.938303 S    
Zn10  O50   1.938855 S    
C48   C87   1.537220 S    
C90   C130  1.400718 A    
Zn6   O31   1.938131 S    
C78   N22   1.455957 S    
C26   H18   1.110186 S    
C126  C137  1.471357 S    
C18   C68   1.462598 S    
N18   O55   1.300296 A    
C21   C71   1.462622 S    
C89   H33   1.083204 S    
C16   C58   1.461394 S    
N36   O91   1.301434 A    
C31   C72   1.544781 S    
N2    N5    1.330882 A    
C29   C70   1.545485 S    
O5    C1    1.286120 A    
Zn4   O4    1.944080 S    
C13   C63   1.461357 S    
C114  C126  1.417505 A    
Zn1   O41   1.938855 S    
C94   H38   1.083205 S    
N40   O100  1.301433 A    
C48   H8    1.110101 S    
C81   N25   1.457689 S    
C38   C54   1.557513 S    
N21   O61   1.300318 A    
C88   N32   1.457565 S    
C91   H35   1.083186 S    
N44   O108  1.301440 A    
C108  C124  1.417481 A    
C12   C62   1.462494 S    
C7    C130  1.476366 S    
C118  C126  1.417489 A    
C103  C135  1.400727 A    
N43   O106  1.301444 A    
C42   H2    1.110152 S    
C25   C66   1.545498 S    
Zn6   O38   1.938742 S    
C101  C133  1.400731 A    
N39   O98   1.301433 A    
C63   C79   1.526530 S    
C80   N24   1.455963 S    
C32   C80   1.537573 S    
C33   C81   1.537022 S    
O8    C4    1.286213 A    
C41   H1    1.110113 S    
Zn4   O17   1.922343 S    
O44   C12   1.270299 A    
C83   N27   1.455965 S    
C23   C65   1.462228 S    
Zn7   O34   1.938446 S    
N34   O87   1.301446 A    
N14   C137  1.357018 A    
C42   C58   1.541745 S    
O50   C18   1.270161 A    
C97   C113  1.400827 A    
Zn1   O1    1.943945 S    
C92   C132  1.400721 A    
C124  C143  1.471340 S    
C102  H46   1.083202 S    
N12   N15   1.330877 A    
C100  H44   1.083194 S    
C61   C77   1.523793 S    
C62   C78   1.523795 S    
N19   O57   1.300290 A    
C110  N38   1.439687 S    
Zn16  O25   1.938446 S    
O6    C2    1.286124 A    
C25   C41   1.557513 S    
C27   H19   1.110175 S    
C54   C77   1.537208 S    
C79   N23   1.457543 S    
C8    C129  1.476379 S    
C32   C48   1.557519 S    
C39   C55   1.557524 S    
N10   N13   1.330877 A    
N45   O110  1.301443 A    
N5    C142  1.357020 A    
N41   O101  1.301445 A    
C104  H48   1.083195 S    
N38   O96   1.301442 A    
C31   C47   1.558314 S    
C35   C60   1.545509 S    
C46   C62   1.543407 S    
Zn5   O1    1.944370 S    
C113  N41   1.439690 S    
O37   C13   1.270523 A    
Zn12  O21   1.938303 S    
C43   C59   1.543419 S    
C56   C79   1.536973 S    
O35   C23   1.272519 A    
Zn14  O23   1.938131 S    
N3    N8    1.330877 A    
Zn15  O6    1.922387 S    
C107  N35   1.439671 S    
C49   C65   1.544044 S    
Zn16  O1    1.943995 S    
C38   H30   1.110177 S    
N42   O104  1.301441 A    
Zn12  O1    1.944080 S    
O32   C20   1.273228 A    
Zn13  O12   1.922269 S    
O43   C11   1.270296 A    
Zn14  O11   1.922269 S    
C64   C80   1.523806 S    
C35   H27   1.110173 S    
N32   O83   1.300429 A    
C112  N40   1.439671 S    
Zn7   O14   1.922387 S    
O12   C4    1.286164 A    
N24   O68   1.300301 A    
N37   O94   1.301440 A    
N2    C141  1.357023 A    
O40   C16   1.270070 A    
C44   C83   1.537219 S    
C73   N17   1.455963 S    
N25   O70   1.300193 A    
N11   N16   1.330877 A    
C40   C63   1.544781 S    
C20   C70   1.462496 S    
N27   O73   1.300305 A    
O41   C9    1.270161 A    
C54   H14   1.110109 S    
C120  N48   1.439679 S    
N23   O65   1.300365 A    
O21   C9    1.273102 A    
C26   C42   1.558084 S    
C51   H11   1.110114 S    
C52   H12   1.110112 S    
O23   C11   1.273228 A    
Zn11  O22   1.938303 S    
C105  N33   1.439689 S    
N35   O89   1.301437 A    
C103  C119  1.400802 A    
O7    C3    1.286206 A    
C113  C125  1.417509 A    
C98   C134  1.400720 A    
Zn9   O4    1.943945 S    
O15   C7    1.286201 A    
C40   H32   1.110294 S    
Zn10  O3    1.943944 S    
O25   C13   1.272260 A    
C70   C86   1.523793 S    
C28   C67   1.545510 S    
C114  N42   1.439689 S    
N47   O114  1.301442 A    
C92   C108  1.400796 A    
C109  N37   1.439684 S    
O18   C6    1.286113 A    
C36   C84   1.537577 S    
O10   C2    1.286117 A    
O36   C24   1.273088 A    
O48   C24   1.270116 A    
C115  N43   1.439672 S    
O38   C14   1.270233 A    
C25   H17   1.110175 S    
N28   O75   1.300292 A    
C28   C76   1.537576 S    
C116  C128  1.417487 A    
O51   C19   1.270299 A    
C56   H16   1.110262 S    
O28   C16   1.272633 A    
N48   O116  1.301438 A    
Zn2   O42   1.938855 S    
N26   O71   1.300286 A    
C103  H47   1.083196 S    
C33   C49   1.557735 S    
C94   C110  1.400789 A    
C100  C136  1.400729 A    
N29   O77   1.300289 A    
C75   N19   1.455963 S    
N46   O112  1.301445 A    
C40   C56   1.558302 S    
N36   O92   1.301436 A    
N33   O85   1.301447 A    
Zn1   O36   1.938193 S    
C44   H4    1.110113 S    
Zn2   O35   1.938193 S    
O42   C10   1.270164 A    
C101  H45   1.083204 S    
N31   O81   1.300276 A    
O13   C5    1.286120 A    
N4    N7    1.330873 A    
C22   C72   1.461358 S    
C93   C129  1.400728 A    
Zn8   O33   1.938446 S    
C55   C71   1.543409 S    
C72   C88   1.526515 S    
C57   C73   1.523779 S    
C36   C52   1.557526 S    
C19   C69   1.462493 S    
C49   C74   1.536450 S    
C74   N18   1.455916 S    
N39   O97   1.301429 A    
C110  C122  1.417489 A    
Zn2   O2    1.943944 S    
C128  C139  1.471331 S    
N47   O113  1.301450 A    
O26   C14   1.273242 A    
C5    C132  1.476379 S    
C47   H7    1.110263 S    
C31   C79   1.536461 S    
C28   C44   1.557531 S    
O19   C7    1.286168 A    
Zn8   O4    1.943995 S    
C45   H5    1.110109 S    
Zn5   O37   1.938742 S    
N22   O63   1.300293 A    
N18   O56   1.300305 A    
N20   O59   1.300296 A    
C89   C105  1.400827 A    
C102  C118  1.400789 A    
C53   C69   1.543408 S    
C39   C87   1.537572 S    
C37   C85   1.537570 S    
C101  C117  1.400792 A    
C117  C125  1.417490 A    
O20   C8    1.286168 A    
C1    C136  1.476370 S    
C29   C77   1.537571 S    
C67   C83   1.523807 S    
C68   C84   1.523807 S    
C15   C57   1.462453 S    
O16   C8    1.286210 A    
O24   C12   1.273226 A    
N4    C143  1.357013 A    
C3    C134  1.476379 S    
C34   C50   1.557515 S    
C111  C123  1.417484 A    
N41   O102  1.301437 A    
C59   C75   1.523806 S    
C123  C144  1.471336 S    
C32   C71   1.545526 S    
C60   C76   1.523808 S    
C84   N28   1.455963 S    
C34   C57   1.545496 S    
O45   C21   1.270232 A    
Zn6   O2    1.944366 S    
C89   C129  1.400726 A    
N34   O88   1.301441 A    
C6    C131  1.476370 S    
C30   H22   1.110173 S    
Zn11  O10   1.922343 S    
C106  C122  1.417510 A    
Zn1   O16   1.922482 S    
Zn2   O15   1.922482 S    
N27   O74   1.300307 A    
O29   C17   1.273102 A    
C95   H39   1.083187 S    
C108  N36   1.439668 S    
N16   C139  1.357017 A    
C37   C53   1.557522 S    
N35   O90   1.301440 A    
N9    C138  1.357022 A    
C26   C74   1.536986 S    
C99   C135  1.400727 A    
N11   C140  1.357023 A    
C102  C134  1.400729 A    
C34   H26   1.110171 S    
C92   H36   1.083188 S    
N17   O54   1.300305 A    
C43   H3    1.110112 S    
O52   C20   1.270296 A    
C29   C45   1.557513 S    
C10   C60   1.462602 S    
Zn9   O28   1.938193 S    
Zn10  O27   1.938193 S    
C117  N45   1.439686 S    
C48   C64   1.543407 S    
C35   C51   1.557525 S    
O33   C21   1.273240 A    
C55   C80   1.537226 S    
C98   C114  1.400826 A    
Zn9   O8    1.922482 S    
O49   C17   1.270160 A    
C53   C78   1.537205 S    
Zn10  O7    1.922482 S    
N45   O109  1.301447 A    
C85   N29   1.455960 S    
C71   C87   1.523800 S    
Zn12  O9    1.922343 S    
C65   C81   1.527110 S    
C120  C128  1.417492 A    
C69   C85   1.523796 S    
C27   C43   1.557526 S    
C47   C88   1.536968 S    
N40   O99   1.301434 A    
C119  N47   1.439674 S    
C32   H24   1.110165 S    
C45   C86   1.537208 S    
O46   C22   1.270529 A    
C33   H25   1.110170 S    
C43   C84   1.537219 S    
N21   O62   1.300316 A    
N44   O107  1.301449 A    
C104  C136  1.400723 A    
C24   C66   1.462452 S    
C115  C127  1.417490 A    
Zn13  O45   1.938742 S    
C39   C64   1.545532 S    
Zn15  O47   1.938650 S    
C37   C62   1.545488 S    
Zn16  O48   1.938650 S    
O30   C18   1.273102 A    
C76   N20   1.455964 S    
C2    C135  1.476383 S    
N19   O58   1.300308 A    
N6    C141  1.357022 A    
Zn3   O43   1.938758 S    
