data_mof_unit_59026.cif
_audit_creation_date              2012-12-10T17:45:17-0500
_audit_creation_method            fapswitch 2.2
_symmetry_space_group_name_H-M    P1
_symmetry_Int_Tables_number       1
_space_group_crystal_system       triclinic
_cell_length_a                    17.839382
_cell_length_b                    17.972885
_cell_length_c                    17.816018
_cell_angle_alpha                 114.320401
_cell_angle_beta                  92.650455
_cell_angle_gamma                 69.307048
_cell_volume                      4836.38977496

loop_
_atom_site_label
_atom_site_type_symbol
_atom_type_description
_atom_site_fract_x
_atom_site_fract_y
_atom_site_fract_z
_atom_type_partial_charge
C1    C     C_R   0.462927 0.463728 0.288011 0.808325
C2    C     C_R   0.908601 0.614169 0.565153 0.075377
C3    C     C_R   0.951774 0.661163 0.618936 -0.294871
C4    C     C_R   0.534771 0.536508 0.712819 0.795977
C5    C     C_R   0.035298 0.632160 0.604391 0.148400
C6    C     C_R   0.077472 0.556342 0.531882 0.095745
C7    C     C_R   0.076869 0.680522 0.660267 -0.198652
C8    C     C_R   0.160021 0.654427 0.644745 -0.213394
C9    C     C_R   0.162131 0.529359 0.519639 -0.261223
C10   C     C_R   0.556167 0.545543 0.797064 -0.085008
C11   C     C_R   0.447357 0.457056 0.204796 -0.079341
C12   C     C_R   0.832276 0.368043 0.339208 -0.239161
C13   C     C_R   0.666035 0.533798 0.883480 -0.005054
C14   C     C_R   0.635086 0.540586 0.812295 -0.260659
C15   C     C_R   0.502827 0.554334 0.859783 -0.081457
C16   C     C_R   0.463623 0.729540 0.553562 0.818493
C17   C     C_R   0.532148 0.554525 0.936503 0.037117
C18   C     C_R   0.616100 0.534174 0.942986 0.101286
C19   C     C_R   0.482650 0.565759 0.004253 0.035472
C20   C     C_R   0.517629 0.528173 0.059423 0.091222
C21   C     C_R   0.601897 0.501271 0.059859 -0.213512
C22   C     C_R   0.649304 0.509285 0.006019 -0.234375
C23   C     C_R   0.836769 0.479776 0.472242 -0.235801
C24   C     C_R   0.399491 0.614896 0.020251 -0.252263
C25   C     C_R   0.348708 0.599708 0.064903 0.081716
C26   C     C_R   0.382563 0.540640 0.101531 0.088134
C27   C     C_R   0.466833 0.515391 0.108839 0.024639
C28   C     C_R   0.535762 0.269758 0.445948 0.812006
C29   C     C_R   0.336436 0.505617 0.131195 0.067531
C30   C     C_R   0.371202 0.459031 0.178978 -0.016366
C31   C     C_R   0.496470 0.479333 0.165843 -0.274482
C32   C     C_R   0.558984 0.176231 0.427968 -0.054640
C33   C     C_R   0.447861 0.821644 0.575057 -0.095372
C34   C     C_R   0.911349 0.475689 0.444942 0.061548
C35   C     C_R   0.660346 0.028659 0.376601 0.100862
C36   C     C_R   0.633775 0.115012 0.384137 -0.235519
C37   C     C_R   0.509349 0.149673 0.461144 -0.250237
C38   C     C_R   0.538531 0.068145 0.466216 0.047128
C39   C     C_R   0.613467 0.005470 0.419016 0.155456
C40   C     C_R   0.288093 0.555047 0.554198 0.789230
C41   C     C_R   0.496133 0.046796 0.516505 0.009303
C42   C     C_R   0.521009 0.957470 0.504185 0.086421
C43   C     C_R   0.596070 0.897774 0.457529 -0.194345
C44   C     C_R   0.641476 0.921424 0.416705 -0.243207
C45   C     C_R   0.950338 0.408787 0.365761 0.145666
C46   C     C_R   0.434248 0.110816 0.582847 -0.012066
C47   C     C_R   0.397302 0.085781 0.630346 -0.265177
C48   C     C_R   0.417596 0.998042 0.614723 0.033530
C49   C     C_R   0.475011 0.932112 0.546289 0.076873
C50   C     C_R   0.381748 0.975646 0.667481 -0.037394
C51   C     C_R   0.398993 0.886950 0.648594 -0.093516
C52   C     C_R   0.712218 0.446542 0.446041 0.806866
C53   C     C_R   0.483300 0.843623 0.522188 0.003414
C54   C     C_R   0.795614 0.429699 0.419108 -0.066613
C55   C     C_R   0.202474 0.578756 0.574696 0.017851
C56   C     C_R   0.950210 0.532970 0.496053 0.067154
C57   C     C_R   0.910238 0.355483 0.312536 0.100430
C58   C     C_R   0.333088 0.403092 0.192398 0.140140
C59   C     C_R   0.311954 0.412981 0.272050 -0.167799
C60   C     C_R   0.284862 0.352857 0.281398 -0.164497
C61   C     C_R   0.274478 0.285111 0.211915 -0.099388
C62   C     C_R   0.292513 0.276370 0.132656 -0.150850
C63   C     C_R   0.322377 0.334417 0.122797 -0.122278
C64   C     C_R   0.751474 0.525024 0.892891 0.114749
C65   C     C_R   0.813500 0.456662 0.831447 -0.162313
C66   C     C_R   0.893814 0.449292 0.839933 -0.136015
C67   C     C_R   0.033872 0.509863 0.474800 0.033235
C68   C     C_R   0.912754 0.510210 0.909468 -0.108676
C69   C     C_R   0.851392 0.578732 0.970572 -0.137351
C70   C     C_R   0.770993 0.586390 0.962326 -0.164042
C71   C     C_R   0.419452 0.556981 0.842804 0.122580
C72   C     C_R   0.391109 0.497370 0.852954 -0.149128
C73   C     C_R   0.309465 0.508670 0.850095 -0.169931
C74   C     C_R   0.256112 0.577233 0.833710 -0.150555
C75   C     C_R   0.284140 0.635067 0.821086 -0.148973
C76   C     C_R   0.365333 0.625212 0.825696 -0.158322
C77   C     C_R   0.364995 0.863447 0.706168 0.122122
C78   C     C_R   0.070574 0.443406 0.395625 -0.229104
C79   C     C_R   0.289533 0.854882 0.696971 -0.137298
C80   C     C_R   0.252920 0.843762 0.757246 -0.153731
C81   C     C_R   0.291849 0.840120 0.826257 -0.135718
C82   C     C_R   0.367931 0.846451 0.834614 -0.149142
C83   C     C_R   0.404416 0.858388 0.774876 -0.119165
C84   C     C_R   0.414463 0.205812 0.616104 0.120465
C85   C     C_R   0.472609 0.241313 0.652052 -0.173563
C86   C     C_R   0.455550 0.330483 0.677980 -0.112561
C87   C     C_R   0.380413 0.384181 0.668598 0.029844
C88   C     C_R   0.321016 0.349993 0.636327 -0.176228
C89   C     C_R   0.028948 0.395788 0.341455 -0.222130
C90   C     C_R   0.337655 0.260778 0.610644 -0.209085
C91   C     C_R   0.330470 0.044448 0.745652 0.130883
C92   C     C_R   0.246255 0.069402 0.751301 -0.141906
C93   C     C_R   0.198560 0.134832 0.825024 -0.133294
C94   C     C_R   0.234668 0.175841 0.893090 -0.116080
C95   C     C_R   0.318541 0.151301 0.887554 -0.145249
C96   C     C_R   0.366401 0.085661 0.814182 -0.156913
H1    H     H_    0.060030 0.346746 0.280971 0.166964
H2    H     H_    0.352523 0.137069 0.681610 0.169787
H3    H     H_    0.671984 0.134702 0.356648 0.158049
H4    H     H_    0.447848 0.194057 0.481924 0.175222
H5    H     H_    0.624358 0.833694 0.457069 0.172653
H6    H     H_    0.191184 0.693658 0.686542 0.121154
H7    H     H_    0.919092 0.722209 0.671714 0.146564
H8    H     H_    0.800595 0.328941 0.297746 0.162829
H9    H     H_    0.810763 0.519382 0.535970 0.189119
H10   H     H_    0.130702 0.429389 0.372091 0.156001
H11   H     H_    0.316163 0.466500 0.327184 0.154525
H12   H     H_    0.044834 0.739425 0.715137 0.131893
H13   H     H_    0.272288 0.358432 0.342617 0.113291
H14   H     H_    0.252667 0.239276 0.219514 0.121883
H15   H     H_    0.284536 0.223689 0.078908 0.125406
H16   H     H_    0.338416 0.325047 0.060776 0.121656
H17   H     H_    0.253084 0.714229 0.103959 0.188873
H18   H     H_    0.244071 0.633412 0.016176 0.197348
H19   H     H_    0.799678 0.408898 0.777331 0.124821
H20   H     H_    0.941379 0.396344 0.792584 0.126745
H21   H     H_    0.974952 0.504408 0.915924 0.121425
H22   H     H_    0.866108 0.626044 0.024258 0.129429
H23   H     H_    0.713552 0.488854 0.010172 0.162755
H24   H     H_    0.723941 0.640127 0.009838 0.133450
H25   H     H_    0.431648 0.444294 0.866314 0.134390
H26   H     H_    0.287823 0.463794 0.859834 0.140085
H27   H     H_    0.193082 0.585587 0.830858 0.134955
H28   H     H_    0.242515 0.688659 0.809470 0.123695
H29   H     H_    0.385698 0.672136 0.818548 0.126102
H30   H     H_    0.255132 0.494250 0.046959 0.187975
H31   H     H_    0.216285 0.576636 0.144307 0.218844
H32   H     H_    0.477339 0.753149 0.409045 0.202039
H33   H     H_    0.567452 0.726127 0.446386 0.173722
H34   H     H_    0.555161 0.474815 0.186298 0.142169
H35   H     H_    0.258118 0.859707 0.644693 0.130594
H36   H     H_    0.193739 0.839639 0.751261 0.123121
H37   H     H_    0.263036 0.832576 0.873393 0.122947
H38   H     H_    0.398082 0.843354 0.887977 0.129801
H39   H     H_    0.462323 0.865777 0.783028 0.126640
H40   H     H_    0.766220 0.995227 0.308034 0.181033
H41   H     H_    0.723652 0.919524 0.276052 0.177939
H42   H     H_    0.531500 0.199552 0.657781 0.135498
H43   H     H_    0.500913 0.357602 0.704519 0.145319
H44   H     H_    0.367525 0.453016 0.688099 0.196488
H45   H     H_    0.674978 0.537146 0.765834 0.169890
H46   H     H_    0.262572 0.392457 0.630593 0.145086
H47   H     H_    0.292060 0.233917 0.583977 0.141801
H48   H     H_    0.217777 0.038405 0.698698 0.122320
H49   H     H_    0.133619 0.153962 0.829304 0.126996
H50   H     H_    0.197680 0.226712 0.950010 0.125137
H51   H     H_    0.346630 0.183133 0.939917 0.122096
H52   H     H_    0.431329 0.067113 0.810490 0.128061
H53   H     H_    0.907833 0.262607 0.197256 0.181276
H54   H     H_    0.993842 0.238106 0.239625 0.173572
H55   H     H_    0.807263 0.715021 0.571791 0.193427
H56   H     H_    0.633167 0.473616 0.100983 0.144990
H57   H     H_    0.801368 0.668962 0.636015 0.183364
H58   H     H_    0.372699 0.661539 0.993980 0.166570
H59   H     H_    0.198607 0.470048 0.468299 0.110884
H60   H     H_    0.699454 0.872962 0.383618 0.169470
N1    N     N_3   0.263549 0.647116 0.074922 -0.488999
N2    N     N_3   0.256232 0.512308 0.110676 -0.461429
N3    N     N_3   0.520305 0.777640 0.440704 -0.469970
N4    N     N_3   0.736290 0.965513 0.328974 -0.473454
N5    N     N_3   0.948557 0.289263 0.231484 -0.472944
N6    N     N_3   0.822378 0.655282 0.576155 -0.465236
O1    O     O_3   0.500000 0.500000 0.500000 -0.475329
O2    O     O_R   0.309700 0.585900 0.509470 -0.640045
O3    O     O_R   0.674980 0.398780 0.398780 -0.650455
O4    O     O_R   0.340340 0.501790 0.578230 -0.665749
O5    O     O_R   0.674980 0.513530 0.513520 -0.644255
O6    O     O_R   0.524320 0.685780 0.578230 -0.637653
O7    O     O_R   0.567430 0.291230 0.398780 -0.647740
O8    O     O_R   0.417260 0.532000 0.348010 -0.648465
O9    O     O_R   0.490990 0.490990 0.674980 -0.664442
O10   O     O_R   0.524330 0.409580 0.302030 -0.637298
O11   O     O_R   0.567420 0.567430 0.674980 -0.640360
O12   O     O_R   0.417260 0.693460 0.509470 -0.643828
O13   O     O_R   0.490990 0.329540 0.513520 -0.637701
Zn1   Zn    Zn3+2 0.565540 0.565550 0.565540 0.965308
Zn2   Zn    Zn3+2 0.412570 0.576510 0.467300 0.966970
Zn3   Zn    Zn3+2 0.456340 0.456340 0.565550 0.939079
Zn4   Zn    Zn3+2 0.565550 0.401610 0.401610 0.961658

loop_
_geom_bond_atom_site_label_1
_geom_bond_atom_site_label_2
_ccdc_geom_bond_type
C94   H50   S    
C66   C68   A    
C87   C88   A    
C34   C56   A    
C93   C94   A    
C80   H36   S    
C4    O9    A    
C72   H25   S    
C41   C42   A    
C69   H22   S    
C95   C96   A    
C1    C11   S    
C87   H44   S    
C43   C44   A    
C2    N6    S    
C6    C9    A    
C51   C77   S    
C81   C82   A    
C7    C8    A    
C85   C86   A    
C45   C57   A    
C26   C27   A    
C37   C38   A    
C47   H2    S    
C66   H20   S    
C13   C18   A    
C5    C6    A    
C32   C36   A    
C12   H8    S    
C31   H34   S    
C10   C15   A    
C52   O5    A    
C38   C39   A    
C68   H21   S    
O1    Zn1   S    
C3    H7    S    
C23   H9    S    
C1    O8    A    
O6    Zn1   S    
C73   C74   A    
C21   H56   S    
C63   H16   S    
C35   N4    S    
C60   H13   S    
C91   C96   A    
C62   H15   S    
C19   C20   A    
C11   C30   A    
C52   C54   S    
C68   C69   A    
O1    Zn2   S    
C41   C46   A    
O9    Zn3   S    
C93   H49   S    
C9    C55   A    
C64   C70   A    
C29   C30   A    
C45   C89   A    
C40   O4    A    
C90   H47   S    
C40   C55   S    
C48   C50   A    
C74   H27   S    
C14   H45   S    
C11   C31   A    
C59   C60   A    
C13   C14   A    
C76   H29   S    
C65   H19   S    
C94   C95   A    
C67   C78   A    
C84   C90   A    
C61   H14   S    
C8    C55   A    
C88   H46   S    
C24   H58   S    
C50   C51   A    
O13   Zn3   S    
H30   N2    S    
C78   C89   A    
C33   C53   A    
C22   H23   S    
C96   H52   S    
C53   N3    S    
C74   C75   A    
O8    Zn2   S    
C27   C31   A    
C75   H28   S    
C44   H60   S    
C28   C32   S    
C95   H51   S    
C24   C25   A    
C38   C41   A    
C10   C14   A    
C70   H24   S    
C91   C92   A    
C5    C7    A    
C86   C87   A    
C72   C73   A    
C25   C26   A    
C82   C83   A    
C59   H11   S    
C89   H1    S    
C60   C61   A    
C35   C36   A    
C82   H38   S    
C35   C39   A    
C75   C76   A    
C43   H5    S    
H18   N1    S    
C62   C63   A    
C52   O3    A    
C50   C91   S    
C47   C48   A    
H31   N2    S    
H55   N6    S    
C79   H35   S    
O1    Zn3   S    
C17   C18   A    
C77   C79   A    
C34   C45   A    
C32   C37   A    
C84   C85   A    
O12   Zn2   S    
C39   C44   A    
C86   H43   S    
O4    Zn3   S    
C12   C57   A    
O10   Zn4   S    
C48   C49   A    
C88   C90   A    
C73   H26   S    
C4    O11   A    
C25   N1    S    
O3    Zn4   S    
C46   C84   S    
H53   N5    S    
C42   C43   A    
C4    C10   S    
H33   N3    S    
C23   C54   A    
O11   Zn1   S    
C16   O12   A    
C58   C63   A    
C15   C17   A    
H54   N5    S    
C46   C47   A    
C6    C67   A    
C23   C34   A    
H41   N4    S    
C18   C22   A    
C83   H39   S    
C40   O2    A    
C80   C81   A    
C3    C5    A    
C28   O13   A    
C81   H37   S    
C29   N2    S    
C20   C27   A    
C33   C51   A    
C56   C67   A    
C15   C71   S    
C1    O10   A    
H57   N6    S    
C78   H10   S    
C64   C65   A    
C2    C3    A    
C58   C59   A    
C71   C72   A    
C16   C33   S    
C2    C56   A    
O1    Zn4   S    
C71   C76   A    
C13   C64   S    
C16   O6    A    
C49   C53   A    
C30   C58   S    
C92   C93   A    
C17   C19   A    
C19   C24   A    
C36   H3    S    
C61   C62   A    
C92   H48   S    
C69   C70   A    
C42   C49   A    
C79   C80   A    
H40   N4    S    
C28   O7    A    
C57   N5    S    
C20   C21   A    
C9    H59   S    
C26   C29   A    
C65   C66   A    
C77   C83   A    
C7    H12   S    
H17   N1    S    
C21   C22   A    
C8    H6    S    
C85   H42   S    
O7    Zn4   S    
C37   H4    S    
C12   C54   A    
O2    Zn2   S    
H32   N3    S    
O5    Zn1   S    
