data_mof_unit_64373.cif
_audit_creation_date              2012-12-10T18:07:29-0500
_audit_creation_method            fapswitch 2.2
_symmetry_space_group_name_H-M    P1
_symmetry_Int_Tables_number       1
_space_group_crystal_system       triclinic
_cell_length_a                    12.753156
_cell_length_b                    13.912043
_cell_length_c                    15.897634
_cell_angle_alpha                 90.222803
_cell_angle_beta                  92.715916
_cell_angle_gamma                 97.979729
_cell_volume                      2789.99235271

loop_
_atom_site_label
_atom_site_type_symbol
_atom_type_description
_atom_site_fract_x
_atom_site_fract_y
_atom_site_fract_z
_atom_type_partial_charge
C1    C     C_R   0.483559 0.315871 0.499112 0.808508
C2    C     C_3   0.395297 0.442473 0.948016 -0.348792
C3    C     C_3   0.498155 0.501902 0.917254 0.240471
C4    C     C_3   0.508848 0.607707 0.952410 0.129285
C5    C     C_3   0.508779 0.606814 0.050140 -0.383901
C6    C     C_1   0.497707 0.500906 0.825100 -0.042167
C7    C     C_1   0.501958 0.500822 0.174872 -0.084398
C8    C     C_1   0.501996 0.500432 0.250355 -0.158582
C9    C     C_1   0.526157 0.787399 0.501618 -0.148173
C10   C     C_2   0.546676 0.978271 0.503155 0.303267
C11   C     C_2   0.459649 0.021985 0.497485 -0.232968
C12   C     C_R   0.500657 0.500042 0.339901 0.822580
C13   C     C_1   0.466779 0.125697 0.498004 0.087071
C14   C     C_1   0.535663 0.874431 0.502326 -0.010551
C15   C     C_1   0.474323 0.212638 0.498518 -0.127807
C16   C     C_2   0.028349 0.473150 0.476370 -0.247693
C17   C     C_2   0.971646 0.526812 0.523640 -0.247952
C18   C     C_1   0.854578 0.519268 0.516953 0.236015
C19   C     C_1   0.145420 0.480714 0.483046 0.227519
C20   C     C_R   0.516471 0.684134 0.500911 0.827444
C21   C     C_R   0.499339 0.499973 0.660095 0.826950
C22   C     C_3   0.396410 0.443114 0.045498 -0.368791
C23   C     C_3   0.595405 0.454786 0.051189 -0.376599
C24   C     C_3   0.593714 0.454823 0.953667 -0.442368
C25   C     C_1   0.497978 0.500317 0.749630 -0.128979
C26   C     C_3   0.500795 0.501358 0.082768 0.259341
Cu1   Cu    Cu3+1 0.395330 0.493960 0.494700 0.997066
Cu2   Cu    Cu3+1 0.604670 0.506040 0.505300 1.007096
H1    H     H_    0.388439 0.366224 0.924630 0.166462
H2    H     H_    0.327190 0.475890 0.066662 0.183587
H3    H     H_    0.324267 0.472642 0.922236 0.210086
H4    H     H_    0.585438 0.648205 0.933398 0.131891
H5    H     H_    0.381384 0.979425 0.492310 0.139968
H6    H     H_    0.013590 0.578458 0.569164 0.171212
H7    H     H_    0.986405 0.421501 0.430847 0.170522
H8    H     H_    0.388142 0.367145 0.068631 0.171820
H9    H     H_    0.671451 0.495746 0.076856 0.175670
H10   H     H_    0.591453 0.378902 0.074050 0.181642
H11   H     H_    0.588747 0.378902 0.929814 0.189850
H12   H     H_    0.669233 0.495358 0.932578 0.175358
H13   H     H_    0.441501 0.641335 0.072695 0.207437
H14   H     H_    0.582919 0.650380 0.076579 0.154084
N1    N     N_1   0.238030 0.484880 0.486720 -0.153658
N2    N     N_1   0.761970 0.515120 0.513270 -0.151812
O1    O     O_R   0.399110 0.356330 0.494870 -0.574756
O2    O     O_R   0.575900 0.366540 0.503830 -0.555643
O3    O     O_R   0.411570 0.494900 0.374960 -0.571937
O4    O     O_R   0.588350 0.505100 0.383910 -0.571324
O5    O     O_R   0.424100 0.633460 0.496170 -0.571225
O6    O     O_R   0.600890 0.643670 0.505130 -0.563410
O7    O     O_R   0.411650 0.494900 0.616090 -0.563757
O8    O     O_R   0.588430 0.505100 0.625040 -0.571849
Br1   Br    Br    0.687317 0.049087 0.512442 -0.472541
Br2   Br    Br    0.398450 0.679489 0.905831 -0.530572

loop_
_geom_bond_atom_site_label_1
_geom_bond_atom_site_label_2
_ccdc_geom_bond_type
C2    C22   S    
C17   H6    S    
C9    C14   T    
C20   O5    A    
C1    C15   S    
C11   H5    S    
C18   N2    T    
C23   H10   S    
C22   H8    S    
C9    C20   S    
C8    C12   S    
C12   O4    A    
C3    C6    S    
Cu2   O2    S    
Cu1   O1    S    
C17   C18   S    
C7    C8    T    
Cu2   O8    S    
C1    O1    A    
C3    C24   S    
C4    H4    S    
C7    C26   S    
C12   O3    A    
C24   H12   S    
C19   N1    T    
C2    C3    S    
C13   C15   T    
C16   H7    S    
C10   C14   S    
C1    O2    A    
C21   O7    A    
C16   C17   D    
C10   C11   D    
C23   C24   S    
C5    H13   S    
C5    C26   S    
C6    C25   T    
Cu1   N1    S    
C11   C13   S    
C24   H11   S    
C2    H1    S    
Cu1   O5    S    
C5    H14   S    
C22   C26   S    
C23   C26   S    
Cu1   O3    S    
Cu1   Cu2   S    
C10   Br1   S    
C21   C25   S    
C4    C5    S    
C20   O6    A    
C22   H2    S    
C4    Br2   S    
C23   H9    S    
Cu2   O6    S    
Cu2   N2    S    
C21   O8    A    
Cu2   O4    S    
C3    C4    S    
Cu1   O7    S    
C2    H3    S    
C16   C19   S    
