data_mof_unit_27954.cif
_audit_creation_date              2013-03-05T16:35:36-0500
_audit_creation_method            fapswitch 2.2
_symmetry_space_group_name_H-M    P1
_symmetry_Int_Tables_number       1
_space_group_crystal_system       triclinic
_cell_length_a                    7.7948
_cell_length_b                    9.078384
_cell_length_c                    17.210729
_cell_angle_alpha                 90.011312
_cell_angle_beta                  85.018815
_cell_angle_gamma                 90.102614
_cell_volume                      1213.30161086

loop_
_atom_site_label
_atom_site_type_symbol
_atom_site_description
_atom_site_fract_x
_atom_site_fract_y
_atom_site_fract_z
_atom_type_partial_charge
O1    O     O_R   0.357240 0.711600 0.500000 -0.578784
O2    O     O_R   0.642760 0.288400 0.500000 -0.578786
O3    O     O_R   0.642760 0.711600 0.500000 -0.575972
O4    O     O_R   0.357240 0.288400 0.500000 -0.575971
H1    H     H_    0.348114 0.727288 0.888368 0.203063
H2    H     H_    0.651788 0.272630 0.111648 0.203087
C1    C     C_R   0.500084 0.779914 0.500025 0.833747
C2    C     C_R   0.499916 0.220086 0.499975 0.833743
O5    O     O_R   0.340660 0.500000 0.613590 -0.580760
O6    O     O_R   0.659340 0.500000 0.386410 -0.580758
O7    O     O_R   0.626230 0.500000 0.613600 -0.577298
O8    O     O_R   0.373770 0.500000 0.386400 -0.577294
C3    C     C_R   0.476236 0.500410 0.650216 0.831142
C4    C     C_R   0.523764 0.499589 0.349784 0.831144
Cu1   Cu    Cu3+1 0.330920 0.500000 0.500000 1.005974
Cu2   Cu    Cu3+1 0.669080 0.500000 0.500000 1.005972
N1    N     N_1   0.923170 0.500000 0.500010 -0.043523
N2    N     N_1   0.076830 0.500000 0.499990 -0.043523
C5    C     C_R   0.458309 0.499606 0.735128 -0.074418
C6    C     C_R   0.541693 0.500375 0.264873 -0.074408
C7    C     C_R   0.490898 0.368684 0.775855 0.013925
C8    C     C_R   0.509182 0.631305 0.224138 0.013928
C9    C     C_R   0.477393 0.370729 0.858143 0.366870
C10   C     C_R   0.522702 0.629245 0.141848 0.366876
C11   C     C_R   0.427740 0.502180 0.897795 -0.061677
C12   C     C_R   0.572296 0.497771 0.102207 -0.061720
C13   C     C_R   0.386485 0.627701 0.856674 -0.134977
C14   C     C_R   0.613469 0.372236 0.143335 -0.134976
C15   C     C_R   0.403213 0.628657 0.775457 0.110005
C16   C     C_R   0.596723 0.371296 0.224552 0.110015
C17   C     C_2   0.429130 0.515963 0.982453 -0.067247
C18   C     C_2   0.570912 0.483982 0.017549 -0.067218
C19   C     C_1   0.500120 0.934589 0.500009 -0.172355
C20   C     C_1   0.499880 0.065411 0.499991 -0.172358
H3    H     H_    0.683048 0.437225 0.984595 0.182917
H4    H     H_    0.316999 0.562725 0.015409 0.182888
N3    N     N_R   0.487570 0.759374 0.098485 0.108204
O9    O     O_R   0.336296 0.820548 0.107555 -0.340524
O10   O     O_R   0.600495 0.808154 0.044424 -0.308939
N4    N     N_R   0.512596 0.240606 0.901497 0.108189
O11   O     O_R   0.399702 0.191774 0.955557 -0.308935
O12   O     O_R   0.663899 0.179485 0.892417 -0.340539
C21   C     C_3   0.532409 0.227828 0.730774 -0.757161
H5    H     H_    0.532910 0.128835 0.768317 0.271062
H6    H     H_    0.433521 0.207649 0.689248 0.203009
H7    H     H_    0.660498 0.237919 0.697577 0.239723
C22   C     C_3   0.467736 0.772181 0.269209 -0.757216
H8    H     H_    0.467276 0.871169 0.231661 0.271057
H9    H     H_    0.339643 0.762135 0.302409 0.239709
H10   H     H_    0.566634 0.792334 0.310733 0.203035
C23   C     C_3   0.633499 0.231230 0.267335 -0.802875
H11   H     H_    0.517051 0.196642 0.304689 0.218582
H12   H     H_    0.670340 0.139555 0.226511 0.246160
H13   H     H_    0.741142 0.249592 0.304441 0.242135
C24   C     C_3   0.366350 0.768713 0.732684 -0.802828
H14   H     H_    0.482769 0.803350 0.695325 0.218560
H15   H     H_    0.258704 0.750315 0.695585 0.242148
H16   H     H_    0.329473 0.860370 0.773514 0.246171

loop_
_geom_bond_atom_site_label_1
_geom_bond_atom_site_label_2
_geom_bond_distance
_ccdc_geom_bond_type
C11   C17   1.463342 S    
Cu1   N2    1.980596 S    
O2    C2    1.273570 A    
C16   C23   1.509822 S    
C12   C18   1.463338 S    
N3    O9    1.301363 A    
O1    Cu1   1.931545 S    
O2    Cu2   1.931546 S    
C13   C15   1.392586 A    
O7    C3    1.279132 A    
O7    Cu2   1.954666 S    
C12   C14   1.394249 A    
C17   C18   1.337036 D    
O8    Cu1   1.954668 S    
C6    C8    1.414509 A    
O4    C2    1.274303 A    
C23   H13   1.110022 S    
O4    Cu1   1.932277 S    
N4    O12   1.301364 A    
N1    N2    1.197720 T    
O5    Cu1   1.963016 S    
C23   H11   1.110641 S    
N3    O10   1.301216 A    
C6    C16   1.410146 A    
C21   H6    1.110677 S    
C1    C19   1.404196 S    
C21   H5    1.107176 S    
C14   C16   1.392583 A    
N4    O11   1.301221 A    
C5    C7    1.414520 A    
O8    C4    1.279132 A    
C8    C22   1.516354 S    
C22   H10   1.110677 S    
O3    C1    1.274303 A    
C24   H15   1.110019 S    
C7    C9    1.411125 A    
C21   H7    1.110106 S    
C8    C10   1.411146 A    
C24   H14   1.110639 S    
C11   C13   1.394253 A    
C3    C5    1.455953 S    
C23   H12   1.111020 S    
Cu1   Cu2   2.635890 S    
C5    C15   1.410145 A    
C18   H3    1.086746 S    
C4    C6    1.455947 S    
C9    C11   1.412481 A    
C19   C20   1.187666 T    
C22   H9    1.110107 S    
O6    C4    1.276647 A    
C24   H16   1.111022 S    
C2    C20   1.404196 S    
C10   N3    1.436863 S    
O5    C3    1.276647 A    
C17   H4    1.086751 S    
C7    C21   1.516361 S    
O6    Cu2   1.963017 S    
C15   C24   1.509819 S    
O1    C1    1.273569 A    
H1    C13   1.084817 S    
H2    C14   1.084815 S    
O3    Cu2   1.932276 S    
C9    N4    1.436864 S    
C10   C12   1.412472 A    
Cu2   N1    1.980595 S    
C22   H8    1.107175 S    
