data_mof_unit_12015.cif
_audit_creation_date              2012-12-10T16:50:58-0500
_audit_creation_method            fapswitch 2.2
_symmetry_space_group_name_H-M    P1
_symmetry_Int_Tables_number       1
_space_group_crystal_system       triclinic
_cell_length_a                    7.976655
_cell_length_b                    8.535714
_cell_length_c                    10.709808
_cell_angle_alpha                 93.072311
_cell_angle_beta                  84.398496
_cell_angle_gamma                 93.573145
_cell_volume                      723.470896962

loop_
_atom_site_label
_atom_site_type_symbol
_atom_type_description
_atom_site_fract_x
_atom_site_fract_y
_atom_site_fract_z
_atom_type_partial_charge
C1    C     C_R   0.544805 0.793734 0.497030 0.957575
C2    C     C_R   0.939771 0.394831 0.026169 -0.136195
C3    C     C_R   0.038198 0.516879 0.081894 -0.094866
C4    C     C_R   0.961791 0.483206 0.918093 -0.094812
C5    C     C_R   0.181072 0.470346 0.131982 -0.179946
C6    C     C_R   0.818917 0.529752 0.868013 -0.179928
C7    C     C_R   0.343457 0.494922 0.070921 0.086726
C8    C     C_R   0.656540 0.505160 0.929081 0.086716
C9    C     C_R   0.359580 0.558085 0.952753 0.082320
C10   C     C_R   0.640419 0.441992 0.047244 0.082301
C11   C     C_R   0.489376 0.456736 0.124221 -0.233863
C12   C     C_R   0.455195 0.206266 0.502969 0.957596
C13   C     C_R   0.510620 0.543329 0.875778 -0.233887
C14   C     C_2   0.567906 0.957731 0.497082 -0.362919
C15   C     C_2   0.432094 0.042269 0.502913 -0.362919
C16   C     C_R   0.503757 0.519301 0.739662 0.862533
C17   C     C_R   0.496242 0.480720 0.260336 0.862543
C18   C     C_R   0.223283 0.634851 0.915710 -0.182357
C19   C     C_R   0.776715 0.365224 0.084278 -0.182374
C20   C     C_R   0.060221 0.605251 0.973819 -0.136186
H1    H     H_    0.032858 0.422282 0.839746 0.190757
H2    H     H_    0.303570 0.991748 0.506683 0.219448
H3    H     H_    0.967123 0.577800 0.160236 0.190763
H4    H     H_    0.240850 0.714222 0.839191 0.171413
H5    H     H_    0.759148 0.285857 0.160801 0.171438
H6    H     H_    0.999825 0.716973 0.984046 0.159576
H7    H     H_    0.000173 0.283114 0.015942 0.159585
H8    H     H_    0.159972 0.394679 0.209386 0.189597
H9    H     H_    0.839982 0.605447 0.790611 0.189558
H10   H     H_    0.696430 0.008252 0.493311 0.219445
I1    I     I_    0.001390 0.227874 0.410873 -0.320395
I2    I     I_    0.998649 0.772171 0.589058 -0.320400
N1    N     N_2   0.950330 0.457950 0.466250 0.012190
N2    N     N_2   0.049670 0.542050 0.533750 0.012187
O1    O     O_R   0.389250 0.738570 0.508280 -0.598151
O2    O     O_R   0.610750 0.261430 0.491720 -0.598149
O3    O     O_R   0.678390 0.711630 0.486650 -0.596513
O4    O     O_R   0.321610 0.288370 0.513350 -0.596504
O5    O     O_R   0.355430 0.513480 0.694040 -0.618215
O6    O     O_R   0.644570 0.486520 0.305960 -0.618221
O7    O     O_R   0.644570 0.486540 0.672410 -0.610397
O8    O     O_R   0.355430 0.513460 0.327590 -0.610405
Zn1   Zn    Zn3+2 0.306940 0.517990 0.514440 1.001669
Zn2   Zn    Zn3+2 0.693060 0.482010 0.485560 1.001668

loop_
_geom_bond_atom_site_label_1
_geom_bond_atom_site_label_2
_ccdc_geom_bond_type
C2    C4    A    
I1    N1    S    
C2    H7    S    
C12   O2    A    
C5    H8    S    
O1    Zn1   S    
O6    Zn2   S    
C3    H3    S    
C12   C15   S    
C1    O3    A    
C10   C19   A    
O3    Zn2   S    
C2    C3    A    
C5    C7    A    
C3    C20   A    
C7    C11   A    
C4    H1    S    
C8    C13   A    
C20   H6    S    
C14   H10   S    
C18   H4    S    
C6    C8    A    
C8    C10   A    
N1    N2    D    
C18   C20   A    
C12   O4    A    
C19   H5    S    
O7    Zn2   S    
O2    Zn2   S    
C10   C11   A    
C16   O5    A    
C4    C20   A    
C9    C18   A    
O4    Zn1   S    
C6    H9    S    
C1    O1    A    
C4    C6    A    
O8    Zn1   S    
C13   C16   S    
C7    C9    A    
C9    C13   A    
C17   O8    A    
C11   C17   S    
O5    Zn1   S    
C1    C14   S    
C2    C19   A    
C14   C15   D    
N1    Zn2   S    
C16   O7    A    
C15   H2    S    
N2    Zn1   S    
C3    C5    A    
C17   O6    A    
I2    N2    S    
