data_mof_unit_24789.cif
_audit_creation_date              2012-12-10T18:35:01-0500
_audit_creation_method            fapswitch 2.2
_symmetry_space_group_name_H-M    P1
_symmetry_Int_Tables_number       1
_space_group_crystal_system       triclinic
_cell_length_a                    15.309661
_cell_length_b                    13.930315
_cell_length_c                    10.858351
_cell_angle_alpha                 87.652888
_cell_angle_beta                  92.201792
_cell_angle_gamma                 89.503858
_cell_volume                      2311.97070042

loop_
_atom_site_label
_atom_site_type_symbol
_atom_type_description
_atom_site_fract_x
_atom_site_fract_y
_atom_site_fract_z
_atom_type_partial_charge
C1    C     C_R   0.329360 0.500047 0.500844 0.952169
C2    C     C_R   0.670447 0.499616 0.498742 0.853090
C3    C     C_R   0.231594 0.499583 0.494001 -0.341620
C4    C     C_R   0.767876 0.498881 0.503806 -0.366893
C5    C     C_R   0.184627 0.412548 0.478229 0.314374
C6    C     C_R   0.816675 0.412399 0.529575 0.249100
C7    C     C_R   0.093441 0.415123 0.460654 0.376121
C8    C     C_R   0.907811 0.415462 0.545507 0.367949
C9    C     C_R   0.046893 0.500305 0.480289 -0.116146
C10   C     C_R   0.952357 0.500494 0.514379 -0.116524
C11   C     C_R   0.528897 0.100958 0.599626 0.260724
C12   C     C_R   0.467648 0.111515 0.392843 0.251393
C13   C     C_R   0.537401 0.201926 0.594420 0.453321
C14   C     C_R   0.459956 0.212237 0.402938 0.453201
C15   C     C_R   0.498721 0.053347 0.494671 -0.145782
C16   C     C_R   0.425706 0.892841 0.452754 0.237171
C17   C     C_R   0.574575 0.890365 0.533325 0.243228
C18   C     C_R   0.432993 0.791632 0.438876 0.513442
C19   C     C_R   0.567165 0.789641 0.555799 0.511512
C20   C     C_R   0.499866 0.944483 0.492281 -0.059013
C21   C     C_R   0.509505 0.502386 0.263483 0.848761
C22   C     C_R   0.499641 0.498791 0.738813 0.862230
C23   C     C_R   0.523136 0.688286 0.091847 0.297162
C24   C     C_R   0.417841 0.652519 0.882579 0.337438
C25   C     C_R   0.485910 0.765456 0.019491 0.217538
C26   C     C_R   0.426309 0.746769 0.922141 0.230600
C27   C     C_R   0.472015 0.579157 0.937885 -0.158343
C28   C     C_R   0.505872 0.592811 0.057817 -0.182832
C29   C     C_R   0.527327 0.509090 0.131308 -0.203490
C30   C     C_R   0.503353 0.498617 0.875189 -0.212624
C31   C     C_R   0.558221 0.428458 0.072057 0.404294
C32   C     C_R   0.557774 0.431276 0.943597 0.431869
C33   C     C_R   0.092962 0.585891 0.461858 0.365175
C34   C     C_R   0.904455 0.586314 0.522008 0.363330
C35   C     C_R   0.182681 0.586881 0.486846 0.317926
C36   C     C_R   0.814471 0.586549 0.498991 0.311078
Cu1   Cu    Cu3+1 0.500000 0.596430 0.500000 1.112028
Cu2   Cu    Cu3+1 0.500000 0.403570 0.500000 1.113122
N1    N     N_R   0.500000 0.258690 0.500000 -0.301228
N2    N     N_R   0.500000 0.741330 0.500000 -0.266171
O1    O     O_R   0.371460 0.581430 0.500010 -0.483443
O2    O     O_R   0.628540 0.581430 0.499990 -0.489606
O3    O     O_R   0.371470 0.418560 0.500010 -0.526430
O4    O     O_R   0.628530 0.418560 0.499990 -0.542145
O5    O     O_R   0.500000 0.581450 0.319650 -0.542224
O6    O     O_R   0.500000 0.581450 0.680350 -0.570450
O7    O     O_R   0.500010 0.418580 0.319650 -0.527671
O8    O     O_R   0.499990 0.418580 0.680350 -0.516266
O9    O     O_3   0.591504 0.347539 0.136545 -0.507198
C37   C     C_3   0.675711 0.366731 0.186930 0.081664
H1    H     H_    0.670978 0.408817 0.270758 0.146497
H2    H     H_    0.716700 0.407438 0.121043 0.126227
C38   C     C_3   0.721859 0.271931 0.222044 -0.592403
H3    H     H_    0.684331 0.230974 0.291865 0.254800
H4    H     H_    0.727415 0.228432 0.139212 0.259876
H5    H     H_    0.788508 0.285679 0.260923 0.231964
O10   O     O_3   0.620117 0.377099 0.889335 -0.489762
C39   C     C_3   0.692355 0.435933 0.860418 0.015910
H6    H     H_    0.704259 0.493527 0.927397 0.103345
H7    H     H_    0.681393 0.470105 0.766846 0.152110
C40   C     C_3   0.775449 0.374961 0.861283 -0.548660
H8    H     H_    0.768197 0.316359 0.796004 0.318872
H9    H     H_    0.831148 0.420549 0.833752 0.204037
H10   H     H_    0.790268 0.342570 0.954817 0.227088
O11   O     O_3   0.347251 0.940405 0.426065 -0.560866
C41   C     C_3   0.304207 0.952659 0.537012 0.093763
H11   H     H_    0.341513 0.001300 0.598057 0.189210
H12   H     H_    0.294921 0.882513 0.587345 0.235297
C42   C     C_3   0.214664 0.997576 0.507170 -0.531286
H13   H     H_    0.175089 0.949616 0.448320 0.263561
H14   H     H_    0.180267 0.008376 0.593797 0.233553
H15   H     H_    0.221783 0.068211 0.457509 0.283735
O12   O     O_3   0.653322 0.934856 0.558379 -0.546492
C43   C     C_3   0.692791 0.958697 0.445897 0.104680
H16   H     H_    0.653849 0.014285 0.390940 0.156123
H17   H     H_    0.700397 0.894215 0.389698 0.223354
C44   C     C_3   0.782973 0.999320 0.473290 -0.567873
H18   H     H_    0.824377 0.944811 0.525984 0.280803
H19   H     H_    0.814524 0.019152 0.385561 0.214939
H20   H     H_    0.777305 0.064417 0.528321 0.280622
O13   O     O_3   0.370145 0.739215 0.376015 -0.522832
C45   C     C_3   0.336714 0.785364 0.265773 0.157547
H21   H     H_    0.388037 0.825108 0.215999 0.191652
H22   H     H_    0.282268 0.834842 0.285302 0.237717
C46   C     C_3   0.298096 0.709790 0.182864 -0.697499
H23   H     H_    0.242064 0.674463 0.227595 0.274078
H24   H     H_    0.274745 0.744025 0.093340 0.252522
H25   H     H_    0.347886 0.654125 0.165919 0.229222
O14   O     O_3   0.630032 0.737791 0.626142 -0.515008
C47   C     C_3   0.640675 0.775199 0.744950 0.173184
H26   H     H_    0.577308 0.798255 0.782171 0.156592
H27   H     H_    0.686230 0.836710 0.743150 0.241302
C48   C     C_3   0.681009 0.698313 0.833049 -0.769650
H28   H     H_    0.744019 0.672632 0.798288 0.271709
H29   H     H_    0.692751 0.727815 0.925621 0.259190
H30   H     H_    0.635712 0.637256 0.841349 0.209026
Cl1   Cl    Cl    0.607559 0.712870 0.201521 -0.529660
Cl2   Cl    Cl    0.330954 0.623863 0.780108 -0.479028
Cl3   Cl    Cl    0.514194 0.885042 0.049593 -0.391375
Cl4   Cl    Cl    0.366893 0.841701 0.844943 -0.478911
Cl5   Cl    Cl    0.047843 0.681013 0.365434 -0.454105
Cl6   Cl    Cl    0.948104 0.683367 0.604391 -0.433051
Cl7   Cl    Cl    0.225172 0.699706 0.522291 -0.440904
Cl8   Cl    Cl    0.767295 0.698877 0.452488 -0.441761
Cl9   Cl    Cl    0.233751 0.296907 0.488845 -0.442336
Cl10  Cl    Cl    0.769506 0.297131 0.536126 -0.544820
Cl11  Cl    Cl    0.042376 0.320657 0.381080 -0.431583
Cl12  Cl    Cl    0.961181 0.322361 0.636869 -0.440016
Cl13  Cl    Cl    0.552203 0.036392 0.741352 -0.408404
Cl14  Cl    Cl    0.441905 0.060868 0.249254 -0.378968
Cl15  Cl    Cl    0.603750 0.250533 0.707049 -0.390205
Cl16  Cl    Cl    0.390291 0.272738 0.291511 -0.381560

loop_
_geom_bond_atom_site_label_1
_geom_bond_atom_site_label_2
_ccdc_geom_bond_type
C22   O8    A    
C4    C36   A    
C48   H28   S    
C11   Cl13  S    
O12   C43   S    
C41   H12   S    
C24   C27   A    
C18   O13   S    
C12   Cl14  S    
O13   C45   S    
C47   H26   S    
C5    Cl9   S    
C46   H23   S    
C14   Cl16  S    
C34   Cl6   S    
C43   H17   S    
C33   Cl5   S    
C28   C29   A    
C24   C26   A    
Cu1   N2    S    
C35   Cl7   S    
Cu2   N1    S    
C46   H25   S    
C41   C42   S    
C17   O12   S    
C39   H7    S    
C17   C20   A    
C40   H9    S    
Cu1   O2    S    
C42   H14   S    
C18   N2    A    
C17   C19   A    
C14   N1    A    
C11   C15   A    
C1    O3    A    
C2    O4    A    
C43   C44   S    
C37   H2    S    
C9    C10   S    
Cu2   O8    S    
Cu1   O6    S    
C38   H5    S    
C39   C40   S    
C44   H19   S    
C41   H11   S    
C48   H29   S    
C27   C30   A    
C9    C33   A    
C40   H8    S    
C32   O10   S    
C31   O9    S    
C8    Cl12  S    
C25   Cl3   S    
C21   O5    A    
C38   H4    S    
C15   C20   S    
C37   C38   S    
C43   H16   S    
C46   H24   S    
C4    C6    A    
C5    C7    A    
C6    C8    A    
C25   C26   A    
C44   H18   S    
C21   C29   S    
C1    C3    S    
C42   H15   S    
C2    C4    S    
Cu2   O4    S    
Cu1   Cu2   S    
C19   O14   S    
C47   H27   S    
C31   C32   A    
C12   C15   A    
C3    C35   A    
C16   C20   A    
C37   H1    S    
C6    Cl10  S    
C10   C34   A    
C16   C18   A    
C23   C28   A    
Cu2   O7    S    
C1    O1    A    
C22   O6    A    
C12   C14   A    
O9    C37   S    
C48   H30   S    
C45   H22   S    
C24   Cl2   S    
O11   C41   S    
Cu1   O5    S    
C47   C48   S    
C44   H20   S    
C7    C9    A    
C22   C30   S    
C23   Cl1   S    
C3    C5    A    
C38   H3    S    
C45   C46   S    
C36   Cl8   S    
C39   H6    S    
Cu2   O3    S    
C29   C31   A    
C40   H10   S    
C30   C32   A    
C11   C13   A    
O10   C39   S    
C2    O2    A    
C13   Cl15  S    
C33   C35   A    
C34   C36   A    
C7    Cl11  S    
C23   C25   A    
Cu1   O1    S    
C42   H13   S    
C13   N1    A    
C19   N2    A    
C8    C10   A    
C45   H21   S    
C27   C28   A    
C16   O11   S    
O14   C47   S    
C26   Cl4   S    
C21   O7    A    
