data_mof_unit_51400.cif
_audit_creation_date              2012-12-11T16:24:22-0500
_audit_creation_method            fapswitch 2.2
_symmetry_space_group_name_H-M    P1
_symmetry_Int_Tables_number       1
_space_group_crystal_system       triclinic
_cell_length_a                    14.699101
_cell_length_b                    14.712329
_cell_length_c                    33.311367
_cell_angle_alpha                 95.867097
_cell_angle_beta                  96.162161
_cell_angle_gamma                 61.295939
_cell_volume                      6271.46377364

loop_
_atom_site_label
_atom_site_type_symbol
_atom_type_description
_atom_site_fract_x
_atom_site_fract_y
_atom_site_fract_z
_atom_type_partial_charge
Br1   Br    Br    0.806162 0.162027 0.421160 -0.309814
Br2   Br    Br    0.539427 0.172150 0.295695 -0.381934
Br3   Br    Br    0.912946 0.089283 0.788769 -0.323191
Br4   Br    Br    0.833418 0.531009 0.607641 -0.396786
Br5   Br    Br    0.791389 0.529185 0.812114 -0.384792
Br6   Br    Br    0.478093 0.943807 0.903871 -0.276053
Br7   Br    Br    0.497025 0.903520 0.805832 -0.240972
Br8   Br    Br    0.170801 0.789995 0.788860 -0.286078
Br9   Br    Br    0.144444 0.828492 0.887204 -0.294490
Br10  Br    Br    0.125988 0.920487 0.678181 -0.394240
Br11  Br    Br    0.161216 0.541694 0.401874 -0.410762
Br12  Br    Br    0.851279 0.504345 0.087421 -0.358721
Br13  Br    Br    0.888707 0.088572 0.055429 -0.328245
Br14  Br    Br    0.518042 0.826812 0.437617 -0.307621
Br15  Br    Br    0.145877 0.822815 0.062282 -0.274950
Br16  Br    Br    0.518916 0.866888 0.341232 -0.304209
Br17  Br    Br    0.183279 0.778372 0.159279 -0.312783
Br18  Br    Br    0.529466 0.867065 0.173078 -0.286631
Br19  Br    Br    0.475041 0.117141 0.657180 -0.360617
C1    C     C_R   0.390940 0.699842 0.445969 0.571560
C2    C     C_1   0.317902 0.350325 0.228202 0.050010
C3    C     C_1   0.324302 0.353376 0.264446 0.060995
C4    C     C_R   0.405496 0.386326 0.433957 0.563818
C5    C     C_R   0.293803 0.297487 0.101455 0.089012
C6    C     C_R   0.746950 0.378390 0.407257 0.011153
C7    C     C_R   0.741863 0.455290 0.383430 0.205250
C8    C     C_R   0.756434 0.432957 0.342094 -0.146095
C9    C     C_R   0.775035 0.336457 0.323631 -0.037198
C10   C     C_R   0.787844 0.256638 0.347702 0.264743
C11   C     C_R   0.778172 0.276720 0.389580 0.166644
C12   C     C_R   0.337369 0.352628 0.307582 0.011879
C13   C     C_R   0.803261 0.306040 0.198882 0.382362
C14   C     C_R   0.782264 0.322966 0.279470 0.327197
C15   C     C_R   0.821646 0.386146 0.140984 -0.136662
C16   C     C_R   0.700147 0.410424 0.447035 0.586611
C17   C     C_R   0.858045 0.378900 0.103356 0.131369
C18   C     C_R   0.880567 0.202713 0.092259 0.115185
C19   C     C_R   0.849582 0.209241 0.131692 0.260388
C20   C     C_R   0.823109 0.300551 0.156221 0.014241
C21   C     C_R   0.896024 0.283793 0.079586 -0.007296
C22   C     C_R   0.372645 0.749124 0.407339 -0.031718
C23   C     C_R   0.430255 0.279151 0.326307 0.175472
C24   C     C_R   0.303268 0.736292 0.377895 -0.148447
C25   C     C_R   0.299562 0.757740 0.337710 0.219843
C26   C     C_R   0.365547 0.793903 0.326728 0.043697
C27   C     C_R   0.429491 0.815674 0.356453 0.132054
C28   C     C_R   0.393006 0.702363 0.561001 0.582500
C29   C     C_R   0.432633 0.793932 0.396987 0.172347
C30   C     C_R   0.360019 0.822128 0.203292 0.390744
C31   C     C_R   0.369634 0.803089 0.283644 0.412822
C32   C     C_R   0.268998 0.822791 0.135724 0.147667
C33   C     C_R   0.248189 0.849503 0.095158 0.148125
C34   C     C_R   0.446874 0.286070 0.368148 -0.102582
C35   C     C_R   0.394350 0.886694 0.101676 0.217704
C36   C     C_R   0.412625 0.862940 0.142232 0.188352
C37   C     C_R   0.347758 0.834957 0.159731 -0.040914
C38   C     C_R   0.304212 0.892062 0.079113 -0.061625
C39   C     C_R   0.371076 0.368839 0.585025 -0.012248
C40   C     C_R   0.407346 0.388770 0.549058 0.545686
C41   C     C_R   0.294005 0.451728 0.606764 -0.122150
C42   C     C_R   0.275641 0.438867 0.645327 -0.125778
C43   C     C_R   0.333418 0.342749 0.662990 0.035492
C44   C     C_R   0.403303 0.256288 0.639380 0.167572
C45   C     C_R   0.396562 0.258572 0.165898 -0.091714
C46   C     C_R   0.422234 0.270362 0.600852 -0.088659
C47   C     C_R   0.319192 0.345128 0.788035 0.323828
C48   C     C_R   0.325696 0.338876 0.706592 0.355176
C49   C     C_R   0.212409 0.382413 0.845828 -0.139064
C50   C     C_R   0.200832 0.363773 0.884401 -0.158885
C51   C     C_R   0.388739 0.275665 0.897974 0.319567
C52   C     C_R   0.702213 0.413085 0.562623 0.558543
C53   C     C_R   0.400392 0.295493 0.859003 0.324669
C54   C     C_R   0.311531 0.343642 0.831771 -0.023579
C55   C     C_R   0.288069 0.305265 0.909992 -0.035751
C56   C     C_R   0.388208 0.236617 0.124084 0.213132
C57   C     C_R   0.755247 0.378796 0.602907 0.023677
C58   C     C_R   0.803619 0.430450 0.627305 0.154113
C59   C     C_R   0.831363 0.409306 0.668146 -0.064160
C60   C     C_R   0.812858 0.336846 0.684854 0.008004
C61   C     C_R   0.772276 0.280449 0.660415 -0.094700
C62   C     C_R   0.744158 0.300795 0.619781 -0.140434
C63   C     C_R   0.892105 0.210582 0.822606 0.152537
C64   C     C_R   0.372128 0.366747 0.391925 -0.006508
C65   C     C_R   0.918443 0.199847 0.864015 -0.087794
C66   C     C_R   0.869289 0.382767 0.873679 -0.097204
C67   C     C_R   0.213961 0.386738 0.120660 0.206571
C68   C     C_R   0.841999 0.394423 0.832355 0.141068
C69   C     C_R   0.856460 0.307502 0.806494 0.039407
C70   C     C_1   0.841195 0.316509 0.763495 0.095625
C71   C     C_1   0.829345 0.324862 0.727557 0.057764
C72   C     C_R   0.910925 0.284872 0.889651 -0.044164
C73   C     C_R   0.375454 0.757084 0.601483 0.006615
C74   C     C_R   0.274290 0.816140 0.615103 0.251400
C75   C     C_R   0.261974 0.846549 0.656835 0.112921
C76   C     C_R   0.274956 0.435411 0.372965 0.141963
C77   C     C_R   0.350604 0.818647 0.683810 0.054622
C78   C     C_R   0.224748 0.406409 0.162594 -0.101820
C79   C     C_R   0.450540 0.767659 0.669606 0.230372
C80   C     C_R   0.462202 0.737647 0.628420 -0.169906
C81   C     C_R   0.390792 0.889833 0.830218 0.160791
C82   C     C_R   0.377735 0.911961 0.871908 0.132309
C83   C     C_R   0.238126 0.864404 0.864598 0.147750
C84   C     C_R   0.252433 0.842261 0.822955 0.168028
C85   C     C_R   0.325120 0.859806 0.805746 -0.030527
C86   C     C_1   0.333133 0.846420 0.762682 0.130756
C87   C     C_1   0.340412 0.835263 0.726721 0.164437
C88   C     C_R   0.258917 0.428009 0.330894 -0.105714
C89   C     C_R   0.313763 0.340207 0.185040 -0.024859
C90   C     C_R   0.294530 0.908336 0.888961 -0.047506
C91   C     C_R   0.960649 0.264989 0.044987 0.576990
C92   C     C_R   0.273260 0.260086 0.059999 0.589807
C93   C     C_R   0.261092 0.956458 0.043158 0.555551
C94   C     C_R   0.962518 0.267687 0.930730 0.544910
C95   C     C_R   0.271052 0.264716 0.945560 0.523629
C96   C     C_R   0.257547 0.963015 0.929086 0.566821
Cr1   Cr    Cr6+3 0.576280 0.580550 0.506370 1.152152
Cr2   Cr    Cr6+3 0.346780 0.572400 0.496520 1.126036
Cr3   Cr    Cr6+3 0.576960 0.347070 0.497150 1.095714
Cr4   Cr    Cr6+3 0.087320 0.083240 0.984860 1.156843
Cr5   Cr    Cr6+3 0.087720 0.316210 0.996740 1.131520
Cr6   Cr    Cr6+3 0.317350 0.090340 0.995890 1.146446
H1    H     H_    0.750747 0.492755 0.323913 0.160654
H2    H     H_    0.950831 0.123462 0.875589 0.194316
H3    H     H_    0.758401 0.223616 0.673127 0.173053
H4    H     H_    0.708010 0.259135 0.602216 0.160401
H5    H     H_    0.862580 0.449385 0.892914 0.186335
H6    H     H_    0.521599 0.231564 0.381646 0.201863
H7    H     H_    0.864740 0.451611 0.687146 0.175870
H8    H     H_    0.539847 0.693075 0.617934 0.158950
H9    H     H_    0.162022 0.470995 0.177965 0.145974
H10   H     H_    0.186105 0.483065 0.316270 0.164244
H11   H     H_    0.528825 0.119831 0.125495 0.364563
H12   H     H_    0.797528 0.457904 0.159489 0.188916
H13   H     H_    0.771962 0.166847 0.303804 0.366849
H14   H     H_    0.886895 0.063020 0.132248 0.386194
H15   H     H_    0.193509 0.715306 0.320999 0.347502
H16   H     H_    0.473970 0.874590 0.057339 0.348561
H17   H     H_    0.457836 0.244624 0.951686 0.337935
H18   H     H_    0.494626 0.313666 0.828248 0.336202
H19   H     H_    0.600093 0.707178 0.682010 0.354861
H20   H     H_    0.125002 0.887474 0.599598 0.376721
H21   H     H_    0.077650 0.509344 0.116485 0.361901
H22   H     H_    0.715648 0.597745 0.379500 0.356347
H23   H     H_    0.255858 0.703307 0.385519 0.175450
H24   H     H_    0.466236 0.209230 0.183841 0.168792
H25   H     H_    0.252665 0.528539 0.595210 0.171056
H26   H     H_    0.479810 0.204816 0.583870 0.175172
H27   H     H_    0.122864 0.388462 0.892906 0.169733
H28   H     H_    0.220392 0.506422 0.662236 0.177322
H29   H     H_    0.143074 0.421067 0.826006 0.186108
N1    N     N_R   0.733500 0.396574 0.216723 -0.206842
N2    N     N_R   0.347584 0.895023 0.269376 -0.144521
N3    N     N_R   0.343041 0.904293 0.229796 -0.157568
N4    N     N_R   0.238585 0.416050 0.765414 -0.187073
N5    N     N_R   0.242083 0.413395 0.725569 -0.200805
N6    N     N_R   0.406140 0.267991 0.729246 -0.135132
N7    N     N_R   0.402452 0.270179 0.769069 -0.156894
N8    N     N_R   0.722974 0.404694 0.256238 -0.203279
N9    N     N_R   0.852269 0.232386 0.261632 -0.171569
N10   N     N_R   0.862356 0.224029 0.222011 -0.126837
N11   N     N_R   0.383243 0.729952 0.217584 -0.149288
N12   N     N_R   0.387703 0.720725 0.257120 -0.146676
O1    O     O_R   0.679450 0.499830 0.463150 -0.414604
O2    O     O_R   0.340240 0.172500 0.045430 -0.432779
O3    O     O_R   0.309670 0.000990 0.032050 -0.487116
O4    O     O_R   0.480650 0.664000 0.464630 -0.451646
O5    O     O_R   0.168330 0.982130 0.939200 -0.461592
O6    O     O_R   0.000140 0.178170 0.944610 -0.489542
O7    O     O_R   0.983010 0.336750 0.948660 -0.506444
O8    O     O_R   0.181800 0.312190 0.959860 -0.502580
O9    O     O_R   0.338500 0.175680 0.956950 -0.465933
O10   O     O_R   0.308050 0.003930 0.950020 -0.466728
O11   O     O_3   0.164130 0.163270 0.992500 -0.304376
O12   O     O_R   0.356040 0.477400 0.534170 -0.493835
O13   O     O_R   0.323930 0.675950 0.455370 -0.490189
O14   O     O_R   0.354700 0.475360 0.451930 -0.455303
O15   O     O_R   0.494470 0.320860 0.448390 -0.498070
O16   O     O_R   0.662580 0.357570 0.460050 -0.482098
O17   O     O_R   0.680900 0.502040 0.551870 -0.460983
O18   O     O_R   0.481990 0.666040 0.546870 -0.507592
O19   O     O_R   0.325370 0.678160 0.544080 -0.443830
O20   O     O_3   0.469742 0.153995 0.105297 -0.606154
O21   O     O_3   0.805688 0.159761 0.331479 -0.579326
O22   O     O_3   0.842147 0.129254 0.146916 -0.619638
O23   O     O_R   0.495910 0.323070 0.537100 -0.508103
O24   O     O_3   0.233896 0.741508 0.308395 -0.629652
O25   O     O_3   0.464901 0.906427 0.085311 -0.581674
O26   O     O_3   0.477348 0.228020 0.923293 -0.569663
O27   O     O_3   0.499528 0.267444 0.848934 -0.574894
O28   O     O_3   0.535756 0.743754 0.696804 -0.619314
O29   O     O_3   0.190673 0.840046 0.587038 -0.633812
O30   O     O_3   0.124712 0.451451 0.098446 -0.620963
O31   O     O_3   0.718138 0.553260 0.400493 -0.612909
O32   O     O_R   0.663920 0.359620 0.542290 -0.505813
O33   O     O_3   0.500010 0.500010 0.500010 -0.300407
O34   O     O_R   0.170070 0.978950 0.027680 -0.437415
O35   O     O_R   0.001760 0.175230 0.026640 -0.462223
O36   O     O_R   0.984760 0.333570 0.037150 -0.439449
O37   O     O_R   0.183410 0.309240 0.041890 -0.444716

loop_
_geom_bond_atom_site_label_1
_geom_bond_atom_site_label_2
_ccdc_geom_bond_type
Cr2   O12   S    
C56   O20   S    
C36   C37   A    
C44   C46   A    
C74   C75   A    
C12   C23   A    
Cr4   O5    S    
C45   H24   S    
C91   O36   A    
H19   O28   S    
C28   C73   S    
Cr1   O1    S    
H20   O29   S    
H13   O21   S    
C28   O19   A    
C40   O12   A    
C59   H7    S    
Br17  C32   S    
C94   O6    A    
C1    C22   S    
C24   H23   S    
C58   C59   A    
C25   C26   A    
C65   H2    S    
C7    C8    A    
C43   C44   A    
C4    C64   S    
C43   C48   S    
C26   C31   S    
C30   N3    A    
N6    N7    A    
C18   C19   A    
C78   H9    S    
Cr4   O34   S    
C18   C21   A    
C23   C34   A    
C52   C57   S    
Cr2   O19   S    
Cr5   O7    S    
C13   C20   S    
C38   C93   S    
C31   N12   A    
Br10  C75   S    
C82   C90   A    
C55   C95   S    
C81   C85   A    
Cr5   O37   S    
C19   O22   S    
C48   N5    A    
C32   C37   A    
Br6   C82   S    
C52   O17   A    
C67   C78   A    
C73   C74   A    
C60   C71   S    
C34   H6    S    
H11   O20   S    
Cr1   O33   S    
Cr3   O23   S    
C93   O34   A    
Br19  C44   S    
Br9   C83   S    
C77   C79   A    
C51   C55   A    
Cr5   O36   S    
C65   C72   A    
C46   H26   S    
C30   N11   A    
C51   O26   S    
C53   C54   A    
H15   O24   S    
Cr2   O13   S    
C16   O16   A    
C66   C68   A    
H21   O30   S    
C2    C3    T    
C91   O35   A    
C22   C24   A    
Cr1   O4    S    
C66   H5    S    
C42   C43   A    
C5    C92   S    
C41   H25   S    
H14   O22   S    
C85   C86   S    
C8    H1    S    
C45   C89   A    
C27   C29   A    
C74   O29   S    
C66   C72   A    
C95   O9    A    
Cr6   O11   S    
C51   C53   A    
C3    C12   S    
C80   H8    S    
C15   C20   A    
C49   C54   A    
N1    N8    A    
C17   C21   A    
C57   C58   A    
C88   H10   S    
Br7   C81   S    
Br16  C27   S    
C47   N4    A    
C59   C60   A    
C49   C50   A    
C52   O32   A    
Br14  C29   S    
C4    O14   A    
C15   H12   S    
C6    C7    A    
C26   C27   A    
Cr6   O2    S    
C16   O1    A    
C32   C33   A    
C48   N6    A    
Br5   C68   S    
H17   O26   S    
C24   C25   A    
C10   C11   A    
Cr2   O33   S    
C39   C46   A    
N9    N10   A    
C78   C89   A    
C64   C76   A    
Br3   C63   S    
C50   C55   A    
C45   C56   A    
Br15  C33   S    
C69   C70   S    
C75   C77   A    
Cr3   O33   S    
N4    N5    A    
C76   C88   A    
C79   O28   S    
C6    C16   S    
Br18  C36   S    
Cr2   O14   S    
Cr6   O9    S    
C9    C14   S    
C63   C65   A    
C35   O25   S    
Cr1   O18   S    
Br12  C17   S    
C96   O5    A    
C42   H28   S    
C30   C37   S    
Cr3   O16   S    
C53   O27   S    
C84   C85   A    
Cr6   O3    S    
C14   N8    A    
C61   H3    S    
Br11  C76   S    
C6    C11   A    
C95   O8    A    
C77   C87   S    
C35   C36   A    
C9    C10   A    
C72   C94   S    
C10   O21   S    
C62   H4    S    
Cr4   O35   S    
C12   C88   A    
C92   O2    A    
C61   C62   A    
H18   O27   S    
C57   C62   A    
C94   O7    A    
C5    C56   A    
C28   O18   A    
C1    O4    A    
C86   C87   T    
C67   O30   S    
C34   C64   A    
C39   C40   S    
Br4   C58   S    
N11   N12   A    
Cr4   O11   S    
C47   C54   S    
Cr5   O8    S    
C19   C20   A    
C13   N1    A    
C5    C67   A    
Br13  C18   S    
Br2   C23   S    
C63   C69   A    
C93   O3    A    
C92   O37   A    
Br1   C11   S    
C22   C29   A    
C40   O23   A    
C15   C17   A    
C83   C84   A    
Cr3   O32   S    
Br8   C84   S    
C21   C91   S    
C4    O15   A    
C2    C89   S    
C49   H29   S    
C33   C38   A    
C90   C96   S    
C60   C61   A    
C1    O13   A    
Cr3   O15   S    
C31   N2    A    
Cr5   O11   S    
C96   O10   A    
Cr6   O10   S    
N2    N3    A    
C68   C69   A    
C79   C80   A    
Cr1   O17   S    
C8    C9    A    
C50   H27   S    
C41   C42   A    
C83   C90   A    
C81   C82   A    
C13   N10   A    
C70   C71   T    
C7    O31   S    
C39   C41   A    
Cr4   O6    S    
C47   N7    A    
C14   N9    A    
C73   C80   A    
C25   O24   S    
H16   O25   S    
C35   C38   A    
H22   O31   S    
