data_mof_unit_26462.cif
_audit_creation_date              2012-12-11T15:34:41-0500
_audit_creation_method            fapswitch 2.2
_symmetry_space_group_name_H-M    P1
_symmetry_Int_Tables_number       1
_space_group_crystal_system       triclinic
_cell_length_a                    15.061106
_cell_length_b                    15.073335
_cell_length_c                    34.914164
_cell_angle_alpha                 90.474951
_cell_angle_beta                  90.053479
_cell_angle_gamma                 59.989011
_cell_volume                      6863.29211737

loop_
_atom_site_label
_atom_site_type_symbol
_atom_type_description
_atom_site_fract_x
_atom_site_fract_y
_atom_site_fract_z
_atom_type_partial_charge
C1    C     C_R   0.301638 0.608629 0.555656 0.536482
C2    C     C_R   0.232051 0.714054 0.387146 -0.126170
C3    C     C_R   0.750575 0.149687 0.266055 -0.118272
C4    C     C_R   0.756526 0.142585 0.226246 -0.115082
C5    C     C_R   0.669181 0.202278 0.203858 0.028972
C6    C     C_R   0.722120 0.228809 0.348409 -0.122813
C7    C     C_R   0.706987 0.246648 0.387739 -0.128060
C8    C     C_R   0.550322 0.238869 0.383401 -0.125162
C9    C     C_R   0.736942 0.578844 0.649022 -0.125704
C10   C     C_R   0.565246 0.221610 0.344094 -0.122286
C11   C     C_R   0.649109 0.220374 0.326140 0.031378
C12   C     C_R   0.618611 0.256185 0.405303 0.022134
C13   C     C_R   0.210290 0.718001 0.348284 -0.123094
C14   C     C_R   0.086813 0.706180 0.093367 0.008655
C15   C     C_R   0.110820 0.609711 0.107466 -0.128234
C16   C     C_R   0.151149 0.579551 0.144337 -0.004752
C17   C     C_R   0.166200 0.648571 0.167396 0.018113
C18   C     C_R   0.150146 0.740999 0.151902 -0.135069
C19   C     C_R   0.111009 0.769522 0.115205 -0.132226
C20   C     C_R   0.259720 0.647379 0.226409 -0.129741
C21   C     C_R   0.865661 0.145803 0.651653 0.026311
C22   C     C_R   0.902873 0.213634 0.645572 -0.104973
C23   C     C_R   0.001336 0.188141 0.657583 -0.109327
C24   C     C_R   0.203250 0.637877 0.330693 0.030355
C25   C     C_R   0.063301 0.095255 0.675972 -0.093389
C26   C     C_R   0.027186 0.027384 0.682166 -0.105268
C27   C     C_R   0.929340 0.051791 0.669735 -0.081569
C28   C     C_R   0.193908 0.815816 0.596805 0.057750
C29   C     C_R   0.128905 0.860751 0.565308 -0.062302
C30   C     C_R   0.113498 0.953459 0.550660 -0.105254
C31   C     C_R   0.162542 0.001973 0.567383 -0.098062
C32   C     C_R   0.227205 0.957810 0.598754 -0.111631
C33   C     C_R   0.242629 0.865281 0.613558 -0.093497
C34   C     C_R   0.175138 0.477108 0.158346 0.028187
C35   C     C_R   0.564610 0.725127 0.649984 -0.127459
C36   C     C_R   0.102743 0.444532 0.154893 -0.109006
C37   C     C_R   0.125068 0.348636 0.168555 -0.114192
C38   C     C_R   0.219647 0.284461 0.185695 -0.103696
C39   C     C_R   0.292209 0.315944 0.189137 -0.117850
C40   C     C_R   0.270398 0.411615 0.175410 -0.083342
C41   C     C_R   0.248483 0.629053 0.408811 0.022165
C42   C     C_R   0.735962 0.025322 0.943224 0.542718
C43   C     C_R   0.745670 0.722829 0.945138 0.545601
C44   C     C_R   0.038397 0.733943 0.948385 0.542738
C45   C     C_R   0.722992 0.038801 0.052820 0.543695
C46   C     C_R   0.733488 0.734369 0.054710 0.543395
C47   C     C_R   0.655219 0.658344 0.669464 0.034925
C48   C     C_R   0.027799 0.744533 0.057819 0.545992
C49   C     C_R   0.552863 0.707288 0.611560 -0.135817
C50   C     C_R   0.669253 0.671510 0.788920 0.344588
C51   C     C_R   0.661745 0.665640 0.711364 0.344106
C52   C     C_R   0.758403 0.596604 0.850512 -0.122989
C53   C     C_R   0.776047 0.608300 0.888882 -0.130924
C54   C     C_R   0.626683 0.778561 0.889432 -0.132929
C55   C     C_R   0.608943 0.766781 0.851041 -0.125343
C56   C     C_R   0.677212 0.677381 0.830817 0.033987
C57   C     C_R   0.610740 0.588334 0.555247 0.545406
C58   C     C_R   0.266682 0.647401 0.266148 -0.118790
C59   C     C_R   0.712937 0.701085 0.908205 0.022947
C60   C     C_R   0.723049 0.072176 0.905183 0.021543
C61   C     C_R   0.635407 0.095954 0.883457 -0.124550
C62   C     C_R   0.632698 0.116334 0.844532 -0.120764
C63   C     C_R   0.716873 0.114637 0.826699 0.029713
C64   C     C_R   0.801115 0.099223 0.848821 -0.121142
C65   C     C_R   0.804426 0.077684 0.887827 -0.127181
C66   C     C_R   0.740655 0.192637 0.767504 -0.114065
C67   C     C_R   0.734919 0.203752 0.727767 -0.096924
C68   C     C_R   0.709442 0.142801 0.704746 0.020137
C69   C     C_R   0.197418 0.634021 0.288843 0.026028
C70   C     C_R   0.590644 0.300118 0.553493 0.544675
C71   C     C_R   0.691514 0.069504 0.721988 -0.127136
C72   C     C_R   0.695855 0.059406 0.761665 -0.116128
C73   C     C_R   0.718772 0.122033 0.784723 0.023020
C74   C     C_R   0.595270 0.184022 0.648878 -0.133586
C75   C     C_R   0.565133 0.222204 0.612119 -0.132792
C76   C     C_R   0.728846 0.212306 0.602036 -0.126382
C77   C     C_R   0.760627 0.173318 0.639037 -0.002978
C78   C     C_R   0.690872 0.163104 0.663305 0.018763
C79   C     C_R   0.629986 0.240542 0.588950 0.007827
C80   C     C_R   0.123193 0.617375 0.271404 -0.117265
C81   C     C_R   0.092623 0.696938 0.911464 0.021526
C82   C     C_R   0.300311 0.610290 0.446018 0.540318
C83   C     C_R   0.117944 0.760315 0.890395 -0.124558
C84   C     C_R   0.142327 0.740990 0.851665 -0.121104
C85   C     C_R   0.143405 0.657221 0.833509 0.029898
C86   C     C_R   0.128067 0.588120 0.855180 -0.117660
C87   C     C_R   0.102411 0.608038 0.893964 -0.126045
C88   C     C_R   0.223125 0.557432 0.773529 -0.111497
C89   C     C_R   0.232132 0.552484 0.733668 -0.107621
C90   C     C_R   0.167408 0.638093 0.711300 0.033869
C91   C     C_R   0.115497 0.618496 0.231653 -0.097716
C92   C     C_R   0.091451 0.727450 0.729507 -0.113232
C93   C     C_R   0.083586 0.732778 0.769270 -0.109440
C94   C     C_R   0.607868 0.589810 0.445271 0.542229
C95   C     C_R   0.150422 0.648460 0.791533 0.029760
C96   C     C_R   0.178513 0.723098 0.651909 -0.115632
C97   C     C_R   0.206423 0.720186 0.613466 -0.015850
C98   C     C_R   0.243840 0.543453 0.609600 -0.140968
C99   C     C_R   0.213914 0.548395 0.647627 -0.127571
C100  C     C_R   0.184740 0.636942 0.669547 0.020246
C101  C     C_R   0.245232 0.627025 0.592402 0.006980
C102  C     C_R   0.183259 0.634236 0.208941 0.025194
C103  C     C_R   0.691906 0.717950 0.090464 0.021335
C104  C     C_R   0.604649 0.799084 0.107914 -0.128416
C105  C     C_R   0.577683 0.789647 0.145279 -0.123042
C106  C     C_R   0.587617 0.303328 0.443634 0.542597
C107  C     C_R   0.637375 0.698929 0.165721 0.032101
C108  C     C_R   0.720146 0.615475 0.147236 -0.120884
C109  C     C_R   0.747022 0.624816 0.109966 -0.127640
C110  C     C_R   0.634784 0.603359 0.223523 -0.120684
C111  C     C_R   0.634694 0.593810 0.263170 -0.118896
C112  C     C_R   0.620325 0.675090 0.287220 0.026832
C113  C     C_R   0.209816 0.557851 0.352916 -0.122083
C114  C     C_R   0.601618 0.767661 0.271050 -0.117734
C115  C     C_R   0.602489 0.777012 0.231344 -0.115017
C116  C     C_R   0.621188 0.694164 0.207232 0.028405
C117  C     C_R   0.548907 0.735307 0.352917 -0.122465
C118  C     C_R   0.631548 0.622398 0.592085 0.023380
C119  C     C_R   0.547431 0.715726 0.391844 -0.126990
C120  C     C_R   0.705226 0.553515 0.384069 -0.125631
C121  C     C_R   0.706118 0.572761 0.345168 -0.122186
C122  C     C_R   0.626081 0.662013 0.329079 0.030498
C123  C     C_R   0.623524 0.622789 0.407468 0.022114
C124  C     C_R   0.232569 0.553283 0.391799 -0.127533
C125  C     C_R   0.698970 0.102229 0.087735 0.021141
C126  C     C_R   0.772876 0.122166 0.103790 -0.128391
C127  C     C_R   0.759761 0.162301 0.140778 -0.124474
C128  C     C_R   0.672678 0.182979 0.162259 0.031016
C129  C     C_R   0.594654 0.171745 0.144927 -0.118933
C130  C     C_R   0.725261 0.561100 0.610678 -0.133515
C131  C     C_R   0.607589 0.131873 0.107917 -0.124990
C132  C     C_R   0.576679 0.271807 0.221945 -0.122468
C133  C     C_R   0.570601 0.278472 0.261772 -0.119433
C134  C     C_R   0.657064 0.216012 0.284093 0.027536
Cr1   Cr    Cr6+3 0.421670 0.426920 0.499620 1.006498
Cr2   Cr    Cr6+3 0.427030 0.651190 0.500980 1.019538
Cr3   Cr    Cr6+3 0.651280 0.421870 0.499380 1.006165
Cr4   Cr    Cr6+3 0.910810 0.908010 0.001130 1.009964
Cr5   Cr    Cr6+3 0.682800 0.909890 0.998370 1.011148
Cr6   Cr    Cr6+3 0.908370 0.682300 0.002180 1.010255
H1    H     H_    0.787646 0.495627 0.596316 0.124975
H2    H     H_    0.866662 0.097974 0.835502 0.105249
H3    H     H_    0.479915 0.756195 0.597886 0.132826
H4    H     H_    0.780636 0.223108 0.583701 0.121589
H5    H     H_    0.111821 0.829019 0.903043 0.128202
H6    H     H_    0.083578 0.557670 0.909481 0.124720
H7    H     H_    0.216937 0.481558 0.660252 0.104803
H8    H     H_    0.292304 0.483041 0.720500 0.105758
H9    H     H_    0.275056 0.491630 0.790353 0.107085
H10   H     H_    0.155631 0.794182 0.835398 0.109132
H11   H     H_    0.038996 0.793809 0.713052 0.098530
H12   H     H_    0.873050 0.059589 0.903794 0.123951
H13   H     H_    0.025426 0.803015 0.782743 0.112826
H14   H     H_    0.155001 0.792326 0.668444 0.098231
H15   H     H_    0.842663 0.546882 0.902679 0.128809
H16   H     H_    0.129019 0.522823 0.841556 0.109003
H17   H     H_    0.271272 0.471533 0.594329 0.131074
H18   H     H_    0.560415 0.871696 0.093533 0.125388
H19   H     H_    0.767486 0.516162 0.327326 0.103836
H20   H     H_    0.646778 0.522501 0.275113 0.111422
H21   H     H_    0.647638 0.538972 0.205604 0.105685
H22   H     H_    0.512525 0.854562 0.158702 0.100195
H23   H     H_    0.746885 0.262318 0.715111 0.127093
H24   H     H_    0.590287 0.831247 0.289140 0.104383
H25   H     H_    0.808422 0.527102 0.663057 0.129682
H26   H     H_    0.593271 0.847401 0.219613 0.104792
H27   H     H_    0.486624 0.804840 0.341046 0.100847
H28   H     H_    0.483474 0.770580 0.409157 0.121675
H29   H     H_    0.768262 0.544918 0.162360 0.101251
H30   H     H_    0.765037 0.481283 0.395193 0.125520
H31   H     H_    0.843515 0.101370 0.088684 0.123121
H32   H     H_    0.548979 0.117997 0.096195 0.128793
H33   H     H_    0.498197 0.332004 0.275176 0.111050
H34   H     H_    0.758180 0.241744 0.784876 0.113243
H35   H     H_    0.508767 0.319548 0.205289 0.097132
H36   H     H_    0.500654 0.787785 0.664868 0.125294
H37   H     H_    0.820033 0.172303 0.153307 0.099218
H38   H     H_    0.818042 0.100764 0.282767 0.103502
H39   H     H_    0.828372 0.086951 0.213065 0.104657
H40   H     H_    0.787583 0.227730 0.335093 0.100002
H41   H     H_    0.526978 0.186529 0.160904 0.101829
H42   H     H_    0.481721 0.245328 0.396096 0.126474
H43   H     H_    0.095815 0.558734 0.090109 0.123910
H44   H     H_    0.094034 0.843950 0.104898 0.130659
H45   H     H_    0.566222 0.129904 0.827989 0.107286
H46   H     H_    0.203418 0.781359 0.331562 0.104044
H47   H     H_    0.811343 0.525995 0.835873 0.130804
H48   H     H_    0.325692 0.658534 0.279235 0.113389
H49   H     H_    0.312448 0.659742 0.209285 0.108581
H50   H     H_    0.069170 0.607082 0.288554 0.106068
H51   H     H_    0.054432 0.610630 0.218661 0.118792
H52   H     H_    0.204059 0.495622 0.339728 0.103632
H53   H     H_    0.161231 0.794656 0.169215 0.109535
H54   H     H_    0.576269 0.850769 0.903663 0.126833
H55   H     H_    0.544963 0.829928 0.836763 0.129359
H56   H     H_    0.671899 0.021724 0.704751 0.113390
H57   H     H_    0.571230 0.092837 0.895939 0.127962
H58   H     H_    0.855291 0.286833 0.631977 0.102964
H59   H     H_    0.029335 0.240773 0.652857 0.101722
H60   H     H_    0.139306 0.075870 0.685442 0.103305
H61   H     H_    0.074968 0.956023 0.696757 0.094749
H62   H     H_    0.903251 0.997527 0.674314 0.109140
H63   H     H_    0.089680 0.824388 0.552358 0.097886
H64   H     H_    0.063186 0.987917 0.526441 0.099992
H65   H     H_    0.150278 0.073881 0.556083 0.101838
H66   H     H_    0.264911 0.995582 0.611755 0.098096
H67   H     H_    0.680252 0.003350 0.774460 0.119561
H68   H     H_    0.292449 0.832188 0.638032 0.097289
H69   H     H_    0.814512 0.560799 0.097277 0.124925
H70   H     H_    0.509261 0.212918 0.327464 0.102639
H71   H     H_    0.760995 0.259623 0.403857 0.121905
H72   H     H_    0.028539 0.493856 0.142139 0.102052
H73   H     H_    0.068830 0.324241 0.165984 0.100195
H74   H     H_    0.236684 0.210356 0.196330 0.100788
H75   H     H_    0.365336 0.266198 0.202479 0.095833
H76   H     H_    0.327718 0.434613 0.178039 0.105713
H77   H     H_    0.244383 0.487080 0.407851 0.122251
H78   H     H_    0.540851 0.176901 0.667007 0.110021
H79   H     H_    0.243194 0.773932 0.399476 0.126615
H80   H     H_    0.488587 0.243042 0.602768 0.127411
N1    N     N_R   0.745350 0.593133 0.768724 -0.238152
N2    N     N_R   0.741501 0.590094 0.730745 -0.238477
N3    N     N_R   0.585441 0.744085 0.731531 -0.242074
N4    N     N_R   0.589426 0.747263 0.769567 -0.241353
O1    O     O_R   0.502070 0.323090 0.541280 -0.519822
O2    O     O_R   0.831550 0.656950 0.958960 -0.520463
O3    O     O_R   0.998590 0.685540 0.963930 -0.502148
O4    O     O_R   0.338340 0.520690 0.539540 -0.506310
O5    O     O_R   0.008220 0.831200 0.045060 -0.519135
O6    O     O_R   0.813270 0.997930 0.038810 -0.502416
O7    O     O_R   0.657500 0.016560 0.039940 -0.520605
O8    O     O_R   0.685680 0.820940 0.038120 -0.502162
O9    O     O_R   0.822130 0.666070 0.043610 -0.520419
O10   O     O_R   0.989860 0.694000 0.042400 -0.503080
O11   O     O_3   0.833990 0.833400 0.000560 -0.234456
O12   O     O_R   0.520720 0.641670 0.461580 -0.501930
O13   O     O_R   0.324760 0.674070 0.543580 -0.501997
O14   O     O_R   0.522400 0.640310 0.540110 -0.499922
O15   O     O_R   0.675940 0.500630 0.542210 -0.521195
O16   O     O_R   0.641790 0.337020 0.538150 -0.502842
O17   O     O_R   0.500260 0.324550 0.456580 -0.520197
O18   O     O_R   0.336660 0.522040 0.461020 -0.503001
O19   O     O_R   0.322940 0.675540 0.458880 -0.521979
O20   O     O_R   0.674120 0.502090 0.457500 -0.521866
O21   O     O_R   0.640110 0.338380 0.459630 -0.504119
O22   O     O_3   0.499990 0.499990 0.499990 -0.234399
O23   O     O_R   0.017640 0.822070 0.960410 -0.521055
O24   O     O_R   0.822000 0.989470 0.960340 -0.502406
O25   O     O_R   0.666920 0.007430 0.955290 -0.520566
O26   O     O_R   0.694410 0.812480 0.959650 -0.502811

loop_
_geom_bond_atom_site_label_1
_geom_bond_atom_site_label_2
_ccdc_geom_bond_type
C28   C97   S    
C89   H8    S    
C55   H55   S    
C55   C56   A    
C33   H68   S    
C126  C127  A    
C29   H63   S    
C87   H6    S    
Cr2   O14   S    
C27   H62   S    
C88   H9    S    
N3    N4    A    
C76   C79   A    
C117  C122  A    
C35   C47   A    
C128  C129  A    
C112  C114  A    
C114  C115  A    
C53   C59   A    
C50   N1    A    
C31   C32   A    
C77   C78   A    
C52   C53   A    
C4    H39   S    
C105  C107  A    
C50   N4    A    
C26   C27   A    
C29   C30   A    
C125  C126  A    
C64   H2    S    
C34   C40   A    
C35   H36   S    
C41   C124  A    
C36   C37   A    
C3    H38   S    
C111  C112  A    
C31   H65   S    
C110  C116  A    
C117  C119  A    
C30   C31   A    
C20   C102  A    
C2    C41   A    
C15   C16   A    
C98   C99   A    
C23   H59   S    
C46   O8    A    
C108  C109  A    
C82   O18   A    
C18   C19   A    
C90   C100  S    
C2    C13   A    
C130  H1    S    
C86   H16   S    
C110  C111  A    
C94   O20   A    
C126  H31   S    
C44   O23   A    
C16   C34   S    
C83   H5    S    
Cr3   O20   S    
C114  H24   S    
C10   H70   S    
C5    C132  A    
C96   H14   S    
C83   C84   A    
C42   O25   A    
C45   C125  S    
C132  C133  A    
C15   H43   S    
C35   C49   A    
Cr6   O11   S    
C107  C108  A    
C70   O1    A    
C127  C128  A    
Cr5   O8    S    
Cr4   O23   S    
C52   H47   S    
C45   O7    A    
C133  H33   S    
C74   C78   A    
C57   O14   A    
C120  C123  A    
C43   C59   S    
C20   C58   A    
C94   C123  S    
C66   C67   A    
C21   C27   A    
C88   C95   A    
C24   C113  A    
C93   C95   A    
C21   C22   A    
C18   H53   S    
Cr6   O10   S    
Cr1   O22   S    
C40   H76   S    
Cr4   O11   S    
Cr5   O25   S    
C70   O16   A    
C37   C38   A    
C38   H74   S    
C109  H69   S    
C37   H73   S    
C104  C105  A    
C81   C83   A    
C110  H21   S    
C24   C69   S    
C72   H67   S    
C54   C59   A    
C22   C23   A    
C68   C78   S    
C7    C12   A    
C131  H32   S    
C74   C75   A    
C58   H48   S    
C67   C68   A    
C127  H37   S    
C46   O9    A    
Cr4   O6    S    
C26   H61   S    
C38   C39   A    
C84   C85   A    
C44   C81   S    
Cr1   O4    S    
C11   C134  S    
C61   H57   S    
C20   H49   S    
C86   C87   A    
C16   C17   A    
C47   C51   S    
C63   C73   S    
C1    O13   A    
C25   C26   A    
C85   C86   A    
C66   C73   A    
C91   H51   S    
C50   C56   S    
C13   C24   A    
C60   C61   A    
C132  H35   S    
Cr3   O15   S    
C17   C102  S    
C112  C122  S    
C62   C63   A    
C118  C130  A    
C67   H23   S    
N1    N2    A    
Cr3   O21   S    
C125  C131  A    
C90   C92   A    
C49   C118  A    
C98   H17   S    
C8    C12   A    
C42   O24   A    
C96   C97   A    
C74   H78   S    
C92   H11   S    
C17   C18   A    
Cr2   O22   S    
C65   H12   S    
C57   O15   A    
C76   C77   A    
C115  H26   S    
C108  H29   S    
C121  C122  A    
C81   C87   A    
C36   H72   S    
C62   H45   S    
C48   O5    A    
C76   H4    S    
C1    O4    A    
C60   C65   A    
C9    C47   A    
Cr5   O11   S    
C133  C134  A    
C68   C71   A    
Cr5   O26   S    
C45   O6    A    
C106  O17   A    
C42   C60   S    
C3    C4    A    
C1    C101  S    
C6    C11   A    
C120  C121  A    
Cr1   O18   S    
C8    H42   S    
C113  H52   S    
C129  H41   S    
C54   C55   A    
C28   C29   A    
Cr6   O3    S    
C13   H46   S    
Cr1   O1    S    
Cr2   O19   S    
C6    H40   S    
C70   C79   S    
C105  H22   S    
C80   H50   S    
C14   C19   A    
C22   H58   S    
Cr4   O5    S    
C104  H18   S    
C72   C73   A    
C19   H44   S    
C28   C33   A    
C7    H71   S    
C43   O2    A    
C58   C69   A    
C53   H15   S    
C6    C7    A    
C119  C123  A    
C32   H66   S    
C111  H20   S    
C98   C101  A    
C30   H64   S    
C46   C103  S    
C96   C100  A    
Cr6   O2    S    
C51   N2    A    
C99   C100  A    
C39   H75   S    
C103  C109  A    
C3    C134  A    
C64   C65   A    
Cr1   O17   S    
Cr3   O16   S    
C93   H13   S    
C99   H7    S    
C71   C72   A    
C25   H60   S    
C32   C33   A    
C12   C106  S    
Cr3   O22   S    
C85   C95   S    
C43   O26   A    
C94   O12   A    
C71   H56   S    
Cr6   O9    S    
C113  C124  A    
C75   C79   A    
C75   H80   S    
C117  H27   S    
C80   C91   A    
C41   C82   S    
C49   H3    S    
C5    C128  S    
C9    H25   S    
C92   C93   A    
C82   O19   A    
C34   C36   A    
C23   C25   A    
C106  O21   A    
C61   C62   A    
C54   H54   S    
C44   O3    A    
C97   C101  A    
C107  C116  S    
Cr4   O24   S    
C10   C11   A    
Cr2   O12   S    
C63   C64   A    
C39   C40   A    
C9    C130  A    
C4    C5    A    
C88   C89   A    
C8    C10   A    
C2    H79   S    
C121  H19   S    
C21   C77   S    
C103  C104  A    
C14   C48   S    
C14   C15   A    
C66   H34   S    
C69   C80   A    
Cr5   O7    S    
C91   C102  A    
C115  C116  A    
C89   C90   A    
Cr2   O13   S    
C51   N3    A    
C119  H28   S    
C120  H30   S    
C48   O10   A    
C52   C56   A    
C84   H10   S    
C57   C118  S    
C129  C131  A    
C124  H77   S    
