data_mof_unit_40193.cif
_audit_creation_date              2012-12-11T15:47:10-0500
_audit_creation_method            fapswitch 2.2
_symmetry_space_group_name_H-M    P1
_symmetry_Int_Tables_number       1
_space_group_crystal_system       triclinic
_cell_length_a                    20.135423
_cell_length_b                    7.261967
_cell_length_c                    13.595172
_cell_angle_alpha                 89.942768
_cell_angle_beta                  102.664325
_cell_angle_gamma                 89.999802
_cell_volume                      1939.55907169

loop_
_atom_site_label
_atom_site_type_symbol
_atom_type_description
_atom_site_fract_x
_atom_site_fract_y
_atom_site_fract_z
_atom_type_partial_charge
O1    O     O_R   0.449560 0.506810 0.599700 -0.544166
O2    O     O_R   0.550440 0.006810 0.400300 -0.542677
O3    O     O_R   0.587960 0.180060 0.595760 -0.515318
O4    O     O_R   0.412040 0.680060 0.404240 -0.517307
C1    C     C_R   0.615210 0.344122 0.617264 0.810969
C2    C     C_R   0.384831 0.844183 0.382626 0.810148
O5    O     O_R   0.452380 0.177430 0.611700 -0.527717
O6    O     O_R   0.547620 0.677430 0.388300 -0.532542
O7    O     O_R   0.413900 0.001890 0.416350 -0.518011
O8    O     O_R   0.586100 0.501890 0.583650 -0.519071
C3    C     C_R   0.438341 0.345068 0.640103 0.802585
C4    C     C_R   0.561894 0.845320 0.360195 0.801479
O9    O     O_3   0.487530 0.337490 0.435890 -0.375537
O10   O     O_3   0.512470 0.837490 0.564110 -0.371779
V1    V     V_3+5 0.502310 0.064660 0.511890 1.680977
V2    V     V_3+5 0.497690 0.564660 0.488110 1.668834
C5    C     C_R   0.606079 0.761873 0.107856 0.336018
C6    C     C_R   0.394714 0.270086 0.894571 0.338163
H1    H     H_    0.692706 0.744482 0.984131 0.147696
H2    H     H_    0.305967 0.206535 0.011775 0.146949
C7    C     C_R   0.598704 0.846720 0.278040 -0.246974
C8    C     C_R   0.402148 0.345810 0.723041 -0.243898
C9    C     C_R   0.923329 0.946476 0.311860 0.304104
C10   C     C_R   0.077120 0.448097 0.688752 0.305059
C11   C     C_R   0.883008 0.952001 0.385000 0.409373
C12   C     C_R   0.117699 0.457103 0.615984 0.407677
C13   C     C_R   0.817366 0.881163 0.361821 -0.294525
C14   C     C_R   0.184023 0.391093 0.639774 -0.294506
C15   C     C_R   0.783391 0.842862 0.262184 0.016994
C16   C     C_R   0.217654 0.350559 0.739272 0.015948
C17   C     C_R   0.822569 0.831465 0.186935 -0.006652
C18   C     C_R   0.177967 0.331751 0.813515 -0.007143
C19   C     C_R   0.710797 0.826206 0.235490 0.092324
C20   C     C_R   0.290300 0.335995 0.766634 0.090873
C21   C     C_R   0.678142 0.781711 0.135155 -0.095002
C22   C     C_R   0.322601 0.286984 0.866472 -0.088196
C23   C     C_R   0.717284 0.766853 0.062272 -0.237735
C24   C     C_R   0.282565 0.253300 0.936620 -0.234907
C25   C     C_R   0.788014 0.792577 0.085662 0.337195
C26   C     C_R   0.211980 0.281807 0.913547 0.335913
C27   C     C_R   0.669301 0.861130 0.305008 -0.265651
C28   C     C_R   0.332074 0.373833 0.697857 -0.265343
C29   C     C_R   0.566297 0.800786 0.178457 0.451235
C30   C     C_R   0.434149 0.291137 0.821623 0.445725
C31   C     C_R   0.894204 0.870956 0.214716 -0.294937
C32   C     C_R   0.106300 0.371502 0.785764 -0.293847
H3    H     H_    0.689778 0.899994 0.382056 0.150927
H4    H     H_    0.311951 0.421358 0.622159 0.150565
H5    H     H_    0.792112 0.869435 0.423328 0.180210
H6    H     H_    0.209900 0.383258 0.578793 0.181279
C33   C     C_R   0.208147 0.010487 0.245793 -0.197056
C34   C     C_R   0.791812 0.510738 0.754076 -0.196340
H7    H     H_    0.176510 0.131635 0.244061 0.161623
H8    H     H_    0.823400 0.631969 0.755767 0.161676
C35   C     C_R   0.273388 0.007914 0.310244 0.299481
C36   C     C_R   0.726609 0.508000 0.689499 0.298596
C37   C     C_R   0.315424 0.850229 0.313669 -0.074678
C38   C     C_R   0.684629 0.350198 0.686177 -0.074500
C39   C     C_R   0.290001 0.696334 0.252128 0.363019
C40   C     C_R   0.710069 0.196380 0.747910 0.363150
C41   C     C_R   0.224201 0.702264 0.189490 -0.250717
C42   C     C_R   0.775856 0.202386 0.810551 -0.252435
H9    H     H_    0.205603 0.584705 0.142478 0.135910
H10   H     H_    0.794488 0.084848 0.857648 0.139439
C43   C     C_R   0.183031 0.858544 0.185300 -0.066456
C44   C     C_R   0.816969 0.358752 0.814682 -0.066381
O11   O     O_R   0.913920 0.203370 0.916260 -0.546597
O12   O     O_R   0.086080 0.703370 0.083740 -0.548942
O13   O     O_R   0.047620 0.535540 0.888290 -0.520714
O14   O     O_R   0.952380 0.035540 0.111710 -0.518601
C45   C     C_R   0.064545 0.369701 0.862695 0.894974
C46   C     C_R   0.935925 0.869536 0.137821 0.898375
O15   O     O_R   0.912040 0.532780 0.904220 -0.529462
O16   O     O_R   0.087960 0.032780 0.095780 -0.528173
O17   O     O_R   0.949550 0.708160 0.099720 -0.528792
O18   O     O_R   0.050450 0.208160 0.900280 -0.524833
C47   C     C_R   0.885564 0.364934 0.883306 0.769808
C48   C     C_R   0.114429 0.864846 0.116692 0.770443
O19   O     O_3   0.012480 0.375300 0.064060 -0.372503
O20   O     O_3   0.987520 0.875300 0.935940 -0.370854
V3    V     V_3+5 0.997690 0.648180 0.988110 1.634498
V4    V     V_3+5 0.002310 0.148180 0.011890 1.639267
S1    S     S_3+6 0.476077 0.783309 0.143198 0.061018
O21   O     O_2   0.455265 0.600823 0.178997 -0.329324
O22   O     O_2   0.444379 0.935559 0.192065 -0.358684
O23   O     O_3   0.447556 0.798031 0.017486 -0.421906
H11   H     H_    0.397656 0.780547 0.006106 0.359125
S2    S     S_3+6 0.523540 0.250680 0.853616 0.061147
O24   O     O_2   0.537722 0.071228 0.807238 -0.297492
O25   O     O_2   0.559411 0.403323 0.811535 -0.375418
O26   O     O_3   0.554290 0.239242 0.978970 -0.443217
H12   H     H_    0.602418 0.200980 0.987067 0.357194
O27   O     O_3   0.296069 0.156746 0.371810 -0.629077
H13   H     H_    0.260617 0.254009 0.360754 0.305637
O28   O     O_3   0.703903 0.656799 0.627737 -0.629491
H14   H     H_    0.739311 0.754136 0.638742 0.305621
O29   O     O_3   0.330264 0.541934 0.252835 -0.592079
H15   H     H_    0.305257 0.448652 0.205595 0.294650
O30   O     O_3   0.669806 0.042069 0.747458 -0.587998
H16   H     H_    0.694872 0.948680 0.794679 0.297400
O31   O     O_3   0.573376 0.702753 0.013227 -0.549338
H17   H     H_    0.600746 0.602401 0.992771 0.336678
O32   O     O_3   0.427443 0.228632 0.992105 -0.546431
H18   H     H_    0.408460 0.309484 0.037769 0.339810
S3    S     S_3+6 0.008146 0.041163 0.335657 0.101244
O33   O     O_2   0.054684 0.902860 0.303621 -0.364957
O34   O     O_2   0.007193 0.212370 0.273298 -0.313592
O35   O     O_3   0.041865 0.099646 0.455467 -0.389001
H19   H     H_    0.089815 0.132190 0.456575 0.385882
S4    S     S_3+6 0.991763 0.539505 0.664613 0.101111
O36   O     O_2   0.945908 0.399456 0.696896 -0.365151
O37   O     O_2   0.991756 0.710627 0.726560 -0.312756
O38   O     O_3   0.957764 0.596900 0.544675 -0.389747
H20   H     H_    0.909849 0.629578 0.543724 0.385150
S5    S     S_3+6 0.904573 0.079757 0.498515 0.117008
O39   O     O_2   0.923637 0.269479 0.471556 -0.246629
O40   O     O_2   0.845087 0.094277 0.548428 -0.344091
O41   O     O_3   0.969804 0.983046 0.580341 -0.400608
H21   H     H_    0.984861 0.077027 0.633227 0.395593
S6    S     S_3+6 0.095192 0.583444 0.501945 0.115875
O42   O     O_2   0.074937 0.772190 0.528340 -0.245931
O43   O     O_2   0.154469 0.600748 0.451760 -0.343456
O44   O     O_3   0.030516 0.483753 0.420562 -0.401584
H22   H     H_    0.015018 0.576803 0.367183 0.394489
O45   O     O_3   0.822812 0.787249 0.008599 -0.659858
H23   H     H_    0.791416 0.756309 0.943752 0.266249
O46   O     O_3   0.176671 0.264462 0.989519 -0.658321
H24   H     H_    0.208251 0.234562 0.054408 0.267247

loop_
_geom_bond_atom_site_label_1
_geom_bond_atom_site_label_2
_ccdc_geom_bond_type
C36   O28   S    
C24   C26   A    
O27   H13   S    
C9    C31   A    
C13   C15   A    
C29   S1    S    
O28   H14   S    
O11   C47   A    
C35   O27   S    
C40   O30   S    
O2    C4    A    
C2    O7    A    
O29   H15   S    
O3    V1    S    
O44   H22   S    
O5    C3    A    
S3    O34   D    
O31   H17   S    
C1    C38   S    
C25   O45   S    
O12   V3    S    
C21   C23   A    
C10   C12   A    
C11   S5    S    
C45   O18   A    
C37   C39   A    
C38   C40   A    
S5    O39   D    
C9    S3    S    
C15   C19   A    
O35   H19   S    
C40   C42   A    
C33   C43   A    
O13   C45   A    
C5    O31   S    
O41   H21   S    
C42   H10   S    
H1    C23   S    
S4    O36   D    
C14   H6    S    
C8    C30   A    
O30   H16   S    
S6    O43   D    
C20   C28   A    
S5    O40   D    
O1    C3    A    
C33   C35   A    
S6    O44   S    
O5    V1    S    
O6    V2    S    
C7    C29   A    
C31   C46   S    
C2    C37   S    
O16   V4    S    
C46   O17   A    
O15   V3    S    
C34   H8    S    
O12   C48   A    
S3    O35   S    
C39   C41   A    
C16   C20   A    
C13   H5    S    
C10   S4    S    
O4    C2    A    
O18   V4    S    
O26   H12   S    
C42   C44   A    
O23   H11   S    
O17   V3    S    
C26   O46   S    
C4    C7    S    
C33   H7    S    
O4    V2    S    
C5    C29   A    
C6    C30   A    
H2    C24   S    
S1    O21   D    
S2    O26   S    
O6    C4    A    
S5    O41   S    
S1    O23   S    
C41   H9    S    
C27   H3    S    
O1    V2    S    
C28   H4    S    
O2    V1    S    
S4    O38   S    
C32   C45   S    
C7    C27   A    
S1    O22   D    
S2    O25   D    
C35   C37   A    
O16   C48   A    
O45   H23   S    
C39   O29   S    
O46   H24   S    
C34   C44   A    
S6    O42   D    
O38   H20   S    
C44   C47   S    
C43   C48   S    
C18   C32   A    
C12   S6    S    
O20   V3    S    
O3    C1    A    
O19   V4    S    
C11   C13   A    
S3    O33   D    
C3    C8    S    
C12   C14   A    
C19   C27   A    
C22   C24   A    
O7    V1    S    
C10   C32   A    
C1    O8    A    
C23   C25   A    
O8    V2    S    
C16   C18   A    
C8    C28   A    
C14   C16   A    
C19   C21   A    
C36   C38   A    
C20   C22   A    
C6    O32   S    
C18   C26   A    
O14   V4    S    
S4    O37   D    
O13   V3    S    
C41   C43   A    
C9    C11   A    
S2    O24   D    
O11   V4    S    
C15   C17   A    
C17   C31   A    
O9    V2    S    
O32   H18   S    
C17   C25   A    
O15   C47   A    
O10   V1    S    
O14   C46   A    
C5    C21   A    
C30   S2    S    
C6    C22   A    
C34   C36   A    
