data_mof_unit_37608.cif
_audit_creation_date              2012-12-10T18:11:43-0500
_audit_creation_method            fapswitch 2.2
_symmetry_space_group_name_H-M    P1
_symmetry_Int_Tables_number       1
_space_group_crystal_system       triclinic
_cell_length_a                    10.498141
_cell_length_b                    12.661284
_cell_length_c                    13.024208
_cell_angle_alpha                 81.644408
_cell_angle_beta                  91.590191
_cell_angle_gamma                 101.617207
_cell_volume                      1677.71192972

loop_
_atom_site_label
_atom_site_type_symbol
_atom_type_description
_atom_site_fract_x
_atom_site_fract_y
_atom_site_fract_z
_atom_type_partial_charge
C1    C     C_R   0.469999 0.439127 0.690577 0.890371
C2    C     C_3   0.062700 0.597331 0.524679 -0.092676
C3    C     C_3   0.963305 0.514394 0.595308 -0.296867
C4    C     C_3   0.876586 0.500323 0.500005 -0.088567
C5    C     C_R   0.434097 0.718123 0.060744 -0.175380
C6    C     C_R   0.518693 0.602207 0.198649 -0.081048
C7    C     C_R   0.408089 0.291371 0.846251 -0.045770
C8    C     C_R   0.431760 0.267812 0.952893 -0.199046
C9    C     C_R   0.467734 0.351582 0.012829 -0.093157
C10   C     C_R   0.467431 0.460472 0.969756 0.121582
C11   C     C_R   0.430873 0.481758 0.865460 0.053170
C12   C     C_R   0.741627 0.500168 0.500092 0.984999
C13   C     C_R   0.488989 0.546805 0.029845 0.035512
C14   C     C_R   0.439524 0.642217 0.993959 0.143117
C15   C     C_R   0.390271 0.657790 0.893771 -0.205546
C16   C     C_R   0.388163 0.579318 0.829603 -0.147852
C17   C     C_R   0.551346 0.539446 0.127040 -0.087329
C18   C     C_R   0.466230 0.694744 0.164437 -0.232986
C19   C     C_R   0.430853 0.402120 0.800466 -0.185485
C20   C     C_R   0.328015 0.092986 0.336931 -0.324371
C21   C     C_R   0.667289 0.800188 0.620509 -0.100220
C22   C     C_R   0.731219 0.907950 0.622379 -0.184474
C23   C     C_R   0.516714 0.561462 0.308719 0.936283
C24   C     C_R   0.682658 0.990804 0.558817 0.481926
C25   C     C_R   0.560342 0.965469 0.509145 -0.102777
C26   C     C_R   0.513640 0.855803 0.497415 0.179608
C27   C     C_R   0.488653 0.044716 0.463740 -0.037293
C28   C     C_R   0.395423 0.016510 0.386708 0.169165
C29   C     C_R   0.365255 0.910213 0.363898 -0.210931
C30   C     C_R   0.419419 0.829838 0.422058 -0.158169
C31   C     C_R   0.497527 0.147253 0.497905 0.037355
C32   C     C_R   0.349327 0.196481 0.365539 0.097640
C33   C     C_R   0.258146 0.500439 0.499590 0.870651
C34   C     C_3   0.935385 0.405532 0.475006 -0.106727
C35   C     C_3   0.025100 0.419631 0.570330 -0.054766
C36   C     C_3   0.123165 0.502851 0.499708 -0.111200
C37   C     C_3   0.035644 0.488494 0.404003 -0.337607
C38   C     C_3   0.974682 0.582046 0.430472 0.533476
H1    H     H_    0.050090 0.352766 0.627350 0.196866
H2    H     H_    0.483276 0.329060 0.094815 0.170000
H3    H     H_    0.418479 0.184387 0.990985 0.180001
H4    H     H_    0.344790 0.592170 0.753805 0.220794
H5    H     H_    0.294045 0.887939 0.304931 0.143267
H6    H     H_    0.256529 0.071483 0.277719 0.153963
H7    H     H_    0.705569 0.733595 0.663354 0.200683
H8    H     H_    0.876210 0.328572 0.455115 0.197274
H9    H     H_    0.387898 0.748641 0.405032 0.187816
H10   H     H_    0.069765 0.480575 0.326219 0.152849
H11   H     H_    0.929252 0.524530 0.672582 0.190233
H12   H     H_    0.445141 0.746460 0.218356 0.154399
H13   H     H_    0.351861 0.729935 0.865426 0.179430
H14   H     H_    0.394199 0.790116 0.035180 0.156469
N1    N     N_R   0.432930 0.222190 0.444670 -0.186802
N2    N     N_R   0.566370 0.776980 0.554790 -0.131847
O1    O     O_R   0.467970 0.366730 0.627150 -0.570184
O2    O     O_R   0.510820 0.544830 0.662520 -0.625805
O3    O     O_R   0.664630 0.410960 0.482340 -0.571910
O4    O     O_R   0.707470 0.589060 0.517710 -0.602109
O5    O     O_R   0.489180 0.455170 0.337480 -0.576573
O6    O     O_R   0.532030 0.633270 0.372850 -0.642417
O7    O     O_R   0.292530 0.410940 0.482290 -0.576587
O8    O     O_R   0.335370 0.589040 0.517660 -0.650635
Zn1   Zn    Zn3+2 0.471390 0.381080 0.476380 1.033257
Zn2   Zn    Zn3+2 0.528610 0.618920 0.523620 0.959574
C39   C     C_2   0.666277 0.485193 0.146372 0.886660
O9    O     O_2   0.718487 0.458876 0.073847 -0.622178
O10   O     O_R   0.721547 0.471812 0.245199 -0.796096
H15   H     H_    0.800393 0.436662 0.246904 0.335576
C40   C     C_2   0.339387 0.201570 0.790810 0.944047
O11   O     O_2   0.337453 0.106734 0.827789 -0.616233
O12   O     O_R   0.266930 0.224232 0.701457 -0.793592
H16   H     H_    0.223580 0.156104 0.671898 0.353886
C41   C     C_2   0.267804 0.270877 0.316504 0.965722
O13   O     O_2   0.303161 0.331390 0.236266 -0.667537
O14   O     O_R   0.143430 0.262589 0.355951 -0.814967
H17   H     H_    0.089423 0.306883 0.308583 0.322774
C42   C     C_2   0.552879 0.163398 0.601815 1.004883
O15   O     O_2   0.638254 0.241626 0.613177 -0.572610
O16   O     O_R   0.515657 0.081715 0.685867 -0.803318
H18   H     H_    0.567440 0.096722 0.750892 0.357085
O17   O     O_3   0.762860 0.091810 0.533552 -0.577476
C43   C     C_3   0.827458 0.091635 0.439871 -0.249329
H19   H     H_    0.759887 0.097113 0.372896 0.150842
H20   H     H_    0.872676 0.018895 0.441628 0.175119
H21   H     H_    0.907784 0.163536 0.427902 0.221786
C44   C     C_2   0.852068 0.932266 0.684352 0.978305
O18   O     O_2   0.903501 0.858171 0.725127 -0.625574
O19   O     O_R   0.906842 0.039675 0.697496 -0.733227
H22   H     H_    0.988567 0.045291 0.741394 0.347074
O20   O     O_3   0.936453 0.666837 0.361468 -0.571353
C45   C     C_3   0.028700 0.703441 0.281063 -0.223486
H23   H     H_    0.016383 0.644664 0.224211 0.164603
H24   H     H_    0.130323 0.717317 0.310764 0.131175
H25   H     H_    0.011642 0.782270 0.239565 0.196091
C46   C     C_2   0.128771 0.705286 0.554316 0.975197
O21   O     O_2   0.113399 0.789809 0.501566 -0.605339
O22   O     O_R   0.204950 0.708623 0.643747 -0.808220
H26   H     H_    0.244886 0.785779 0.655451 0.353092

loop_
_geom_bond_atom_site_label_1
_geom_bond_atom_site_label_2
_ccdc_geom_bond_type
C34   C37   S    
C41   O13   D    
C46   O21   D    
O14   H17   S    
O22   H26   S    
C3    H11   S    
C7    C8    A    
C42   O15   D    
C23   O5    A    
C11   C19   A    
C29   C30   A    
C36   C37   S    
C1    O2    A    
C21   N2    A    
C44   O19   S    
C15   C16   A    
C33   C36   S    
C40   O12   S    
C34   C35   S    
O7    Zn1   S    
C43   H20   S    
O8    Zn2   S    
C35   C36   S    
C33   O8    A    
C39   O10   S    
O1    Zn1   S    
O2    Zn2   S    
C5    H14   S    
O3    Zn1   S    
C34   H8    S    
C15   H13   S    
C4    C12   S    
C9    C10   A    
C12   O4    A    
C8    H3    S    
C21   C22   A    
C29   H5    S    
C41   O14   S    
C26   N2    A    
C20   H6    S    
C31   C42   S    
C21   H7    S    
C42   O16   S    
O4    Zn2   S    
C23   O6    A    
C6    C18   A    
C4    C34   S    
C1    C19   S    
C27   C31   A    
O10   H15   S    
C30   H9    S    
C24   C25   A    
C45   H23   S    
C44   O18   D    
C8    C9    A    
C5    C18   A    
C20   C28   A    
C25   C26   A    
C43   H19   S    
C9    H2    S    
O17   C43   S    
C35   H1    S    
C24   O17   S    
C37   C38   S    
C45   H24   S    
C11   C16   A    
C2    C38   S    
C3    C35   S    
C31   N1    A    
C37   H10   S    
C5    C14   A    
C12   O3    A    
C4    C38   S    
C26   C30   A    
C7    C19   A    
C22   C24   A    
C3    C4    S    
C16   H4    S    
C32   N1    A    
C32   C41   S    
C18   H12   S    
C20   C32   A    
C2    C36   S    
C6    C17   A    
C28   C29   A    
O5    Zn1   S    
C10   C13   A    
C2    C46   S    
C7    C40   S    
C46   O22   S    
C25   C27   A    
C43   H21   S    
C38   O20   S    
C17   C39   S    
C13   C17   A    
O6    Zn2   S    
C2    C3    S    
C1    O1    A    
O12   H16   S    
C45   H25   S    
N1    Zn1   S    
O20   C45   S    
N2    Zn2   S    
C6    C23   S    
C22   C44   S    
C40   O11   D    
C10   C11   A    
O16   H18   S    
O19   H22   S    
C33   O7    A    
C39   O9    D    
C27   C28   A    
C14   C15   A    
C13   C14   A    
