data_mof_unit_68195.cif
_audit_creation_date              2013-03-05T16:03:14-0500
_audit_creation_method            fapswitch 2.2
_symmetry_space_group_name_H-M    P1
_symmetry_Int_Tables_number       1
_space_group_crystal_system       triclinic
_cell_length_a                    7.018392
_cell_length_b                    13.904547
_cell_length_c                    16.72831
_cell_angle_alpha                 90.186846
_cell_angle_beta                  90.881381
_cell_angle_gamma                 88.83939
_cell_volume                      1631.93985748

loop_
_atom_site_label
_atom_site_type_symbol
_atom_site_description
_atom_site_fract_x
_atom_site_fract_y
_atom_site_fract_z
_atom_type_partial_charge
O1    O     O_R   0.361630 0.167340 0.164570 -0.595225
O2    O     O_R   0.638370 0.832660 0.835430 -0.595213
O3    O     O_R   0.690860 0.157560 0.338690 -0.549976
O4    O     O_R   0.309140 0.842440 0.661310 -0.550008
O5    O     O_R   0.861260 0.336420 0.339380 -0.621811
O6    O     O_R   0.138740 0.663580 0.660620 -0.621801
C1    C     C_R   0.524047 0.132791 0.366642 1.052654
C2    C     C_R   0.475950 0.867205 0.633356 1.052632
O7    O     O_R   0.691330 0.156310 0.165190 -0.560392
O8    O     O_R   0.308670 0.843690 0.834810 -0.560403
O9    O     O_R   0.861730 0.335160 0.164640 -0.609259
O10   O     O_R   0.138270 0.664840 0.835360 -0.609213
C3    C     C_R   0.523246 0.130755 0.138614 0.985895
C4    C     C_R   0.476753 0.869260 0.861374 0.985876
O11   O     O_R   0.361150 0.168600 0.339320 -0.557361
O12   O     O_R   0.638850 0.831400 0.660680 -0.557378
O13   O     O_3   0.527950 0.310560 0.252000 -0.290010
O14   O     O_3   0.472050 0.689440 0.748000 -0.289978
V1    V     V_3+5 0.802770 0.240990 0.251980 1.258825
V2    V     V_3+5 0.197230 0.759010 0.748020 1.258834
O15   O     O_R   0.191450 0.346190 0.165260 -0.589529
O16   O     O_R   0.808550 0.653810 0.834740 -0.589516
C5    C     C_R   0.019336 0.374164 0.141020 0.906523
C6    C     C_R   0.980662 0.625834 0.858982 0.906493
O17   O     O_R   0.190980 0.347440 0.338770 -0.566196
O18   O     O_R   0.809020 0.652560 0.661230 -0.566200
C7    C     C_R   0.022991 0.367344 0.368868 1.063691
C8    C     C_R   0.976999 0.632684 0.631113 1.063714
V3    V     V_3+5 0.302780 0.262760 0.251980 1.250562
V4    V     V_3+5 0.697220 0.737240 0.748020 1.250574
O19   O     O_3   0.027730 0.193200 0.251960 -0.226461
O20   O     O_3   0.972270 0.806800 0.748040 -0.226461
C9    C     C_3   0.826495 0.475233 0.476712 -0.161079
C10   C     C_3   0.173478 0.524806 0.523262 -0.161139
C11   C     C_3   0.910512 0.459750 0.561567 0.268348
C12   C     C_3   0.089461 0.540292 0.438408 0.268299
C13   C     C_3   0.986582 0.563201 0.560316 -0.390672
C14   C     C_3   0.013391 0.436838 0.439659 -0.390704
C15   C     C_3   0.901022 0.578739 0.475291 0.300128
C16   C     C_3   0.098943 0.421302 0.524685 0.300224
C17   C     C_R   0.993398 0.706145 0.022560 -0.168996
C18   C     C_R   0.006562 0.293825 0.977459 -0.168961
C19   C     C_R   0.002250 0.744241 0.099580 0.249386
C20   C     C_R   0.997601 0.255711 0.900451 0.249311
C21   C     C_R   0.973813 0.685457 0.164600 -0.118322
C22   C     C_R   0.025905 0.314483 0.835417 -0.118373
C23   C     C_R   0.946486 0.586291 0.153794 -0.090738
C24   C     C_R   0.053217 0.413657 0.846200 -0.090634
C25   C     C_R   0.980657 0.541555 0.077877 0.049242
C26   C     C_R   0.019233 0.458414 0.922118 0.049187
C27   C     C_R   0.990594 0.603323 0.009245 0.032202
C28   C     C_R   0.009369 0.396651 0.990757 0.032198
C29   C     C_R   0.001016 0.438607 0.069024 -0.230773
C30   C     C_R   0.998964 0.561373 0.930973 -0.230813
C31   C     C_3   0.327658 0.024744 0.471535 0.397643
C32   C     C_3   0.672327 0.975239 0.528457 0.397646
C33   C     C_3   0.409807 0.921224 0.478607 -0.125477
C34   C     C_3   0.590174 0.078756 0.521385 -0.125515
C35   C     C_3   0.482747 0.941556 0.564157 -0.305606
C36   C     C_3   0.517238 0.058428 0.435835 -0.305578
C37   C     C_3   0.399974 0.046659 0.557847 -0.107207
C38   C     C_3   0.600008 0.953322 0.442144 -0.107093
H1    H     H_    0.314202 0.088570 0.601146 0.242858
H2    H     H_    0.685783 0.911405 0.398850 0.242837
C39   C     C_R   0.512887 0.205127 0.972056 -0.111175
C40   C     C_R   0.487048 0.794891 0.027930 -0.111218
C41   C     C_R   0.519493 0.239068 0.893214 -0.102048
C42   C     C_R   0.480341 0.760956 0.106772 -0.102064
C43   C     C_R   0.493719 0.176318 0.829841 0.324503
C44   C     C_R   0.506094 0.823704 0.170148 0.324610
C45   C     C_R   0.449436 0.080650 0.843780 0.212106
C46   C     C_R   0.550443 0.919364 0.156212 0.212133
C47   C     C_R   0.476706 0.038731 0.921256 0.044722
C48   C     C_R   0.523243 0.961285 0.078731 0.044694
C49   C     C_R   0.502707 0.103007 0.988190 0.060446
C50   C     C_R   0.497259 0.897010 0.011796 0.060428
C51   C     C_R   0.481274 0.936057 0.932496 -0.198990
C52   C     C_R   0.518715 0.063960 0.067489 -0.199034
Br1   Br    Br    0.765973 0.418340 0.652223 -0.534942
Br2   Br    Br    0.233988 0.581669 0.347731 -0.534959
Br3   Br    Br    0.481757 0.777663 0.277629 -0.494997
Br4   Br    Br    0.517898 0.222380 0.722360 -0.495036
C53   C     C_1   0.519967 0.279995 0.032394 0.073019
N1    N     N_1   0.525041 0.342586 0.077988 -0.021437
C54   C     C_1   0.480024 0.720020 0.967593 0.073077
N2    N     N_1   0.474989 0.657424 0.922001 -0.021412
C55   C     C_1   0.547334 0.340407 0.876553 0.187234
N3    N     N_1   0.569770 0.421081 0.863667 -0.051988
C56   C     C_1   0.452378 0.659626 0.123428 0.187232
N4    N     N_1   0.429834 0.578960 0.136306 -0.052006
Br5   Br    Br    0.298739 0.025533 0.759388 -0.479415
Br6   Br    Br    0.701099 0.974466 0.240627 -0.479419
C57   C     C_1   0.642686 0.441613 0.447722 0.290391
N5    N     N_1   0.500345 0.412910 0.423161 -0.009329
C58   C     C_1   0.357284 0.558420 0.552260 0.290445
N6    N     N_1   0.499620 0.587114 0.576833 -0.009303
Br7   Br    Br    0.749072 0.691332 0.447565 -0.541028
Br8   Br    Br    0.250794 0.308701 0.552461 -0.540834
C59   C     C_1   0.035498 0.268988 0.757922 0.421505
N7    N     N_1   0.040761 0.229606 0.697062 0.038838
C60   C     C_1   0.964129 0.730924 0.242102 0.421457
N8    N     N_1   0.958812 0.770280 0.302972 0.038840
C61   C     C_1   0.985273 0.779277 0.961584 0.204476
N9    N     N_1   0.977830 0.841300 0.915750 0.036309
C62   C     C_1   0.014747 0.220702 0.038441 0.204512
N10   N     N_1   0.022222 0.158684 0.084277 0.036311
Br9   Br    Br    0.041783 0.881309 0.116001 -0.548427
Br10  Br    Br    0.958076 0.118635 0.884062 -0.548520
C63   C     C_1   0.844184 0.538744 0.216056 0.124861
N11   N     N_1   0.756636 0.504001 0.265842 -0.014659
C64   C     C_1   0.155195 0.461202 0.783856 0.125064
N12   N     N_1   0.242466 0.495933 0.733982 -0.014872
C65   C     C_1   0.299027 0.836016 0.460563 0.369253
N13   N     N_1   0.209067 0.768852 0.448405 -0.008875
C66   C     C_1   0.700886 0.163984 0.539431 0.369143
N14   N     N_1   0.790762 0.231177 0.551589 -0.008852
Br11  Br    Br    0.081408 0.057258 0.422878 -0.463210
Br12  Br    Br    0.918581 0.942737 0.577115 -0.463275

loop_
_geom_bond_atom_site_label_1
_geom_bond_atom_site_label_2
_geom_bond_distance
_ccdc_geom_bond_type
C40   C42   1.404005 A    
C22   C59   1.442515 S    
C57   N5    1.152632 T    
C10   C13   1.544111 S    
O13   V3    1.726766 S    
C64   N12   1.155322 T    
O4    C2    1.319887 A    
V1    O19   1.700548 S    
C40   C54   1.448679 S    
C33   C38   1.550544 S    
C23   C25   1.433665 A    
C54   N2    1.156085 T    
O9    V1    2.018276 S    
C9    C15   1.541613 S    
C48   C50   1.442052 A    
C10   C16   1.541606 S    
C11   C13   1.544739 S    
O3    C1    1.319912 A    
C2    C35   1.556448 S    
C16   Br8   1.930007 S    
C46   Br6   1.918051 S    
C39   C53   1.448667 S    
C7    C14   1.527400 S    
C34   C36   1.539705 S    
C66   N14   1.153623 T    
C36   C38   1.564978 S    
C21   C23   1.406668 A    
C11   Br1   1.933157 S    
C43   C45   1.393362 A    
C44   Br3   1.921740 S    
O7    C3    1.309719 A    
C38   H2    1.105928 S    
C43   Br4   1.921716 S    
C61   N9    1.155665 T    
C9    C11   1.542746 S    
O5    C7    1.310657 A    
O7    V1    2.024147 S    
O6    C8    1.310689 A    
C59   N7    1.155165 T    
O8    V2    2.024148 S    
C25   C27   1.439425 A    
C26   C28   1.439444 A    
O3    V1    2.037042 S    
O14   V4    1.726766 S    
V4    O20   2.176595 S    
C10   C12   1.542738 S    
C32   C38   1.554377 S    
C34   C37   1.550521 S    
C24   C26   1.433601 A    
C2    O12   1.313870 A    
C31   C36   1.548507 S    
C17   C19   1.392448 A    
C18   C20   1.392376 A    
C49   C52   1.436934 A    
C20   C22   1.381972 A    
O11   V3    1.997241 S    
C20   Br10  1.949493 S    
O17   V3    2.023951 S    
C22   C24   1.406709 A    
C35   C37   1.564959 S    
C60   N8    1.155158 T    
C10   C58   1.456572 S    
C46   C48   1.431417 A    
C12   Br2   1.933261 S    
C45   C47   1.431391 A    
C33   C65   1.458457 S    
C1    O11   1.313863 A    
C15   Br7   1.930086 S    
C39   C41   1.403984 A    
C23   C63   1.443649 S    
O15   V3    2.000026 S    
C17   C61   1.442344 S    
C41   C55   1.454900 S    
C41   C43   1.382865 A    
C53   N1    1.156079 T    
C40   C50   1.449607 A    
O10   V2    2.018275 S    
O1    V3    2.013143 S    
C42   C56   1.454893 S    
C19   Br9   1.949467 S    
C50   C51   1.436922 A    
C19   C21   1.382044 A    
C21   C60   1.442490 S    
C31   Br11  1.944557 S    
C42   C44   1.382874 A    
O18   V4    2.023953 S    
C31   C33   1.543911 S    
O8    C4    1.309709 A    
C34   C66   1.458423 S    
O16   C6    1.319786 A    
O1    C3    1.313104 A    
C47   C49   1.442057 A    
O12   V4    1.997240 S    
C12   C14   1.544776 S    
C1    C36   1.556490 S    
C26   C30   1.443139 A    
C28   C29   1.433155 A    
C65   N13   1.153614 T    
V2    O20   1.700548 S    
C3    C52   1.507324 S    
O16   V4    2.000026 S    
C32   Br12  1.944558 S    
C12   C15   1.552377 S    
C9    C57   1.456588 S    
O5    V1    2.014387 S    
O17   C7    1.313131 A    
O6    V2    2.014389 S    
C62   N10   1.155659 T    
O10   C6    1.308827 A    
O18   C8    1.313116 A    
C9    C14   1.544112 S    
C39   C49   1.449607 A    
C32   C35   1.548507 S    
O2    V4    2.013139 S    
C27   C30   1.433208 A    
O15   C5    1.319780 A    
C11   C16   1.552330 S    
V3    O19   2.176596 S    
C63   N11   1.155395 T    
C14   C16   1.549429 S    
C8    C13   1.527382 S    
C25   C29   1.443050 A    
C31   C37   1.554355 S    
C5    C29   1.505842 S    
O9    C5    1.308793 A    
O13   V1    2.140193 S    
C32   C34   1.543887 S    
O14   V2    2.140194 S    
O2    C4    1.313115 A    
C18   C62   1.442330 S    
C33   C35   1.539720 S    
O4    V2    2.037046 S    
C24   C64   1.443462 S    
C45   Br5   1.918014 S    
C55   N3    1.157291 T    
C13   C15   1.549447 S    
C48   C52   1.440238 A    
C58   N6    1.152629 T    
C4    C51   1.507312 S    
C47   C51   1.440227 A    
C44   C46   1.393361 A    
C56   N4    1.157285 T    
C6    C30   1.505919 S    
C17   C27   1.446713 A    
C18   C28   1.446723 A    
C37   H1    1.105928 S    
