data_mof_unit_30239.cif
_audit_creation_date              2012-12-11T14:19:34-0500
_audit_creation_method            fapswitch 2.2
_symmetry_space_group_name_H-M    P1
_symmetry_Int_Tables_number       1
_space_group_crystal_system       triclinic
_cell_length_a                    19.47396
_cell_length_b                    7.221946
_cell_length_c                    17.806463
_cell_angle_alpha                 89.875176
_cell_angle_beta                  107.635276
_cell_angle_gamma                 90.258015
_cell_volume                      2386.58265955

loop_
_atom_site_label
_atom_site_type_symbol
_atom_type_description
_atom_site_fract_x
_atom_site_fract_y
_atom_site_fract_z
_atom_type_partial_charge
O1    O     O_R   0.414820 0.494320 0.416790 -0.536424
O2    O     O_R   0.585180 0.994320 0.583210 -0.539742
O3    O     O_R   0.560270 0.819500 0.430140 -0.540170
O4    O     O_R   0.439730 0.319500 0.569860 -0.541232
C1    C     C_R   0.579384 0.655171 0.412755 0.703499
C2    C     C_R   0.421127 0.154978 0.587779 0.702675
O5    O     O_R   0.413840 0.823740 0.407440 -0.536860
O6    O     O_R   0.586160 0.323740 0.592560 -0.533387
O7    O     O_R   0.437710 0.998590 0.560350 -0.540759
O8    O     O_R   0.562290 0.498590 0.439650 -0.540161
C3    C     C_R   0.388984 0.654104 0.383863 0.693788
C4    C     C_R   0.611081 0.154540 0.615955 0.692529
O9    O     O_3   0.508000 0.662290 0.550200 -0.369927
O10   O     O_3   0.492000 0.162290 0.449800 -0.365959
V1    V     V_3+5 0.498520 0.935380 0.490690 1.472547
V2    V     V_3+5 0.501480 0.435380 0.509310 1.484084
C5    C     C_2   0.785791 0.273766 0.782991 0.225595
C6    C     C_2   0.218322 0.773017 0.211501 0.228380
C7    C     C_2   0.824289 0.118340 0.812854 -0.349788
C8    C     C_2   0.175993 0.620215 0.186524 -0.350160
H1    H     H_    0.809618 0.988791 0.781199 0.133225
H2    H     H_    0.187396 0.495325 0.222050 0.127174
C9    C     C_2   0.724101 0.269634 0.709058 -0.149427
C10   C     C_2   0.279173 0.772907 0.286197 -0.153342
C11   C     C_2   0.672042 0.138722 0.689317 -0.229765
C12   C     C_2   0.328144 0.636530 0.310246 -0.238664
H3    H     H_    0.719155 0.389427 0.670743 0.148657
H4    H     H_    0.286257 0.899036 0.320939 0.153602
C13   C     C_R   0.326884 0.004074 0.635724 -0.230541
C14   C     C_R   0.674741 0.786363 0.361500 -0.233712
C15   C     C_R   0.376891 0.147896 0.643073 -0.112679
C16   C     C_R   0.624481 0.645224 0.358461 -0.111043
C17   C     C_R   0.383828 0.284843 0.702213 -0.085465
C18   C     C_R   0.617420 0.497752 0.303912 -0.087001
C19   C     C_R   0.334396 0.288955 0.747506 -0.001307
C20   C     C_R   0.665759 0.484105 0.257400 -0.000865
C21   C     C_R   0.283606 0.141262 0.737838 0.036208
C22   C     C_R   0.716902 0.629583 0.262815 0.036056
C23   C     C_R   0.281383 0.997810 0.683149 0.114886
C24   C     C_R   0.719999 0.781246 0.313855 0.118684
C25   C     C_R   0.332154 0.434000 0.801473 0.149997
C26   C     C_R   0.666401 0.332261 0.205936 0.147626
C27   C     C_R   0.283045 0.425793 0.844358 -0.111818
C28   C     C_R   0.715184 0.330138 0.162570 -0.111231
C29   C     C_R   0.234602 0.278100 0.836673 0.033387
C30   C     C_R   0.764486 0.474362 0.166809 0.032545
C31   C     C_R   0.234629 0.135435 0.782937 0.007355
C32   C     C_R   0.765328 0.625102 0.217011 0.006195
C33   C     C_R   0.185591 0.986360 0.774159 0.110846
C34   C     C_R   0.814708 0.771936 0.221544 0.110633
C35   C     C_R   0.185543 0.843958 0.720867 -0.161694
C36   C     C_R   0.815580 0.922364 0.271315 -0.166645
C37   C     C_R   0.232607 0.850262 0.675466 -0.183173
C38   C     C_R   0.769061 0.926369 0.317360 -0.176740
C39   C     C_R   0.185890 0.272815 0.881557 0.158777
C40   C     C_R   0.813147 0.468366 0.121918 0.158561
C41   C     C_R   0.135451 0.124374 0.871423 -0.117143
C42   C     C_R   0.863960 0.614457 0.127904 -0.113953
C43   C     C_R   0.136858 0.981847 0.818227 -0.251551
C44   C     C_R   0.863030 0.766030 0.176928 -0.247881
H5    H     H_    0.322723 0.896972 0.591937 0.125356
H6    H     H_    0.679106 0.900955 0.401994 0.124000
H7    H     H_    0.283052 0.539419 0.884012 0.191864
H8    H     H_    0.714063 0.211353 0.125126 0.194307
H9    H     H_    0.099152 0.867273 0.810297 0.135816
H10   H     H_    0.901066 0.878745 0.181513 0.133538
H11   H     H_    0.148594 0.728033 0.713780 0.120209
H12   H     H_    0.852734 0.036671 0.275136 0.121051
H13   H     H_    0.230914 0.738976 0.634194 0.119171
H14   H     H_    0.771337 0.043933 0.355787 0.119191
O11   O     O_R   0.937810 0.773680 0.060480 -0.532893
O12   O     O_R   0.062190 0.273680 0.939520 -0.541023
O13   O     O_R   0.086190 0.439740 0.092580 -0.537993
O14   O     O_R   0.913810 0.939740 0.907420 -0.534209
C45   C     C_R   0.112163 0.609598 0.115106 0.741455
C46   C     C_R   0.888135 0.109320 0.884451 0.746364
O15   O     O_R   0.939760 0.444210 0.069890 -0.547868
O16   O     O_R   0.060240 0.944210 0.930110 -0.542783
O17   O     O_R   0.914790 0.269640 0.916760 -0.543110
O18   O     O_R   0.085210 0.769640 0.083240 -0.540908
C47   C     C_R   0.917291 0.611230 0.082882 0.702592
C48   C     C_R   0.082561 0.113241 0.916939 0.699786
O19   O     O_3   0.992050 0.601530 0.949880 -0.383263
O20   O     O_3   0.007950 0.101530 0.050120 -0.382207
V3    V     V_3+5 0.001480 0.328340 0.009300 1.374138
V4    V     V_3+5 0.998520 0.828340 0.990700 1.395220
N1    N     N_3   0.804654 0.453702 0.817469 -0.629636
H15   H     H_    0.803049 0.451961 0.875594 0.244307
H16   H     H_    0.855982 0.490640 0.815326 0.243246
N2    N     N_3   0.205094 0.946435 0.170034 -0.624653
H17   H     H_    0.204853 0.926425 0.111812 0.245317
H18   H     H_    0.155805 0.999919 0.171707 0.244821
C49   C     C_1   0.670693 0.984099 0.740932 0.343721
N3    N     N_1   0.669351 0.860508 0.781973 -0.311354
C50   C     C_1   0.326351 0.472884 0.262552 0.352263
N4    N     N_1   0.325118 0.342207 0.224629 -0.309437
C51   C     C_1   0.445743 0.407753 0.719353 0.294983
N5    N     N_1   0.495530 0.504621 0.732466 -0.320429
C52   C     C_1   0.556838 0.372457 0.293071 0.288200
N6    N     N_1   0.508129 0.273602 0.284828 -0.315797
N7    N     N_3   0.376266 0.597116 0.813132 -0.654824
H19   H     H_    0.429786 0.562142 0.841821 0.260660
H20   H     H_    0.370453 0.662018 0.759074 0.248125
N8    N     N_3   0.620256 0.173420 0.196525 -0.654273
H21   H     H_    0.626557 0.111446 0.251238 0.247023
H22   H     H_    0.566972 0.212483 0.168968 0.260443
N9    N     N_3   0.190763 0.415691 0.939070 -0.679905
H23   H     H_    0.195133 0.355700 0.993811 0.247648
H24   H     H_    0.145316 0.500237 0.920810 0.248452
N10   N     N_3   0.808069 0.315945 0.068667 -0.677569
H25   H     H_    0.852920 0.230411 0.089933 0.248015
H26   H     H_    0.804920 0.366329 0.012665 0.235550

loop_
_geom_bond_atom_site_label_1
_geom_bond_atom_site_label_2
_ccdc_geom_bond_type
C14   C16   A    
N1    H15   S    
C11   C49   S    
C49   N3    T    
N9    H24   S    
C20   C26   A    
C50   N4    T    
O1    C3    A    
C46   O17   A    
C37   H13   S    
C2    O7    A    
N8    H22   S    
O12   V3    S    
C27   H7    S    
C31   C33   A    
C28   H8    S    
O5    C3    A    
C5    C9    S    
O14   C46   A    
C6    C10   S    
C7    C46   S    
C7    H1    S    
C10   C12   D    
C32   C34   A    
C41   C43   A    
C42   C44   A    
C41   C48   S    
O6    V2    S    
N10   H25   S    
O18   V4    S    
C17   C19   A    
C28   C30   A    
C33   C35   A    
C34   C36   A    
N9    H23   S    
C15   C17   A    
C9    H3    S    
C40   C42   A    
C21   C31   A    
C45   O18   A    
C22   C32   A    
C36   H12   S    
C1    C16   S    
O16   V4    S    
O5    V1    S    
C2    C15   S    
C44   H10   S    
N7    H20   S    
C25   C27   A    
C26   C28   A    
C40   N10   S    
N8    H21   S    
C36   C38   A    
C51   N5    T    
C30   C32   A    
C29   C31   A    
C13   H5    S    
C6    N2    S    
N7    H19   S    
O20   V3    S    
O4    C2    A    
C42   C47   S    
C3    C12   S    
C8    C45   S    
C39   N9    S    
C35   C37   A    
C16   C18   A    
O4    V2    S    
O11   V4    S    
O16   C48   A    
N2    H18   S    
C52   N6    T    
C38   H14   S    
O15   C47   A    
O6    C4    A    
C13   C23   A    
C18   C52   S    
C14   C24   A    
O1    V2    S    
C35   H11   S    
O14   V4    S    
O2    V1    S    
C27   C29   A    
O13   V3    S    
C8    H2    S    
C24   C38   A    
C14   H6    S    
O13   C45   A    
O17   V3    S    
O3    V1    S    
O2    C4    A    
C12   C50   S    
C19   C21   A    
C5    N1    S    
C10   H4    S    
O3    C1    A    
C26   N8    S    
C33   C43   A    
C4    C11   S    
C34   C44   A    
C39   C41   A    
O7    V1    S    
C1    O8    A    
C21   C23   A    
O8    V2    S    
C43   H9    S    
C22   C24   A    
N2    H17   S    
C23   C37   A    
C20   C22   A    
C5    C7    D    
C18   C20   A    
C25   N7    S    
C6    C8    D    
C9    C11   D    
C19   C25   A    
N10   H26   S    
O15   V3    S    
O19   V4    S    
C29   C39   A    
C13   C15   A    
O9    V2    S    
C30   C40   A    
N1    H16   S    
O10   V1    S    
C17   C51   S    
O12   C48   A    
O11   C47   A    
