data_mof_unit_37203.cif
_audit_creation_date              2012-12-10T19:08:35-0500
_audit_creation_method            fapswitch 2.2
_symmetry_space_group_name_H-M    P1
_symmetry_Int_Tables_number       1
_space_group_crystal_system       triclinic
_cell_length_a                    15.984255
_cell_length_b                    10.907301
_cell_length_c                    9.625412
_cell_angle_alpha                 92.320786
_cell_angle_beta                  90.052178
_cell_angle_gamma                 91.850896
_cell_volume                      1675.88780175

loop_
_atom_site_label
_atom_site_type_symbol
_atom_type_description
_atom_site_fract_x
_atom_site_fract_y
_atom_site_fract_z
_atom_type_partial_charge
C1    C     C_R   0.496241 0.263112 0.497468 0.778505
C2    C     C_R   0.042305 0.507539 0.622837 0.412687
C3    C     C_1   0.822243 0.491497 0.497523 -0.032065
C4    C     C_1   0.177296 0.494005 0.498702 -0.036707
C5    C     C_1   0.252414 0.496853 0.499538 -0.109187
C6    C     C_1   0.747338 0.495263 0.499489 -0.173061
C7    C     C_R   0.526811 0.071372 0.602493 0.051404
C8    C     C_R   0.491888 0.130438 0.493795 -0.209489
C9    C     C_R   0.453582 0.055425 0.385635 0.394611
C10   C     C_R   0.458151 0.926658 0.389269 -0.197663
C11   C     C_R   0.495298 0.870399 0.503020 -0.168533
C12   C     C_R   0.341532 0.499364 0.499883 0.812679
C13   C     C_R   0.527121 0.948015 0.609802 0.039080
C14   C     C_3   0.574916 0.956991 0.743856 -0.364047
C15   C     C_3   0.574973 0.096944 0.733133 0.064126
C16   C     C_R   0.572212 0.522443 0.075155 0.013086
C17   C     C_R   0.432396 0.456444 0.071222 0.460227
C18   C     C_R   0.432356 0.456398 0.924055 0.453851
C19   C     C_R   0.572701 0.520778 0.928202 -0.030911
C20   C     C_3   0.630186 0.632530 0.931165 0.576341
C21   C     C_3   0.629574 0.632344 0.090887 0.002975
C22   C     C_R   0.500153 0.737466 0.502078 0.823277
C23   C     C_R   0.658417 0.499192 0.500015 0.827330
C24   C     C_R   0.955218 0.506112 0.618959 -0.207018
C25   C     C_R   0.911787 0.487475 0.493782 -0.151034
C26   C     C_R   0.955727 0.467793 0.367795 0.419255
C27   C     C_R   0.043440 0.469841 0.369106 0.393089
C28   C     C_R   0.087289 0.490225 0.496969 -0.179164
Cu1   Cu    Cu3+1 0.500000 0.499980 0.640670 0.973771
Cu2   Cu    Cu3+1 0.500000 0.500020 0.359330 0.969100
H1    H     H_    0.599054 0.711694 0.143999 0.150413
H2    H     H_    0.921073 0.520147 0.715292 0.196137
H3    H     H_    0.430017 0.870847 0.304863 0.187066
H4    H     H_    0.535193 0.928962 0.832059 0.199260
H5    H     H_    0.637693 0.916727 0.735945 0.225401
H6    H     H_    0.538007 0.143967 0.816237 0.134662
N1    N     N_R   0.500520 0.500930 0.147930 -0.267723
N2    N     N_R   0.500520 0.500890 0.852020 -0.260077
O1    O     O_R   0.500000 0.319640 0.618810 -0.609927
O2    O     O_R   0.500010 0.319680 0.381230 -0.587452
O3    O     O_R   0.380300 0.499950 0.618760 -0.554724
O4    O     O_R   0.380310 0.499990 0.381180 -0.565142
O5    O     O_R   0.499990 0.680320 0.618770 -0.529310
O6    O     O_R   0.500000 0.680360 0.381190 -0.594196
O7    O     O_R   0.619690 0.500010 0.618820 -0.574344
O8    O     O_R   0.619700 0.500050 0.381240 -0.541126
O9    O     O_3   0.079871 0.526847 0.751780 -0.670035
H7    H     H_    0.141392 0.523704 0.743615 0.356373
N3    N     N_2   0.657899 0.154208 0.714603 -0.403664
H8    H     H_    0.660076 0.246568 0.742476 0.262528
C29   C     C_3   0.705063 0.126542 0.589006 -0.625380
H9    H     H_    0.770117 0.164067 0.602013 0.228069
H10   H     H_    0.676486 0.170106 0.498891 0.214054
H11   H     H_    0.707851 0.026053 0.567707 0.223790
O10   O     O_3   0.364609 0.401409 0.132951 -0.662722
H12   H     H_    0.387623 0.349368 0.204070 0.348737
O11   O     O_3   0.364399 0.401501 0.856865 -0.662176
H13   H     H_    0.386780 0.345284 0.783969 0.344363
N4    N     N_2   0.711858 0.609596 0.869219 -0.412729
H14   H     H_    0.720949 0.522593 0.827081 0.241514
C30   C     C_3   0.753123 0.707958 0.796327 -0.556257
H15   H     H_    0.819065 0.684660 0.775151 0.204947
H16   H     H_    0.753058 0.794919 0.860450 0.232405
H17   H     H_    0.720962 0.720749 0.695870 0.223339
O12   O     O_3   0.591526 0.733933 0.877841 -0.736363
H18   H     H_    0.536142 0.742153 0.923646 0.297100
N5    N     N_2   0.708457 0.601946 0.154276 -0.392881
H19   H     H_    0.738467 0.527474 0.110531 0.269382
C31   C     C_3   0.763088 0.705325 0.195124 -0.608835
H20   H     H_    0.817500 0.672752 0.253331 0.236475
H21   H     H_    0.729369 0.771097 0.264232 0.212786
H22   H     H_    0.786311 0.752502 0.102084 0.239418
O13   O     O_3   0.916133 0.446679 0.240717 -0.666340
H23   H     H_    0.854913 0.438093 0.253619 0.321763
O14   O     O_3   0.083072 0.451272 0.242411 -0.632773
H24   H     H_    0.144490 0.452609 0.254391 0.349417
O15   O     O_3   0.408907 0.102588 0.279097 -0.709535
H25   H     H_    0.381208 0.176298 0.317423 0.317800

loop_
_geom_bond_atom_site_label_1
_geom_bond_atom_site_label_2
_ccdc_geom_bond_type
O10   H12   S    
C16   C21   S    
C23   O7    A    
C30   H17   S    
C1    C8    S    
O13   H23   S    
C19   C20   S    
C3    C6    T    
C7    C8    A    
O15   H25   S    
C21   H1    S    
C26   C27   A    
Cu1   Cu2   S    
C26   O13   S    
C31   H21   S    
C30   H16   S    
C12   O4    A    
C1    O2    A    
C22   O6    A    
O9    H7    S    
C8    C9    A    
N3    C29   S    
Cu1   N2    S    
C9    C10   A    
C17   O10   S    
C16   N1    A    
C7    C15   S    
N4    H14   S    
C23   O8    A    
C13   C14   S    
Cu1   O5    S    
Cu2   O6    S    
C30   H15   S    
C27   O14   S    
C4    C28   S    
N4    C30   S    
N5    H19   S    
C20   O12   S    
C3    C25   S    
C24   C25   A    
C5    C12   S    
C14   H5    S    
C17   N1    A    
C25   C26   A    
C29   H9    S    
Cu2   N1    S    
Cu1   O7    S    
N5    C31   S    
C31   H22   S    
O14   H24   S    
C24   H2    S    
C12   O3    A    
C19   N2    A    
C18   O11   S    
C22   O5    A    
Cu1   O1    S    
C17   C18   A    
Cu2   O2    S    
C9    O15   S    
C20   N4    S    
N3    H8    S    
C2    C24   A    
C15   H6    S    
Cu1   O3    S    
Cu2   O8    S    
C4    C5    T    
C14   H4    S    
C2    O9    S    
C11   C22   S    
C29   H11   S    
C18   N2    A    
C11   C13   A    
O11   H13   S    
C16   C19   A    
C6    C23   S    
C10   H3    S    
C15   N3    S    
C31   H20   S    
C10   C11   A    
C1    O1    A    
C7    C13   A    
C20   C21   S    
O12   H18   S    
C27   C28   A    
C14   C15   S    
Cu2   O4    S    
C2    C28   A    
C29   H10   S    
C21   N5    S    
