data_mof_unit_53562.cif
_audit_creation_date              2012-12-11T17:02:15-0500
_audit_creation_method            fapswitch 2.2
_symmetry_space_group_name_H-M    P1
_symmetry_Int_Tables_number       1
_space_group_crystal_system       triclinic
_cell_length_a                    21.644018
_cell_length_b                    7.071548
_cell_length_c                    14.830011
_cell_angle_alpha                 90.275266
_cell_angle_beta                  105.974203
_cell_angle_gamma                 90.091584
_cell_volume                      2182.14947521

loop_
_atom_site_label
_atom_site_type_symbol
_atom_type_description
_atom_site_fract_x
_atom_site_fract_y
_atom_site_fract_z
_atom_type_partial_charge
O1    O     O_R   0.585850 0.505770 0.002130 -0.537174
O2    O     O_R   0.414150 0.005770 0.997870 -0.536886
O3    O     O_R   0.467530 0.173560 0.861970 -0.538160
O4    O     O_R   0.532470 0.673560 0.138030 -0.538112
C1    C     C_R   0.455453 0.343735 0.825269 0.684605
C2    C     C_R   0.544476 0.844971 0.174626 0.684605
O5    O     O_R   0.588690 0.175900 0.993250 -0.545471
O6    O     O_R   0.411310 0.675900 0.006750 -0.545565
O7    O     O_R   0.536170 0.007950 0.130090 -0.536780
O8    O     O_R   0.463830 0.507950 0.869910 -0.537231
C3    C     C_R   0.615087 0.344723 0.997836 0.691907
C4    C     C_R   0.384923 0.844532 0.002216 0.691370
O9    O     O_3   0.482630 0.339970 0.044740 -0.372912
O10   O     O_3   0.517370 0.839970 0.955260 -0.373175
V1    V     V_3+5 0.503220 0.064200 0.991700 1.412494
V2    V     V_3+5 0.496780 0.564200 0.008300 1.411962
C5    C     C_R   0.292365 0.010334 0.041195 0.101613
C6    C     C_R   0.707872 0.509995 0.959234 0.103452
C7    C     C_R   0.316979 0.852647 0.005221 -0.109168
C8    C     C_R   0.683043 0.352916 0.994928 -0.109792
C9    C     C_R   0.274730 0.699463 0.973621 -0.171079
C10   C     C_R   0.725031 0.200013 0.026134 -0.172069
H1    H     H_    0.291380 0.574634 0.945288 0.137769
H2    H     H_    0.708191 0.075705 0.054292 0.138850
C11   C     C_R   0.209348 0.711375 0.971793 -0.155813
C12   C     C_R   0.790394 0.211605 0.027801 -0.163892
H3    H     H_    0.177809 0.594108 0.943150 0.150291
H4    H     H_    0.821754 0.094726 0.056200 0.147930
C13   C     C_R   0.184102 0.877414 0.000929 -0.102228
C14   C     C_R   0.815876 0.377059 0.998911 -0.101161
C15   C     C_R   0.227723 0.022367 0.039187 0.098329
C16   C     C_R   0.772513 0.521756 0.961134 0.102378
C17   C     C_3   0.225036 0.227531 0.016199 -0.417309
C18   C     C_3   0.775650 0.727113 0.984815 -0.415734
C19   C     C_3   0.295564 0.214481 0.018624 -0.397606
C20   C     C_3   0.705135 0.714324 0.982525 -0.399795
H5    H     H_    0.216498 0.316287 0.073656 0.164748
H6    H     H_    0.784301 0.815288 0.927596 0.164263
H7    H     H_    0.192982 0.256756 0.945077 0.191851
H8    H     H_    0.807836 0.756872 0.055994 0.195420
H9    H     H_    0.327716 0.295573 0.077544 0.171466
H10   H     H_    0.673092 0.794997 0.923930 0.171611
H11   H     H_    0.304359 0.236586 0.948981 0.173500
H12   H     H_    0.696477 0.737063 0.052307 0.172737
C21   C     C_R   0.927876 0.881732 0.723497 -0.042740
C22   C     C_R   0.071985 0.388747 0.276842 -0.044050
C23   C     C_R   0.572983 0.855166 0.275867 -0.028529
C24   C     C_R   0.427185 0.347600 0.723753 -0.032019
C25   C     C_R   0.940790 0.857792 0.567636 -0.084409
C26   C     C_R   0.060994 0.442959 0.432247 -0.084917
C27   C     C_R   0.967574 0.869317 0.664172 -0.131052
C28   C     C_R   0.033712 0.430473 0.335879 -0.131246
C29   C     C_R   0.861226 0.883065 0.686582 -0.190855
C30   C     C_R   0.137868 0.359902 0.314083 -0.190453
C31   C     C_R   0.832296 0.872625 0.588567 0.046807
C32   C     C_R   0.167539 0.376006 0.411812 0.046577
C33   C     C_R   0.873538 0.859273 0.528636 0.060869
C34   C     C_R   0.127625 0.418001 0.471335 0.061218
C35   C     C_R   0.764031 0.874891 0.548698 0.061866
C36   C     C_R   0.235425 0.355216 0.451638 0.061888
C37   C     C_R   0.737849 0.862389 0.449225 0.005924
C38   C     C_R   0.262569 0.377883 0.550548 0.006173
C39   C     C_R   0.780703 0.849062 0.392851 -0.205175
C40   C     C_R   0.220905 0.417639 0.606570 -0.205173
C41   C     C_R   0.846959 0.847696 0.431106 0.249830
C42   C     C_R   0.154996 0.436796 0.568444 0.251265
C43   C     C_R   0.721018 0.889897 0.605044 -0.170149
C44   C     C_R   0.277152 0.312930 0.395741 -0.170624
C45   C     C_R   0.655017 0.892321 0.566023 -0.205803
C46   C     C_R   0.342798 0.293499 0.434638 -0.205388
C47   C     C_R   0.628755 0.879746 0.469443 0.142667
C48   C     C_R   0.369942 0.314602 0.530689 0.142510
C49   C     C_R   0.669521 0.864256 0.409334 0.102832
C50   C     C_R   0.330568 0.358319 0.590335 0.102498
C51   C     C_R   0.561634 0.883003 0.432527 -0.166185
C52   C     C_R   0.436424 0.288999 0.567683 -0.166530
C53   C     C_R   0.533930 0.870965 0.336188 -0.176573
C54   C     C_R   0.464689 0.302964 0.663789 -0.173616
C55   C     C_R   0.639861 0.851668 0.311593 -0.206168
C56   C     C_R   0.361093 0.377220 0.687681 -0.207471
H13   H     H_    0.666818 0.839317 0.260720 0.092964
H14   H     H_    0.335106 0.408841 0.738224 0.095655
H15   H     H_    0.482097 0.874311 0.308629 0.103992
H16   H     H_    0.515729 0.277228 0.691579 0.105284
H17   H     H_    0.624119 0.904373 0.612247 0.120471
H18   H     H_    0.372659 0.259952 0.388818 0.120948
H19   H     H_    0.973452 0.847670 0.524259 0.181970
H20   H     H_    0.029375 0.475849 0.475262 0.182075
H21   H     H_    0.019354 0.868036 0.692694 0.153326
H22   H     H_    0.982680 0.455077 0.307144 0.156103
H23   H     H_    0.833799 0.891953 0.736953 0.088620
H24   H     H_    0.164451 0.331434 0.263969 0.090406
H25   H     H_    0.764484 0.839877 0.317635 0.155415
H26   H     H_    0.237837 0.435040 0.681395 0.155301
H27   H     H_    0.736400 0.900864 0.680262 0.118503
H28   H     H_    0.260935 0.292244 0.321043 0.118757
H29   H     H_    0.530511 0.895320 0.478374 0.116213
H30   H     H_    0.466430 0.254282 0.522262 0.116378
O11   O     O_R   0.036080 0.231270 0.130120 -0.536761
O12   O     O_R   0.963920 0.731270 0.869880 -0.536017
O13   O     O_R   0.911300 0.558970 0.006750 -0.539426
O14   O     O_R   0.088700 0.058970 0.993250 -0.541011
C57   C     C_R   0.884896 0.389826 0.002059 0.694277
C58   C     C_R   0.115097 0.890016 0.997900 0.693384
O15   O     O_R   0.032450 0.561140 0.138040 -0.535661
O16   O     O_R   0.967550 0.061140 0.861960 -0.536825
O17   O     O_R   0.085870 0.728910 0.002130 -0.542752
O18   O     O_R   0.914130 0.228910 0.997870 -0.543846
C59   C     C_R   0.044554 0.393171 0.175137 0.697209
C60   C     C_R   0.955541 0.891945 0.824954 0.697362
O19   O     O_3   0.017320 0.394650 0.955270 -0.370425
O20   O     O_3   0.982680 0.894650 0.044730 -0.369846
V3    V     V_3+5 0.996780 0.670490 0.008300 1.464240
V4    V     V_3+5 0.003220 0.170490 0.991700 1.457861
Br1   Br    Br    0.898618 0.829676 0.344318 -0.617062
Br2   Br    Br    0.105003 0.491014 0.654734 -0.616924

loop_
_geom_bond_atom_site_label_1
_geom_bond_atom_site_label_2
_ccdc_geom_bond_type
C14   C16   A    
C39   C41   A    
O12   C60   A    
C31   C35   A    
O13   V3    S    
C25   H19   S    
C28   H22   S    
O1    C3    A    
C23   C55   A    
C48   C52   A    
O2    C4    A    
O11   V4    S    
O20   V4    S    
O3    V1    S    
O5    C3    A    
C44   H28   S    
C42   Br2   S    
O16   V4    S    
C18   H8    S    
O15   V3    S    
C7    C9    A    
C52   C54   A    
C17   C19   S    
C53   H15   S    
O18   V4    S    
O11   C59   A    
C22   C28   A    
C51   H29   S    
C25   C33   A    
C36   C38   A    
C24   C54   A    
C45   C47   A    
O17   V3    S    
C38   C40   A    
C35   C43   A    
C20   H10   S    
C34   C42   A    
C25   C27   A    
C14   C57   S    
C29   H23   S    
C26   C28   A    
C15   C17   S    
C57   O18   A    
C19   H11   S    
C18   C20   S    
C26   H20   S    
O5    V1    S    
C21   C29   A    
O6    V2    S    
C50   C56   A    
C43   H27   S    
C41   Br1   S    
C2    O7    A    
O20   V3    S    
C22   C59   S    
C29   C31   A    
C11   C13   A    
C1    C24   S    
C30   C32   A    
C3    C8    S    
C35   C37   A    
C2    C23   S    
C26   C34   A    
C48   C50   A    
C55   H13   S    
C21   C60   S    
C37   C49   A    
C17   H5    S    
C32   C36   A    
C13   C58   S    
C43   C45   A    
C40   C42   A    
O4    V2    S    
C30   H24   S    
O14   V4    S    
O6    C4    A    
C22   C30   A    
C37   C39   A    
C49   C55   A    
O19   V3    S    
O1    V2    S    
C17   H7    S    
O14   C58   A    
O2    V1    S    
C51   C53   A    
C56   H14   S    
C8    C10   A    
C12   C14   A    
C31   C33   A    
C5    C15   A    
C10   H2    S    
C20   H12   S    
O4    C2    A    
C6    C16   A    
C23   C53   A    
C46   H18   S    
C45   H17   S    
C47   C49   A    
O16   C60   A    
C9    C11   A    
C18   H6    S    
O12   V3    S    
C33   C41   A    
O3    C1    A    
C11   H3    S    
C39   H25   S    
C12   H4    S    
C24   C56   A    
C9    H1    S    
O7    V1    S    
C40   H26   S    
C1    O8    A    
C13   C15   A    
O8    V2    S    
C27   H21   S    
C47   C51   A    
C6    C20   S    
O15   C59   A    
C4    C7    S    
C5    C7    A    
C32   C34   A    
O19   V4    S    
C6    C8    A    
C19   H9    S    
C54   H16   S    
C36   C44   A    
O13   C57   A    
C10   C12   A    
O9    V2    S    
C44   C46   A    
C21   C27   A    
O10   V1    S    
C38   C50   A    
C46   C48   A    
C5    C19   S    
C52   H30   S    
C58   O17   A    
C16   C18   S    
