data_mof_unit_50058.cif
_audit_creation_date              2012-12-10T17:35:49-0500
_audit_creation_method            fapswitch 2.2
_symmetry_space_group_name_H-M    P1
_symmetry_Int_Tables_number       1
_space_group_crystal_system       triclinic
_cell_length_a                    24.49295
_cell_length_b                    24.492961
_cell_length_c                    27.549788
_cell_angle_alpha                 89.999912
_cell_angle_beta                  89.999413
_cell_angle_gamma                 89.999948
_cell_volume                      16527.2519637

loop_
_atom_site_label
_atom_site_type_symbol
_atom_type_description
_atom_site_fract_x
_atom_site_fract_y
_atom_site_fract_z
_atom_type_partial_charge
C1    C     C_1   0.999997 0.500001 0.569167 -0.008231
C2    C     C_1   0.999997 0.500001 0.474473 -0.062954
C3    C     C_R   0.192591 0.274406 0.710690 0.007044
C4    C     C_R   0.271552 0.809012 0.287650 0.005006
C5    C     C_R   0.725649 0.192539 0.710727 0.007021
C6    C     C_R   0.190980 0.271545 0.287645 0.005007
C7    C     C_R   0.807450 0.725637 0.710721 0.007017
C8    C     C_R   0.228452 0.309017 0.212353 0.005007
C9    C     C_R   0.774353 0.692540 0.789275 0.007023
C10   C     C_R   0.309014 0.771552 0.212350 0.005008
C11   C     C_R   0.692547 0.225639 0.789278 0.007019
C12   C     C_R   0.771560 0.690995 0.212344 0.005006
C13   C     C_1   0.500000 0.999999 0.525527 -0.062956
C14   C     C_R   0.225590 0.307406 0.789308 0.007034
C15   C     C_R   0.690989 0.228447 0.212350 0.005006
C16   C     C_R   0.307385 0.774432 0.789328 0.007037
C17   C     C_R   0.228368 0.691066 0.787716 0.005008
C18   C     C_R   0.774364 0.307450 0.210720 0.007021
C19   C     C_R   0.308961 0.228397 0.787688 0.005004
C20   C     C_R   0.692555 0.774369 0.210715 0.007021
C21   C     C_R   0.771550 0.309014 0.787648 0.005006
C22   C     C_R   0.225638 0.692549 0.210720 0.007021
C23   C     C_R   0.690977 0.771543 0.787645 0.005018
C24   C     C_1   0.500000 0.999999 0.474473 -0.062956
C25   C     C_R   0.307455 0.225641 0.210723 0.007021
C26   C     C_R   0.729960 0.770027 0.749998 -0.019509
C27   C     C_R   0.270649 0.229348 0.249999 -0.019210
C28   C     C_R   0.770038 0.270028 0.750003 -0.019511
C29   C     C_R   0.229350 0.729349 0.250000 -0.019209
C30   C     C_R   0.270030 0.229964 0.750000 -0.019499
C31   C     C_R   0.729351 0.770653 0.249998 -0.019209
C32   C     C_R   0.229967 0.729968 0.750004 -0.019482
C33   C     C_R   0.770652 0.270649 0.249999 -0.019209
C34   C     C_R   0.729968 0.229965 0.249999 -0.019509
C35   C     C_1   0.500001 0.000001 0.025527 -0.062959
C36   C     C_R   0.270651 0.770653 0.750004 -0.019196
C37   C     C_R   0.770036 0.729970 0.249997 -0.019509
C38   C     C_R   0.229346 0.270648 0.750000 -0.019211
C39   C     C_R   0.270034 0.770033 0.250000 -0.019510
C40   C     C_R   0.729355 0.229345 0.750003 -0.019210
C41   C     C_R   0.229965 0.270032 0.249999 -0.019511
C42   C     C_R   0.770645 0.729344 0.749998 -0.019212
C43   C     C_R   0.765622 0.805039 0.673709 -0.136472
C44   C     C_R   0.236316 0.195610 0.327250 -0.137729
C45   C     C_R   0.805055 0.234364 0.673717 -0.136462
C46   C     C_1   0.500001 0.000001 0.974473 -0.062961
C47   C     C_R   0.195622 0.763669 0.327259 -0.137728
C48   C     C_R   0.234482 0.195065 0.673628 -0.136480
C49   C     C_R   0.763664 0.804372 0.327262 -0.137729
C50   C     C_R   0.195122 0.765463 0.673594 -0.136498
C51   C     C_R   0.804379 0.236327 0.327257 -0.137730
C52   C     C_R   0.765619 0.194962 0.326295 -0.136470
C53   C     C_R   0.236473 0.804238 0.672647 -0.137706
C54   C     C_R   0.805028 0.765612 0.326300 -0.136472
C55   C     C_R   0.195717 0.236425 0.672674 -0.137703
C56   C     C_R   0.234382 0.805034 0.326296 -0.136473
C57   C     C_1   0.000000 0.500000 0.025527 -0.062955
C58   C     C_R   0.763690 0.195605 0.672754 -0.137729
C59   C     C_R   0.194951 0.234370 0.326286 -0.136468
C60   C     C_R   0.804384 0.763675 0.672747 -0.137701
C61   C     C_R   0.265628 0.305045 0.173711 -0.136471
C62   C     C_R   0.736314 0.695608 0.827250 -0.137726
C63   C     C_R   0.305036 0.734383 0.173704 -0.136470
C64   C     C_R   0.695613 0.263678 0.827253 -0.137713
C65   C     C_R   0.734395 0.694977 0.173695 -0.136472
C66   C     C_R   0.263575 0.304285 0.827322 -0.137688
C67   C     C_R   0.694967 0.265617 0.173704 -0.136473
C68   C     C_1   1.000000 0.500000 0.974473 -0.062956
C69   C     C_R   0.304233 0.736476 0.827362 -0.137713
C70   C     C_R   0.265459 0.695124 0.826415 -0.136494
C71   C     C_R   0.736331 0.304377 0.172742 -0.137727
C72   C     C_R   0.304934 0.265518 0.826366 -0.136485
C73   C     C_R   0.695633 0.736340 0.172734 -0.137728
C74   C     C_R   0.734374 0.305042 0.826290 -0.136471
C75   C     C_R   0.263672 0.695622 0.172742 -0.137730
C76   C     C_R   0.694949 0.734369 0.826288 -0.136461
C77   C     C_R   0.304388 0.263680 0.172748 -0.137730
C78   C     C_3   0.566984 0.771066 0.806200 0.019049
C79   C     C_R   1.000000 0.500000 0.878944 0.495224
C80   C     C_3   0.520409 0.772124 0.843083 -0.233715
C81   C     C_3   0.475764 0.731294 0.829815 -0.459379
C82   C     C_3   0.357589 0.141994 0.136434 0.015083
C83   C     C_3   0.395597 0.137369 0.092636 -0.252342
C84   C     C_3   0.374962 0.095195 0.056234 -0.479725
C85   C     C_3   0.771037 0.433003 0.806174 0.019038
C86   C     C_3   0.772041 0.479569 0.843064 -0.233725
C87   C     C_3   0.731179 0.524182 0.829789 -0.459370
C88   C     C_3   0.141981 0.642421 0.136436 0.015081
C89   C     C_3   0.137354 0.604419 0.092635 -0.252342
C90   C     C_R   0.000000 0.500000 0.121056 0.495203
C91   C     C_3   0.095171 0.625054 0.056241 -0.479719
C92   C     C_3   0.432916 0.228885 0.806372 0.019094
C93   C     C_3   0.479452 0.227778 0.843290 -0.233774
C94   C     C_3   0.524073 0.268681 0.830138 -0.459433
C95   C     C_3   0.642430 0.858032 0.136435 0.015077
C96   C     C_3   0.604431 0.862661 0.092632 -0.252332
C97   C     C_3   0.625068 0.904846 0.056240 -0.479724
C98   C     C_3   0.228817 0.567137 0.806544 0.019128
C99   C     C_3   0.227579 0.520610 0.843470 -0.233793
C100  C     C_3   0.268529 0.475985 0.830444 -0.459519
C101  C     C_R   0.500000 1.000000 0.878944 0.495217
C102  C     C_3   0.858020 0.357579 0.136435 0.015078
C103  C     C_3   0.862646 0.395583 0.092634 -0.252334
C104  C     C_3   0.904825 0.374947 0.056236 -0.479728
C105  C     C_3   0.567004 0.228956 0.193807 0.019043
C106  C     C_3   0.520442 0.227941 0.156913 -0.233729
C107  C     C_3   0.475827 0.268806 0.170175 -0.459378
C108  C     C_3   0.357477 0.858186 0.863560 0.015065
C109  C     C_3   0.395422 0.862828 0.907399 -0.252319
C110  C     C_3   0.374780 0.905080 0.943727 -0.479742
C111  C     C_3   0.771054 0.567013 0.193790 0.019047
C112  C     C_1   0.999999 0.500000 0.430833 -0.008220
C113  C     C_R   0.500000 1.000000 0.121056 0.495202
C114  C     C_3   0.772082 0.520449 0.156899 -0.233730
C115  C     C_3   0.731215 0.475834 0.170154 -0.459384
C116  C     C_3   0.141864 0.357499 0.863558 0.015059
C117  C     C_3   0.137221 0.395458 0.907387 -0.252336
C118  C     C_3   0.094988 0.374815 0.943732 -0.479729
C119  C     C_3   0.432999 0.771048 0.193805 0.019044
C120  C     C_3   0.479564 0.772070 0.156914 -0.233723
C121  C     C_3   0.524184 0.731211 0.170177 -0.459377
C122  C     C_3   0.642423 0.141988 0.863566 0.015081
C123  C     C_3   0.604420 0.137356 0.907367 -0.252349
C124  C     C_R   0.500000 1.000000 0.378944 0.495203
C125  C     C_3   0.625067 0.095188 0.943769 -0.479726
C126  C     C_3   0.228963 0.433005 0.193828 0.019038
C127  C     C_3   0.227956 0.479574 0.156941 -0.233722
C128  C     C_3   0.268815 0.524189 0.170217 -0.459372
C129  C     C_3   0.858001 0.642411 0.863565 0.015088
C130  C     C_3   0.862627 0.604403 0.907363 -0.252346
C131  C     C_3   0.904802 0.625039 0.943764 -0.479714
C132  C     C_3   0.066991 0.271036 0.306169 0.019036
C133  C     C_3   0.020423 0.272041 0.343058 -0.233720
C134  C     C_3   0.975806 0.231185 0.329778 -0.459367
C135  C     C_R   0.500000 1.000000 0.621056 0.495219
C136  C     C_3   0.857562 0.641985 0.636433 0.015062
C137  C     C_3   0.895562 0.637345 0.592630 -0.252370
C138  C     C_3   0.874895 0.595193 0.556223 -0.479733
C139  C     C_3   0.271043 0.932997 0.306194 0.019043
C140  C     C_3   0.272058 0.979559 0.343087 -0.233729
C141  C     C_3   0.231191 0.024173 0.329827 -0.459378
C142  C     C_3   0.642002 0.142411 0.636435 0.015084
C143  C     C_3   0.637375 0.104402 0.592638 -0.252342
C144  C     C_3   0.595203 0.125040 0.556236 -0.479718
C145  C     C_3   0.932993 0.728947 0.306209 0.019049
C146  C     C_R   1.000000 0.500000 0.378944 0.495202
C147  C     C_3   0.979553 0.727916 0.343104 -0.233731
C148  C     C_3   0.024173 0.768781 0.329852 -0.459381
C149  C     C_3   0.142495 0.358164 0.636454 0.015097
C150  C     C_3   0.104550 0.362796 0.592614 -0.252296
C151  C     C_3   0.125143 0.405108 0.556319 -0.479696
C152  C     C_3   0.728952 0.067000 0.306194 0.019043
C153  C     C_3   0.727931 0.020436 0.343086 -0.233725
C154  C     C_3   0.768791 0.975816 0.329823 -0.459376
C155  C     C_3   0.358172 0.857469 0.636440 0.015045
C156  C     C_3   0.362838 0.895429 0.592613 -0.252336
C157  C     C_R   0.999999 0.500000 0.621056 0.495217
C158  C     C_3   0.405060 0.874765 0.556268 -0.479762
C159  C     C_3   0.067138 0.728830 0.693469 0.019122
C160  C     C_3   0.020622 0.727615 0.656535 -0.233793
C161  C     C_3   0.976017 0.768592 0.669545 -0.459517
C162  C     C_3   0.857579 0.358017 0.363564 0.015081
C163  C     C_3   0.895582 0.362646 0.407364 -0.252331
C164  C     C_3   0.874947 0.404829 0.443758 -0.479721
C165  C     C_3   0.271147 0.067078 0.693585 0.019103
C166  C     C_3   0.272329 0.020530 0.656680 -0.233760
C167  C     C_3   0.231433 0.975890 0.669800 -0.459458
C168  C     C_R   0.106097 0.606098 0.750001 0.536882
C169  C     C_3   0.641970 0.857570 0.363564 0.015078
C170  C     C_3   0.637338 0.895570 0.407366 -0.252332
C171  C     C_3   0.595155 0.874930 0.443758 -0.479733
C172  C     C_3   0.933019 0.271051 0.693827 0.019042
C173  C     C_3   0.979595 0.272084 0.656947 -0.233714
C174  C     C_3   0.024235 0.231257 0.670237 -0.459368
C175  C     C_3   0.142421 0.641979 0.363565 0.015084
C176  C     C_3   0.104419 0.637353 0.407367 -0.252342
C177  C     C_3   0.125054 0.595171 0.443763 -0.479724
C178  C     C_3   0.728961 0.932999 0.693822 0.019040
C179  C     C_R   0.894057 0.394057 0.250000 0.521105
C180  C     C_3   0.727957 0.979564 0.656930 -0.233727
C181  C     C_3   0.768818 0.024178 0.670203 -0.459370
C182  C     C_3   0.358001 0.142411 0.363565 0.015081
C183  C     C_3   0.362626 0.104403 0.407363 -0.252342
C184  C     C_3   0.404798 0.125040 0.443766 -0.479718
C185  C     C_R   0.606098 0.893902 0.750000 0.536661
C186  C     C_R   0.394057 0.105943 0.250000 0.521109
C187  C     C_R   0.893902 0.393902 0.750000 0.536651
C188  C     C_1   0.500000 0.999999 0.569167 -0.008222
C189  C     C_R   0.105943 0.605943 0.250000 0.521107
C190  C     C_R   0.393903 0.106098 0.749999 0.536785
C191  C     C_R   0.605943 0.894057 0.250000 0.521106
C192  C     C_R   0.106098 0.393902 0.250000 0.536655
C193  C     C_R   0.894056 0.605942 0.750000 0.521148
C194  C     C_R   0.606098 0.106098 0.250000 0.536666
C195  C     C_R   0.394057 0.894058 0.750000 0.521126
C196  C     C_R   0.893903 0.606098 0.250000 0.536677
C197  C     C_R   0.105942 0.394057 0.750000 0.521098
C198  C     C_R   0.393902 0.893902 0.250000 0.536669
C199  C     C_1   0.499999 1.000000 0.430833 -0.008219
C200  C     C_R   0.605943 0.105942 0.750000 0.521126
C201  C     C_R   0.648294 0.809747 0.785848 0.198526
C202  C     C_R   0.346231 0.183582 0.209658 0.193938
C203  C     C_R   0.809748 0.351701 0.785847 0.198525
C204  C     C_R   0.183579 0.653772 0.209656 0.193936
C205  C     C_R   0.351650 0.190200 0.785892 0.198505
C206  C     C_R   0.653777 0.816427 0.209653 0.193935
C207  C     C_R   0.190165 0.648381 0.785928 0.198494
C208  C     C_R   0.816423 0.346226 0.209656 0.193939
C209  C     C_R   0.648302 0.190249 0.214150 0.198523
C210  C     C_1   0.500001 0.000000 0.069167 -0.008219
C211  C     C_R   0.346173 0.816481 0.790380 0.193919
C212  C     C_R   0.809758 0.648308 0.214144 0.198524
C213  C     C_R   0.183537 0.346189 0.790366 0.193990
C214  C     C_R   0.351699 0.809751 0.214150 0.198525
C215  C     C_R   0.653771 0.183579 0.790343 0.193957
C216  C     C_R   0.190254 0.351704 0.214154 0.198526
C217  C     C_R   0.816414 0.653766 0.790341 0.193931
C218  C     C_R   0.148294 0.309744 0.285844 0.198528
C219  C     C_R   0.846227 0.683577 0.709657 0.193995
C220  C     C_R   0.309751 0.851699 0.285850 0.198524
C221  C     C_1   0.500001 0.000000 0.930833 -0.008219
C222  C     C_R   0.683587 0.153765 0.709660 0.193935
C223  C     C_R   0.851696 0.690247 0.285852 0.198522
C224  C     C_R   0.153810 0.316462 0.709632 0.193921
C225  C     C_R   0.690249 0.148300 0.285849 0.198525
C226  C     C_R   0.316480 0.846175 0.709627 0.193958
C227  C     C_R   0.148379 0.690169 0.714079 0.198493
C228  C     C_R   0.846228 0.316420 0.290343 0.193932
C229  C     C_R   0.309802 0.148349 0.714101 0.198507
C230  C     C_R   0.683575 0.846225 0.290345 0.193935
C231  C     C_R   0.851708 0.309743 0.714157 0.198528
C232  C     C_1   0.000000 0.500000 0.069167 -0.008219
C233  C     C_R   0.153773 0.683577 0.290345 0.193935
C234  C     C_R   0.690250 0.851699 0.714152 0.198525
C235  C     C_R   0.316415 0.153767 0.290341 0.193937
C236  C     C_R   0.648766 0.851231 0.750000 0.008613
C237  C     C_R   0.351652 0.148347 0.250000 0.008398
C238  C     C_R   0.851234 0.351230 0.750001 0.008609
C239  C     C_R   0.148348 0.648347 0.250000 0.008398
C240  C     C_R   0.351232 0.148768 0.749998 0.008651
C241  C     C_R   0.648347 0.851653 0.249999 0.008401
C242  C     C_R   0.148767 0.648769 0.750003 0.008697
C243  C     C_1   1.000000 0.500000 0.930833 -0.008226
C244  C     C_R   0.851653 0.351652 0.250000 0.008399
C245  C     C_R   0.648768 0.148767 0.250000 0.008616
C246  C     C_R   0.351654 0.851655 0.750003 0.008441
C247  C     C_R   0.851234 0.648770 0.249998 0.008618
C248  C     C_R   0.148346 0.351653 0.749999 0.008421
C249  C     C_R   0.351232 0.851232 0.250000 0.008616
C250  C     C_R   0.648350 0.148345 0.750001 0.008408
C251  C     C_R   0.148767 0.351231 0.249999 0.008611
C252  C     C_R   0.851650 0.648345 0.750000 0.008426
C253  C     C_R   0.728447 0.809012 0.712351 0.005005
C254  C     C_1   0.999997 0.500001 0.525527 -0.062956
C255  C     C_R   0.274355 0.192543 0.289275 0.007020
C256  C     C_R   0.809025 0.271541 0.712358 0.005014
C257  C     C_R   0.192550 0.725636 0.289280 0.007021
C258  C     C_R   0.271600 0.191034 0.712309 0.005014
C259  C     C_R   0.725635 0.807449 0.289280 0.007021
C260  C     C_R   0.191065 0.728370 0.712292 0.005004
C261  C     C_R   0.807452 0.274360 0.289279 0.007020
C262  C     C_R   0.728449 0.190985 0.287649 0.005007
C263  C     C_R   0.274430 0.807387 0.710680 0.007032
C264  C     C_R   0.809011 0.728446 0.287651 0.005007
H1    H     H_    0.764699 0.833652 0.643751 0.147484
H2    H     H_    0.238261 0.831998 0.642087 0.142642
H3    H     H_    0.372944 0.946078 0.926550 0.148567
H4    H     H_    0.403085 0.907064 0.975167 0.157400
H5    H     H_    0.333534 0.893661 0.957066 0.142778
H6    H     H_    0.728815 0.583725 0.195635 0.114247
H7    H     H_    0.782224 0.550266 0.230106 0.138644
H8    H     H_    0.761920 0.536698 0.120323 0.150576
H9    H     H_    0.813761 0.502563 0.155519 0.218293
H10   H     H_    0.741633 0.457740 0.205956 0.174935
H11   H     H_    0.732333 0.443151 0.142247 0.169149
H12   H     H_    0.689191 0.492802 0.171588 0.122402
H13   H     H_    0.833632 0.764679 0.356263 0.147478
H14   H     H_    0.156700 0.316894 0.876216 0.120303
H15   H     H_    0.100649 0.352623 0.846969 0.132445
H16   H     H_    0.177617 0.398527 0.925581 0.150011
H17   H     H_    0.125202 0.436908 0.895022 0.198748
H18   H     H_    0.053975 0.373020 0.926580 0.148575
H19   H     H_    0.093048 0.403101 0.975188 0.157379
H20   H     H_    0.106390 0.333554 0.957040 0.142769
H21   H     H_    0.416289 0.728808 0.195656 0.114243
H22   H     H_    0.449745 0.782226 0.230119 0.138641
H23   H     H_    0.463317 0.761898 0.120341 0.150573
H24   H     H_    0.167945 0.238201 0.642122 0.142636
H25   H     H_    0.497447 0.813751 0.155526 0.218302
H26   H     H_    0.542278 0.741641 0.205976 0.174926
H27   H     H_    0.556866 0.732323 0.142268 0.169156
H28   H     H_    0.507219 0.689186 0.171621 0.122401
H29   H     H_    0.683001 0.156870 0.876247 0.120335
H30   H     H_    0.647350 0.100761 0.847013 0.132443
H31   H     H_    0.601286 0.177770 0.925521 0.150025
H32   H     H_    0.562997 0.125277 0.894977 0.198792
H33   H     H_    0.626940 0.054159 0.926652 0.148577
H34   H     H_    0.596741 0.093244 0.975197 0.157385
H35   H     H_    0.235310 0.833642 0.356258 0.147479
H36   H     H_    0.666296 0.106659 0.957111 0.142782
H37   H     H_    0.271201 0.416293 0.195686 0.114247
H38   H     H_    0.217775 0.449748 0.230140 0.138640
H39   H     H_    0.238138 0.463330 0.120368 0.150563
H40   H     H_    0.186277 0.497460 0.155545 0.218308
H41   H     H_    0.258375 0.542281 0.206014 0.174906
H42   H     H_    0.267715 0.556873 0.142311 0.169151
H43   H     H_    0.310838 0.507220 0.171671 0.122401
H44   H     H_    0.843121 0.682988 0.876249 0.120345
H45   H     H_    0.899230 0.647336 0.847014 0.132489
H46   H     H_    0.761960 0.167788 0.642232 0.142609
H47   H     H_    0.822214 0.601276 0.925519 0.150050
H48   H     H_    0.874697 0.562978 0.894969 0.198838
H49   H     H_    0.945830 0.626904 0.926646 0.148606
H50   H     H_    0.906741 0.596710 0.975190 0.157389
H51   H     H_    0.893340 0.666269 0.957110 0.142787
H52   H     H_    0.083703 0.228798 0.304306 0.114245
H53   H     H_    0.050246 0.282228 0.269857 0.138644
H54   H     H_    0.036669 0.261852 0.379629 0.150567
H55   H     H_    0.002539 0.313720 0.344459 0.218306
H56   H     H_    0.957712 0.241632 0.293983 0.174916
H57   H     H_    0.166337 0.235293 0.356244 0.147485
H58   H     H_    0.943124 0.232282 0.357687 0.169151
H59   H     H_    0.992774 0.189161 0.328318 0.122401
H60   H     H_    0.816986 0.656875 0.623753 0.120342
H61   H     H_    0.852628 0.600759 0.652986 0.132426
H62   H     H_    0.898713 0.677761 0.574482 0.150014
H63   H     H_    0.936980 0.625246 0.605018 0.198754
H64   H     H_    0.873001 0.554162 0.573334 0.148570
H65   H     H_    0.903222 0.593240 0.524796 0.157381
H66   H     H_    0.833673 0.606686 0.542880 0.142789
H67   H     H_    0.228806 0.916283 0.304339 0.114246
H68   H     H_    0.832203 0.761945 0.642226 0.142649
H69   H     H_    0.282224 0.949746 0.269881 0.138649
H70   H     H_    0.261888 0.963307 0.379660 0.150571
H71   H     H_    0.313736 0.997447 0.344476 0.218291
H72   H     H_    0.241618 0.042271 0.294028 0.174938
H73   H     H_    0.232300 0.056853 0.357736 0.169130
H74   H     H_    0.189169 0.007202 0.328383 0.122402
H75   H     H_    0.656885 0.182988 0.623751 0.120343
H76   H     H_    0.600774 0.147339 0.652986 0.132471
H77   H     H_    0.677789 0.101272 0.574483 0.150050
H78   H     H_    0.625303 0.062978 0.605033 0.198838
H79   H     H_    0.264704 0.333658 0.143753 0.147481
H80   H     H_    0.554174 0.126909 0.573353 0.148596
H81   H     H_    0.593263 0.096711 0.524811 0.157390
H82   H     H_    0.606667 0.166270 0.542890 0.142784
H83   H     H_    0.916283 0.771187 0.304364 0.114244
H84   H     H_    0.949742 0.717775 0.269895 0.138645
H85   H     H_    0.963301 0.738079 0.379678 0.150568
H86   H     H_    0.997437 0.686236 0.344484 0.218291
H87   H     H_    0.042272 0.758359 0.294052 0.174952
H88   H     H_    0.056851 0.767663 0.357763 0.169140
H89   H     H_    0.007206 0.810806 0.328413 0.122400
H90   H     H_    0.738046 0.667793 0.857773 0.142607
H91   H     H_    0.183114 0.343358 0.623804 0.120288
H92   H     H_    0.147338 0.399375 0.653055 0.132530
H93   H     H_    0.101559 0.322417 0.574383 0.150025
H94   H     H_    0.063073 0.374729 0.604972 0.198823
H95   H     H_    0.126824 0.446109 0.573501 0.148625
H96   H     H_    0.096891 0.407014 0.524837 0.157380
H97   H     H_    0.166447 0.393812 0.543044 0.142751
H98   H     H_    0.771191 0.083710 0.304342 0.114243
H99   H     H_    0.717773 0.050252 0.269881 0.138644
H100  H     H_    0.738104 0.036685 0.379659 0.150572
H101  H     H_    0.333645 0.735311 0.143743 0.147481
H102  H     H_    0.686250 0.002553 0.344475 0.218299
H103  H     H_    0.758360 0.957720 0.294025 0.174931
H104  H     H_    0.767679 0.943136 0.357733 0.169149
H105  H     H_    0.810816 0.992782 0.328378 0.122401
H106  H     H_    0.343331 0.816868 0.623778 0.120321
H107  H     H_    0.399380 0.852584 0.653040 0.132420
H108  H     H_    0.322445 0.898524 0.574419 0.150061
H109  H     H_    0.374879 0.936871 0.604981 0.198805
H110  H     H_    0.446068 0.872923 0.573425 0.148557
H111  H     H_    0.407032 0.903062 0.524822 0.157389
H112  H     H_    0.238047 0.167794 0.357771 0.142610
H113  H     H_    0.667795 0.261948 0.857773 0.142632
H114  H     H_    0.393622 0.833519 0.542944 0.142781
H115  H     H_    0.083835 0.771080 0.695179 0.114265
H116  H     H_    0.050345 0.717823 0.729808 0.138646
H117  H     H_    0.036926 0.737543 0.619928 0.150696
H118  H     H_    0.002710 0.685940 0.655336 0.218186
H119  H     H_    0.957892 0.758428 0.705392 0.175121
H120  H     H_    0.943353 0.767301 0.641626 0.169046
H121  H     H_    0.993006 0.810617 0.670762 0.122434
H122  H     H_    0.816998 0.343141 0.376246 0.120334
H123  H     H_    0.852658 0.399243 0.347008 0.132456
H124  H     H_    0.735327 0.666372 0.143731 0.147481
H125  H     H_    0.898702 0.322235 0.425526 0.150055
H126  H     H_    0.937011 0.374708 0.394972 0.198842
H127  H     H_    0.873089 0.445855 0.426635 0.148579
H128  H     H_    0.903272 0.406770 0.475187 0.157397
H129  H     H_    0.833713 0.393375 0.457101 0.142779
H130  H     H_    0.228892 0.083762 0.695328 0.114247
H131  H     H_    0.282209 0.050320 0.729923 0.138610
H132  H     H_    0.262294 0.036791 0.620081 0.150636
H133  H     H_    0.314021 0.002662 0.655413 0.218273
H134  H     H_    0.241720 0.957793 0.705631 0.175003
H135  H     H_    0.261805 0.332064 0.857869 0.142664
H136  H     H_    0.232678 0.943214 0.641890 0.169218
H137  H     H_    0.189395 0.992837 0.671106 0.122414
H138  H     H_    0.656844 0.816988 0.376243 0.120332
H139  H     H_    0.600745 0.852652 0.347005 0.132450
H140  H     H_    0.677748 0.898689 0.425529 0.150052
H141  H     H_    0.625276 0.936998 0.394977 0.198835
H142  H     H_    0.554129 0.873072 0.426634 0.148574
H143  H     H_    0.593212 0.903253 0.475188 0.157389
H144  H     H_    0.606610 0.833696 0.457099 0.142777
H145  H     H_    0.916320 0.228807 0.695677 0.114239
H146  H     H_    0.666358 0.264689 0.143743 0.147480
H147  H     H_    0.949750 0.282237 0.730145 0.138619
H148  H     H_    0.963364 0.261884 0.620374 0.150560
H149  H     H_    0.997454 0.313774 0.655547 0.218329
H150  H     H_    0.042318 0.241721 0.706032 0.174866
H151  H     H_    0.056921 0.232370 0.642332 0.169253
H152  H     H_    0.007293 0.189223 0.671700 0.122401
H153  H     H_    0.183002 0.656853 0.376246 0.120331
H154  H     H_    0.147339 0.600752 0.347010 0.132454
H155  H     H_    0.101300 0.677764 0.425527 0.150031
H156  H     H_    0.062990 0.625291 0.394977 0.198825
H157  H     H_    0.331990 0.738266 0.857924 0.142627
H158  H     H_    0.126911 0.554144 0.426641 0.148579
H159  H     H_    0.096730 0.593233 0.475192 0.157381
H160  H     H_    0.166288 0.606625 0.457103 0.142787
H161  H     H_    0.771198 0.916285 0.695683 0.114253
H162  H     H_    0.717772 0.949747 0.730133 0.138652
H163  H     H_    0.738139 0.963315 0.620359 0.150569
H164  H     H_    0.686279 0.997452 0.655532 0.218294
H165  H     H_    0.758380 0.042274 0.705999 0.174927
H166  H     H_    0.767719 0.056860 0.642294 0.169135
H167  H     H_    0.810841 0.007207 0.671657 0.122408
H168  H     H_    0.264462 0.666587 0.856428 0.147433
H169  H     H_    0.343120 0.182989 0.376249 0.120337
H170  H     H_    0.399230 0.147337 0.347015 0.132455
H171  H     H_    0.322212 0.101275 0.425517 0.150042
H172  H     H_    0.374697 0.062979 0.394969 0.198832
H173  H     H_    0.445827 0.126907 0.426649 0.148582
H174  H     H_    0.406737 0.096711 0.475191 0.157391
H175  H     H_    0.393335 0.166270 0.457111 0.142789
H176  H     H_    0.738066 0.332190 0.142217 0.142613
H177  H     H_    0.333501 0.264550 0.856357 0.147468
H178  H     H_    0.667824 0.738078 0.142207 0.142614
H179  H     H_    0.735296 0.333656 0.856247 0.147483
H180  H     H_    0.833670 0.235287 0.643760 0.147485
H181  H     H_    0.261936 0.667811 0.142217 0.142608
H182  H     H_    0.666338 0.735294 0.856247 0.147478
H183  H     H_    0.332205 0.261949 0.142226 0.142609
H184  H     H_    0.583675 0.728818 0.804365 0.114235
H185  H     H_    0.550251 0.782238 0.769880 0.138613
H186  H     H_    0.536641 0.761944 0.879660 0.150570
H187  H     H_    0.502553 0.813817 0.844465 0.218345
H188  H     H_    0.457681 0.741738 0.794014 0.174869
H189  H     H_    0.443079 0.732428 0.857720 0.169268
H190  H     H_    0.492702 0.689258 0.828372 0.122402
H191  H     H_    0.167809 0.761934 0.357783 0.142611
H192  H     H_    0.317011 0.156873 0.123750 0.120333
H193  H     H_    0.352665 0.100765 0.152985 0.132455
H194  H     H_    0.398724 0.177783 0.074481 0.150040
H195  H     H_    0.437022 0.125300 0.105030 0.198832
H196  H     H_    0.373097 0.054166 0.073351 0.148580
H197  H     H_    0.403291 0.093257 0.024808 0.157386
H198  H     H_    0.333732 0.106657 0.042889 0.142784
H199  H     H_    0.728800 0.416288 0.804312 0.114250
H200  H     H_    0.782227 0.449748 0.769862 0.138647
H201  H     H_    0.761858 0.463321 0.879635 0.150569
H202  H     H_    0.235455 0.166502 0.643634 0.147456
H203  H     H_    0.813718 0.497457 0.844462 0.218299
H204  H     H_    0.741619 0.542278 0.793993 0.174919
H205  H     H_    0.732278 0.556864 0.857697 0.169141
H206  H     H_    0.689157 0.507211 0.828334 0.122406
H207  H     H_    0.156856 0.683002 0.123755 0.120334
H208  H     H_    0.100755 0.647341 0.152992 0.132457
H209  H     H_    0.177765 0.601300 0.074474 0.150041
H210  H     H_    0.125292 0.562990 0.105026 0.198839
H211  H     H_    0.054145 0.626912 0.073364 0.148584
H212  H     H_    0.093231 0.596729 0.024812 0.157389
H213  H     H_    0.761925 0.832181 0.357789 0.142613
H214  H     H_    0.106625 0.666288 0.042898 0.142790
H215  H     H_    0.416208 0.271129 0.804586 0.114255
H216  H     H_    0.449692 0.217790 0.770049 0.138667
H217  H     H_    0.463173 0.237852 0.879874 0.150606
H218  H     H_    0.497342 0.186097 0.844602 0.218212
H219  H     H_    0.542187 0.258357 0.794322 0.175074
H220  H     H_    0.556741 0.267490 0.858056 0.169088
H221  H     H_    0.507103 0.310708 0.828784 0.122416
H222  H     H_    0.683013 0.843160 0.123755 0.120333
H223  H     H_    0.647346 0.899257 0.152993 0.132452
H224  H     H_    0.166584 0.764468 0.643582 0.147437
H225  H     H_    0.601314 0.822251 0.074469 0.150055
H226  H     H_    0.563001 0.874721 0.105021 0.198834
H227  H     H_    0.626921 0.945872 0.073365 0.148578
H228  H     H_    0.596747 0.906786 0.024809 0.157395
H229  H     H_    0.666304 0.893395 0.042901 0.142780
H230  H     H_    0.271072 0.583827 0.804850 0.114252
H231  H     H_    0.217820 0.550355 0.770199 0.138624
H232  H     H_    0.237522 0.536899 0.880079 0.150680
H233  H     H_    0.185894 0.502718 0.844667 0.218206
H234  H     H_    0.258346 0.457874 0.794595 0.175080
H235  H     H_    0.832191 0.238062 0.357782 0.142610
H236  H     H_    0.267224 0.443315 0.858357 0.169139
H237  H     H_    0.310563 0.492954 0.829224 0.122434
H238  H     H_    0.843144 0.316999 0.123753 0.120331
H239  H     H_    0.899247 0.352660 0.152989 0.132450
H240  H     H_    0.822234 0.398705 0.074476 0.150048
H241  H     H_    0.874711 0.437011 0.105026 0.198830
H242  H     H_    0.945853 0.373086 0.073357 0.148575
H243  H     H_    0.906765 0.403274 0.024809 0.157389
H244  H     H_    0.893368 0.333715 0.042893 0.142778
H245  H     H_    0.583717 0.271194 0.195661 0.114245
H246  H     H_    0.764690 0.166354 0.356256 0.147482
H247  H     H_    0.550254 0.217775 0.230119 0.138650
H248  H     H_    0.536694 0.238113 0.120341 0.150568
H249  H     H_    0.502554 0.186263 0.155523 0.218290
H250  H     H_    0.457728 0.258377 0.205973 0.174938
H251  H     H_    0.443147 0.267698 0.142265 0.169131
H252  H     H_    0.492797 0.310829 0.171620 0.122403
H253  H     H_    0.316861 0.843372 0.876210 0.120316
H254  H     H_    0.352627 0.899396 0.846957 0.132474
H255  H     H_    0.398470 0.822438 0.925605 0.150080
H256  H     H_    0.436882 0.874827 0.895042 0.198821
O1    O     O_3   1.000000 0.500000 0.750000 -0.449331
O2    O     O_R   0.954240 0.500000 0.143870 -0.548791
O3    O     O_R   0.500000 0.954240 0.856130 -0.548769
O4    O     O_R   0.500000 0.045760 0.143870 -0.548790
O5    O     O_R   0.454240 0.000000 0.356130 -0.548790
O6    O     O_R   0.545760 1.000000 0.643870 -0.548778
O7    O     O_R   1.000000 0.545760 0.356130 -0.548794
O8    O     O_R   0.000000 0.454240 0.643870 -0.548733
O9    O     O_R   0.545760 0.000000 0.356130 -0.548788
O10   O     O_R   0.454240 1.000000 0.643870 -0.548842
O11   O     O_R   1.000000 0.454240 0.356130 -0.548781
O12   O     O_3   1.000000 0.500000 0.250000 -0.449354
O13   O     O_R   0.000000 0.545760 0.643870 -0.548871
O14   O     O_R   0.110440 0.564520 0.777740 -0.514365
O15   O     O_R   0.889560 0.435480 0.222260 -0.520481
O16   O     O_R   0.564520 0.889560 0.777740 -0.514286
O17   O     O_R   0.435480 0.110440 0.222260 -0.520478
O18   O     O_R   0.889560 0.435480 0.777740 -0.514246
O19   O     O_R   0.110440 0.564520 0.222260 -0.520486
O20   O     O_R   0.435480 0.110440 0.777740 -0.514298
O21   O     O_R   0.564520 0.889560 0.222260 -0.520487
O22   O     O_R   0.110440 0.435480 0.222260 -0.514247
O23   O     O_3   0.500000 1.000000 0.750000 -0.449335
O24   O     O_R   0.889560 0.564520 0.777740 -0.520487
O25   O     O_R   0.564520 0.110440 0.222260 -0.514250
O26   O     O_R   0.435480 0.889560 0.777740 -0.520534
O27   O     O_R   0.889560 0.564520 0.222260 -0.514258
O28   O     O_R   0.110440 0.435480 0.777740 -0.520499
O29   O     O_R   0.435480 0.889560 0.222260 -0.514254
O30   O     O_R   0.564520 0.110440 0.777740 -0.520463
O31   O     O_R   0.610440 0.064520 0.277740 -0.514254
O32   O     O_R   0.389560 0.935480 0.722260 -0.520515
O33   O     O_R   0.064520 0.389560 0.277740 -0.514244
O34   O     O_3   0.500000 1.000000 0.250000 -0.449355
O35   O     O_R   0.935480 0.610440 0.722260 -0.520467
O36   O     O_R   0.389560 0.935480 0.277740 -0.514250
O37   O     O_R   0.610440 0.064520 0.722260 -0.520482
O38   O     O_R   0.935480 0.610440 0.277740 -0.514259
O39   O     O_R   0.064520 0.389560 0.722260 -0.520533
O40   O     O_R   0.610440 0.935480 0.722260 -0.514244
O41   O     O_R   0.389560 0.064520 0.277740 -0.520479
O42   O     O_R   0.064520 0.610440 0.722260 -0.514344
O43   O     O_R   0.935480 0.389560 0.277740 -0.520486
O44   O     O_R   0.389560 0.064520 0.722260 -0.514348
O45   O     O_R   0.954240 0.500000 0.856130 -0.548778
O46   O     O_R   0.610440 0.935480 0.277740 -0.520485
O47   O     O_R   0.935480 0.389560 0.722260 -0.514270
O48   O     O_R   0.064520 0.610440 0.277740 -0.520482
O49   O     O_3   0.607807 0.808430 0.820966 -0.553786
O50   O     O_3   0.380767 0.178819 0.170079 -0.573356
O51   O     O_3   0.808416 0.392199 0.820953 -0.553788
O52   O     O_3   0.178812 0.619242 0.170074 -0.573360
O53   O     O_3   0.392094 0.191474 0.821049 -0.553814
O54   O     O_3   0.619249 0.821197 0.170070 -0.573358
O55   O     O_3   0.191385 0.607981 0.821129 -0.553822
O56   O     O_R   0.045760 0.500000 0.143870 -0.548785
O57   O     O_3   0.821190 0.380759 0.170075 -0.573355
O58   O     O_3   0.607810 0.191574 0.179038 -0.553788
O59   O     O_3   0.380667 0.821289 0.829983 -0.573370
O60   O     O_3   0.808438 0.607820 0.179028 -0.553789
O61   O     O_3   0.178738 0.380691 0.829964 -0.573329
O62   O     O_3   0.392191 0.808428 0.179037 -0.553786
O63   O     O_3   0.619239 0.178812 0.829924 -0.573338
O64   O     O_3   0.191585 0.392202 0.179048 -0.553786
O65   O     O_3   0.821178 0.619231 0.829921 -0.573367
O66   O     O_3   0.107795 0.308413 0.320950 -0.553782
O67   O     O_R   0.500000 0.045760 0.856130 -0.548826
O68   O     O_3   0.880755 0.678806 0.670073 -0.573320
O69   O     O_3   0.308425 0.892191 0.320962 -0.553789
O70   O     O_3   0.678824 0.119231 0.670081 -0.573362
O71   O     O_3   0.892182 0.691565 0.320969 -0.553792
O72   O     O_3   0.119313 0.321263 0.670032 -0.573383
O73   O     O_3   0.691573 0.107808 0.320962 -0.553786
O74   O     O_3   0.321289 0.880668 0.670023 -0.573347
O75   O     O_3   0.107978 0.691393 0.678882 -0.553832
O76   O     O_3   0.880759 0.321187 0.329925 -0.573361
O77   O     O_3   0.308548 0.107919 0.678930 -0.553814
O78   O     O_R   0.500000 0.954240 0.143870 -0.548787
O79   O     O_3   0.678804 0.880752 0.329928 -0.573358
O80   O     O_3   0.892204 0.308416 0.679047 -0.553784
O81   O     O_3   0.119242 0.678810 0.329926 -0.573359
O82   O     O_3   0.691581 0.892196 0.679045 -0.553789
O83   O     O_3   0.321178 0.119232 0.329920 -0.573356
O84   O     O_R   0.045760 0.500000 0.856130 -0.548841
Zn1   Zn    Zn3+2 0.000000 0.565500 0.710070 0.924920
Zn2   Zn    Zn3+2 0.500000 0.934500 0.789930 0.924946
Zn3   Zn    Zn3+2 0.065500 0.500000 0.210070 0.924968
Zn4   Zn    Zn3+2 0.934500 0.500000 0.789930 0.924986
Zn5   Zn    Zn3+2 0.500000 0.934500 0.210070 0.924963
Zn6   Zn    Zn3+2 0.500000 0.065500 0.789930 0.924954
Zn7   Zn    Zn3+2 0.934500 0.500000 0.210070 0.924961
Zn8   Zn    Zn3+2 0.065500 0.500000 0.789930 0.924903
Zn9   Zn    Zn3+2 0.000000 0.434500 0.289930 0.924970
Zn10  Zn    Zn3+2 0.565500 1.000000 0.710070 0.924983
Zn11  Zn    Zn3+2 0.434500 0.000000 0.289930 0.924969
Zn12  Zn    Zn3+2 0.000000 0.434500 0.710070 0.924965
Zn13  Zn    Zn3+2 0.000000 0.565500 0.289930 0.924959
Zn14  Zn    Zn3+2 0.434500 1.000000 0.710070 0.924898
Zn15  Zn    Zn3+2 0.565500 0.000000 0.289930 0.924963
Zn16  Zn    Zn3+2 0.500000 0.065500 0.210070 0.924968

loop_
_geom_bond_atom_site_label_1
_geom_bond_atom_site_label_2
_ccdc_geom_bond_type
C63   H101  S    
C120  H23   S    
C126  C127  S    
C22   C29   A    
C124  O9    A    
C10   C63   A    
C150  H94   S    
C202  C237  A    
C114  C115  S    
C159  H115  S    
C200  O37   A    
C1    C254  T    
C91   H214  S    
C175  O81   S    
C48   C258  A    
C19   C30   A    
C162  O76   S    
O46   Zn15  S    
C23   C201  A    
C164  H128  S    
C211  C246  A    
C113  C210  S    
C118  H18   S    
O9    Zn15  S    
C106  C107  S    
C28   C40   A    
O20   Zn6   S    
C143  C144  S    
C161  H120  S    
C134  H58   S    
C65   H124  S    
C108  C109  S    
C30   C38   A    
C177  H160  S    
C7    C42   A    
C198  O36   A    
C182  C183  S    
C203  C238  A    
C49   H213  S    
C200  O30   A    
C92   H215  S    
C168  C242  S    
C79   O45   A    
C155  H107  S    
C128  H41   S    
C217  C252  A    
C79   C243  S    
O5    Zn11  S    
C103  H240  S    
C43   C253  A    
C178  H162  S    
C4    C56   A    
C136  H61   S    
C234  C236  A    
C120  H25   S    
C82   O50   S    
C204  C239  A    
C2    C254  S    
C110  H3    S    
C87   H206  S    
C190  O20   A    
C223  O71   S    
C149  H91   S    
C50   C53   A    
C128  H42   S    
C157  O13   A    
C51   C52   A    
C121  H27   S    
C208  C244  A    
C171  H143  S    
C140  C141  S    
O34   Zn5   S    
C161  H121  S    
C139  H69   S    
C95   O54   S    
C155  O74   S    
C29   C257  A    
C31   C37   A    
C14   C213  A    
C195  O32   A    
C213  C248  A    
C217  O65   S    
C183  C184  S    
C36   C263  A    
O22   Zn3   S    
C88   H207  S    
C14   C38   A    
C175  C176  S    
C228  C244  A    
C161  H119  S    
C143  H77   S    
O40   Zn10  S    
C148  H88   S    
C168  O14   A    
C144  H81   S    
O28   Zn8   S    
C122  H29   S    
C50   H224  S    
C231  C256  A    
O1    Zn4   S    
C181  H167  S    
C79   O84   A    
C225  O73   S    
C142  H75   S    
C119  H22   S    
O3    Zn2   S    
C146  O7    A    
C21   C28   A    
C25   C202  A    
C219  C252  A    
C190  O44   A    
C64   H113  S    
C189  C239  S    
C137  H62   S    
C165  H131  S    
C91   H212  S    
C57   C232  T    
C166  H132  S    
C96   H226  S    
O39   Zn12  S    
C158  H110  S    
C89   H210  S    
C172  O80   S    
C84   H197  S    
C8    C216  A    
C106  H249  S    
C139  C140  S    
C81   H190  S    
C109  H255  S    
C183  H172  S    
C132  H52   S    
C116  H14   S    
C130  C131  S    
C233  C239  A    
C193  C252  S    
C152  H99   S    
C108  O59   S    
C125  H34   S    
C198  C249  S    
C180  H164  S    
O12   Zn7   S    
C50   C260  A    
O1    Zn12  S    
C172  H145  S    
O47   Zn12  S    
C156  C158  S    
O35   Zn1   S    
O33   Zn9   S    
C20   C73   A    
C211  O59   S    
O2    Zn7   S    
O6    Zn10  S    
C184  H173  S    
C102  O57   S    
C230  C259  A    
C85   H200  S    
C83   H195  S    
C146  O11   A    
C155  C156  S    
C78   O49   S    
C17   C32   A    
C197  O39   A    
C111  H6    S    
C126  H37   S    
C109  C110  S    
C97   H228  S    
C231  O80   S    
C114  H9    S    
C218  O66   S    
O15   Zn7   S    
C131  H50   S    
C122  O63   S    
C21   C203  A    
C105  C106  S    
C147  C148  S    
C222  O70   S    
C23   C76   A    
O30   Zn6   S    
C123  H31   S    
O34   Zn11  S    
O29   Zn5   S    
C108  H253  S    
C139  H67   S    
C85   C86   S    
C187  O47   A    
C226  O74   S    
C124  C199  S    
O13   Zn1   S    
C5    C58   A    
C104  H244  S    
C32   C36   A    
C180  H163  S    
C181  H166  S    
C105  O58   S    
C78   C80   S    
C23   C26   A    
C170  C171  S    
C191  O21   A    
C44   C59   A    
C186  C237  S    
C192  O33   A    
O23   Zn6   S    
C165  H130  S    
C80   H187  S    
C3    C55   A    
C71   H176  S    
C106  H248  S    
C182  H170  S    
C61   C77   A    
C147  H85   S    
C82   H193  S    
C182  H169  S    
C45   H180  S    
C98   H230  S    
C89   C91   S    
C119  O62   S    
C145  H83   S    
C167  H134  S    
C174  H152  S    
C229  C258  A    
C5    C222  A    
C113  O4    A    
O44   Zn14  S    
C90   O56   A    
C90   C232  S    
C69   C70   A    
O25   Zn16  S    
C212  O60   S    
C193  O24   A    
O36   Zn11  S    
C224  C248  A    
C186  O41   A    
C24   C199  T    
O18   Zn4   S    
C138  H65   S    
C66   C72   A    
C151  H97   S    
C140  H71   S    
C141  H73   S    
C32   C260  A    
C190  C240  S    
C8    C41   A    
C133  H55   S    
C160  H118  S    
C127  H40   S    
C125  H36   S    
C129  H45   S    
C201  C236  A    
O12   Zn9   S    
C223  C247  A    
C172  H147  S    
C94   H221  S    
C205  C240  A    
C184  H175  S    
C185  O40   A    
C83   C84   S    
C102  H238  S    
C15   C67   A    
C214  C249  A    
C175  H154  S    
C141  H72   S    
C182  O83   S    
C88   C89   S    
C22   C75   A    
C227  C260  A    
C222  C250  A    
O24   Zn4   S    
C98   C99   S    
C224  O72   S    
C206  C241  A    
C57   C68   S    
C175  H153  S    
O1    Zn1   S    
C88   O52   S    
C187  C238  S    
C120  C121  S    
C162  H122  S    
C107  H251  S    
C129  C130  S    
C9    C217  A    
C64   C74   A    
C100  H237  S    
C90   O2    A    
C30   C258  A    
C28   C256  A    
C6    C59   A    
C16   C211  A    
O56   Zn3   S    
C229  O77   S    
C136  C137  S    
C26   C253  A    
C114  H8    S    
O42   Zn1   S    
C66   H135  S    
C142  H76   S    
O23   Zn2   S    
C52   C262  A    
C204  O52   S    
C22   C204  A    
C84   H196  S    
C37   C264  A    
C235  C255  A    
C118  H19   S    
C176  H155  S    
C117  C118  S    
C16   C36   A    
C49   C259  A    
C63   C75   A    
C216  C251  A    
C226  C263  A    
C134  H59   S    
C187  O18   A    
C228  O76   S    
C177  H159  S    
C102  C103  S    
C18   C33   A    
C124  O5    A    
C152  H98   S    
C174  H150  S    
C230  O79   S    
C136  O68   S    
C86   H203  S    
O17   Zn16  S    
C44   H112  S    
C150  C151  S    
C227  O75   S    
C60   H68   S    
C135  O6    A    
C11   C215  A    
C47   C56   A    
C81   H188  S    
C78   H185  S    
C99   H233  S    
C48   C55   A    
C82   H192  S    
C186  O17   A    
C218  C251  A    
O19   Zn3   S    
C197  O28   A    
C111  H7    S    
C228  C261  A    
C141  H74   S    
C227  C242  A    
C110  H4    S    
C87   H205  S    
C51   C261  A    
C2    C112  T    
O12   Zn13  S    
C94   H219  S    
C231  C238  A    
C121  H26   S    
C163  H126  S    
O32   Zn14  S    
C234  O82   S    
C35   C210  T    
C48   H202  S    
C43   H1    S    
C117  H16   S    
C233  O81   S    
C123  C125  S    
C68   C243  T    
C185  O16   A    
C33   C261  A    
C100  H234  S    
C164  H129  S    
C196  O27   A    
C12   C37   A    
C223  C264  A    
C88   H208  S    
C200  C250  S    
C6    C218  A    
C115  H12   S    
O8    Zn12  S    
C203  O51   S    
C95   C96   S    
C4    C220  A    
C85   O51   S    
C152  O73   S    
C144  H82   S    
C122  H30   S    
C80   H186  S    
O34   Zn15  S    
C15   C34   A    
C169  H139  S    
C58   H46   S    
C119  H21   S    
C135  O10   A    
C216  O64   S    
C62   H90   S    
C220  C249  A    
O45   Zn4   S    
C195  O26   A    
C62   C76   A    
C150  H93   S    
C189  O19   A    
O38   Zn13  S    
C145  C147  S    
C159  H116  S    
C226  C246  A    
C156  H109  S    
C153  H100  S    
C56   H35   S    
C91   H211  S    
C166  H133  S    
C45   C58   A    
C76   H182  S    
C158  H111  S    
C89   H209  S    
O23   Zn10  S    
C84   H198  S    
C17   C207  A    
O14   Zn8   S    
C92   O53   S    
C207  C242  A    
C126  O64   S    
O4    Zn16  S    
C86   C87   S    
C10   C214  A    
C130  H48   S    
C70   H168  S    
O67   Zn6   S    
C194  O25   A    
C10   C39   A    
C140  H70   S    
O31   Zn15  S    
C164  H127  S    
C18   C71   A    
C93   H217  S    
C125  H33   S    
C87   H204  S    
C159  C160  S    
C126  H38   S    
C95   H222  S    
C105  H245  S    
C111  O60   S    
C73   H178  S    
C184  H174  S    
C214  O62   S    
C67   H146  S    
C235  O83   S    
C194  O31   A    
C213  O61   S    
C178  H161  S    
C142  O70   S    
C196  C247  S    
C133  C134  S    
C25   C27   A    
C92   H216  S    
C134  H56   S    
C127  C128  S    
C97   H227  S    
C209  C245  A    
C7    C60   A    
C180  C181  S    
C162  C163  S    
C101  C221  S    
C149  H92   S    
C220  O69   S    
C61   H79   S    
C209  O58   S    
C121  H28   S    
C171  H144  S    
O26   Zn2   S    
C53   C263  A    
O41   Zn11  S    
C178  C180  S    
C119  C120  S    
C44   C255  A    
C108  H254  S    
O21   Zn5   S    
O43   Zn9   S    
C12   C65   A    
C151  H96   S    
C100  H236  S    
C54   C264  A    
C205  O53   S    
O7    Zn13  S    
C101  O3    A    
C181  H165  S    
C191  O46   A    
C149  C150  S    
C115  H10   S    
C183  H171  S    
C47   C257  A    
C143  H78   S    
C179  O43   A    
C128  H43   S    
C92   C93   S    
C148  H87   S    
C112  C146  S    
C111  C114  S    
C67   C71   A    
C26   C42   A    
C117  H17   S    
C151  H95   S    
O48   Zn13  S    
C104  H242  S    
O37   Zn10  S    
C45   C256  A    
C103  H241  S    
C154  H104  S    
C185  C236  S    
C82   C83   S    
C5    C40   A    
C103  C104  S    
C104  H243  S    
C196  O38   A    
C142  C143  S    
C31   C259  A    
C98   H231  S    
C35   C46   S    
C27   C255  A    
C178  O82   S    
C137  H63   S    
C202  O50   S    
C165  C166  S    
C169  C170  S    
C163  C164  S    
C206  O54   S    
C20   C206  A    
C154  H105  S    
C173  H149  S    
C173  C174  S    
C93   H218  S    
C109  H256  S    
C116  O61   S    
C138  H66   S    
C9    C42   A    
C46   C221  T    
C113  O78   A    
C193  O35   A    
C25   C77   A    
C99   H232  S    
C133  H54   S    
C127  H39   S    
C169  O79   S    
C129  H44   S    
C105  H247  S    
C49   C54   A    
C155  H106  S    
C65   C73   A    
C116  C117  S    
C85   H199  S    
C18   C208  A    
C74   H179  S    
C101  O67   A    
C144  H80   S    
O78   Zn5   S    
C51   H235  S    
C102  H239  S    
C3    C38   A    
C132  C133  S    
C6    C41   A    
C131  H51   S    
C215  C250  A    
C86   H201  S    
C97   H229  S    
C219  O68   S    
C8    C61   A    
C7    C219  A    
C167  H137  S    
C17   C70   A    
C173  H148  S    
C59   H57   S    
C235  C237  A    
C19   C72   A    
C11   C40   A    
C171  H142  S    
C225  C262  A    
C212  C247  A    
O27   Zn7   S    
C123  H32   S    
C154  H103  S    
C162  H123  S    
C130  H47   S    
C225  C245  A    
C195  C246  S    
C69   H157  S    
C72   H177  S    
C34   C262  A    
C9    C62   A    
C191  C241  S    
C12   C212  A    
C11   C64   A    
C198  O29   A    
C233  C257  A    
C156  H108  S    
C21   C74   A    
C194  C245  S    
C3    C224  A    
C148  H89   S    
C158  H114  S    
C13   C24   S    
C138  H64   S    
O10   Zn14  S    
C118  H20   S    
C176  H156  S    
O16   Zn2   S    
C27   C41   A    
C99   C100  S    
C4    C39   A    
C215  O63   S    
C129  O65   S    
C96   C97   S    
C29   C39   A    
C33   C34   A    
C14   C66   A    
C78   H184  S    
C177  H158  S    
C93   C94   S    
C152  C153  S    
C229  C240  A    
C208  O57   S    
C234  C253  A    
C145  H84   S    
C43   C60   A    
C168  O42   A    
C174  H151  S    
C149  O72   S    
C176  C177  S    
C75   H181  S    
O12   Zn3   S    
C95   H223  S    
O1    Zn8   S    
C107  H250  S    
C166  C167  S    
O23   Zn14  S    
C167  H136  S    
C135  C188  S    
C172  C173  S    
O84   Zn8   S    
C19   C205  A    
C52   H246  S    
C189  O48   A    
C132  O66   S    
C132  H53   S    
C116  H15   S    
C16   C69   A    
C179  C244  S    
C80   C81   S    
C160  H117  S    
C110  H5    S    
C201  O49   S    
C96   H225  S    
C54   H13   S    
C192  C251  S    
C137  C138  S    
C197  C248  S    
C94   H220  S    
C170  H140  S    
C160  C161  S    
C163  H125  S    
C1    C157  S    
C122  C123  S    
C179  O15   A    
C15   C209  A    
C230  C241  A    
C207  O55   S    
C81   H189  S    
O11   Zn9   S    
C47   H191  S    
C147  H86   S    
C153  H102  S    
C83   H194  S    
C131  H49   S    
C165  O77   S    
C55   H24   S    
C136  H60   S    
C53   H2    S    
C77   H183  S    
C115  H11   S    
C145  O71   S    
C159  O75   S    
C192  O22   A    
C13   C188  T    
C170  H141  S    
C98   O55   S    
C139  O69   S    
C153  C154  S    
C157  O8    A    
O34   Zn16  S    
C169  H138  S    
C107  H252  S    
C20   C31   A    
