data_mof_unit_37470.cif
_audit_creation_date              2012-12-11T15:54:41-0500
_audit_creation_method            fapswitch 2.2
_symmetry_space_group_name_H-M    P1
_symmetry_Int_Tables_number       1
_space_group_crystal_system       triclinic
_cell_length_a                    6.970334
_cell_length_b                    14.634726
_cell_length_c                    16.075472
_cell_angle_alpha                 90.054774
_cell_angle_beta                  89.723613
_cell_angle_gamma                 90.015695
_cell_volume                      1639.82178129

loop_
_atom_site_label
_atom_site_type_symbol
_atom_type_description
_atom_site_fract_x
_atom_site_fract_y
_atom_site_fract_z
_atom_type_partial_charge
O1    O     O_R   0.638180 0.333920 0.163320 -0.516901
O2    O     O_R   0.361820 0.666080 0.836680 -0.518033
O3    O     O_R   0.308470 0.344960 0.336080 -0.547801
O4    O     O_R   0.691530 0.655040 0.663920 -0.544094
O5    O     O_R   0.138140 0.166110 0.336680 -0.541409
O6    O     O_R   0.861860 0.833890 0.663320 -0.548835
C1    C     C_R   0.477699 0.367867 0.364096 0.704980
C2    C     C_R   0.522094 0.632335 0.635348 0.741141
O7    O     O_R   0.308460 0.344950 0.163930 -0.507050
O8    O     O_R   0.691540 0.655050 0.836070 -0.503823
O9    O     O_R   0.138140 0.166100 0.163310 -0.545121
O10   O     O_R   0.861860 0.833900 0.836690 -0.551855
C3    C     C_R   0.477760 0.366855 0.134796 0.809730
C4    C     C_R   0.522246 0.632530 0.864542 0.816959
O11   O     O_R   0.638180 0.333930 0.336700 -0.521572
O12   O     O_R   0.361820 0.666070 0.663300 -0.508555
O13   O     O_3   0.471670 0.191340 0.250000 -0.391143
O14   O     O_3   0.528330 0.808660 0.750000 -0.399398
V1    V     V_3+5 0.196830 0.260900 0.250000 1.508490
V2    V     V_3+5 0.803170 0.739100 0.750000 1.523950
O15   O     O_R   0.808420 0.155070 0.163920 -0.542743
O16   O     O_R   0.191580 0.844930 0.836080 -0.550455
C5    C     C_R   0.977685 0.132753 0.135160 0.715959
C6    C     C_R   0.022335 0.866995 0.865034 0.662459
O17   O     O_R   0.808420 0.155080 0.336070 -0.548056
O18   O     O_R   0.191580 0.844920 0.663930 -0.547781
C7    C     C_R   0.976534 0.133970 0.365118 0.680396
C8    C     C_R   0.024170 0.866861 0.634949 0.661598
V3    V     V_3+5 0.696830 0.239130 0.250000 1.483945
V4    V     V_3+5 0.303170 0.760870 0.750000 1.487153
O19   O     O_3   0.971850 0.308690 0.250010 -0.344640
O20   O     O_3   0.028150 0.691310 0.749990 -0.320176
H1    H     H_    0.424456 0.891501 0.287855 0.100516
H2    H     H_    0.595991 0.119592 0.715330 0.129141
C9    C     C_R   0.763352 0.157267 0.520182 -0.136016
C10   C     C_R   0.282155 0.861707 0.487756 -0.164786
C11   C     C_R   0.659813 0.170573 0.593419 -0.107390
C12   C     C_R   0.386406 0.849569 0.414466 -0.144712
C13   C     C_R   0.673701 0.107978 0.657808 -0.106084
C14   C     C_R   0.347452 0.902963 0.345577 -0.122211
C15   C     C_R   0.791464 0.031679 0.649497 -0.132039
C16   C     C_R   0.210510 0.971709 0.350889 -0.126390
C17   C     C_R   0.894571 0.014438 0.574828 0.071471
C18   C     C_R   0.110752 0.989543 0.426356 0.069642
C19   C     C_R   0.879952 0.078837 0.508529 0.068283
C20   C     C_R   0.137316 0.929330 0.494903 0.072162
C21   C     C_R   0.018980 0.937683 0.567439 -0.193742
C22   C     C_R   0.985669 0.065502 0.433631 -0.190750
H3    H     H_    0.752577 0.210451 0.473981 0.130823
H4    H     H_    0.320101 0.816870 0.537730 0.130731
H5    H     H_    0.571002 0.230764 0.600777 0.130424
H6    H     H_    0.495488 0.797021 0.410729 0.100868
H7    H     H_    0.804225 0.988483 0.703585 0.120291
H8    H     H_    0.183522 0.009929 0.294677 0.103315
C23   C     C_R   0.178414 0.973930 0.967784 -0.153836
C24   C     C_R   0.821628 0.025244 0.032853 -0.139707
H9    H     H_    0.318490 0.955230 0.943862 0.113253
H10   H     H_    0.681557 0.043929 0.056788 0.114214
C25   C     C_R   0.167506 0.037475 0.032967 -0.141650
C26   C     C_R   0.832544 0.961658 0.967698 -0.161817
H11   H     H_    0.299649 0.065805 0.056999 0.118067
H12   H     H_    0.700426 0.933239 0.943725 0.111548
C27   C     C_R   0.988941 0.064177 0.066435 -0.042327
C28   C     C_R   0.011088 0.935168 0.934071 -0.048931
C29   C     C_R   0.322628 0.467983 0.471492 -0.313142
C30   C     C_R   0.675728 0.530323 0.528292 -0.308399
H13   H     H_    0.184216 0.443396 0.451698 0.216054
H14   H     H_    0.813025 0.551208 0.551256 0.219678
C31   C     C_R   0.330390 0.534076 0.534660 0.513330
C32   C     C_R   0.667651 0.473935 0.457771 0.485574
C33   C     C_R   0.508980 0.563508 0.566509 -0.217354
C34   C     C_R   0.489840 0.437219 0.431786 -0.223126
C35   C     C_R   0.324514 0.480016 0.035368 0.438458
C36   C     C_R   0.675853 0.537297 0.978085 0.441682
C37   C     C_R   0.335705 0.525708 0.958542 0.310093
C38   C     C_R   0.665458 0.458590 0.028106 0.312506
C39   C     C_R   0.511114 0.564909 0.934085 -0.416326
C40   C     C_R   0.489598 0.436040 0.066306 -0.420631
Cl1   Cl    Cl    0.152375 0.509099 0.885260 -0.470972
Cl2   Cl    Cl    0.848571 0.376358 0.019318 -0.496659
O21   O     O_3   0.161951 0.573394 0.561836 -0.535208
C41   C     C_3   0.115840 0.644879 0.506411 -0.245237
H15   H     H_    0.037277 0.617617 0.452543 0.145460
H16   H     H_    0.243700 0.681660 0.482204 0.099725
H17   H     H_    0.021915 0.694706 0.538900 0.149918
O22   O     O_3   0.836029 0.455681 0.415323 -0.546872
C42   C     C_3   0.846443 0.513193 0.344688 -0.239108
H18   H     H_    0.803938 0.585087 0.358411 0.084347
H19   H     H_    0.756039 0.486986 0.293288 0.139331
H20   H     H_    0.997069 0.514189 0.322187 0.142439
O23   O     O_3   0.152846 0.477264 0.077711 -0.470642
C43   C     C_3   0.157135 0.544064 0.141012 -0.124079
H21   H     H_    0.188850 0.613249 0.115651 0.074789
H22   H     H_    0.262893 0.526353 0.190010 0.071802
H23   H     H_    0.013597 0.546820 0.170841 0.132838
O24   O     O_3   0.846767 0.583754 0.970852 -0.472810
C44   C     C_3   0.836114 0.663852 0.019683 -0.133350
H24   H     H_    0.726611 0.712275 0.995759 0.076774
H25   H     H_    0.976748 0.699204 0.016581 0.138244
H26   H     H_    0.805653 0.647700 0.086066 0.071191

loop_
_geom_bond_atom_site_label_1
_geom_bond_atom_site_label_2
_ccdc_geom_bond_type
C7    C22   S    
C30   H14   S    
C42   H18   S    
C8    C21   S    
C23   C25   A    
O13   V3    S    
O4    C2    A    
V1    O19   S    
C44   H24   S    
C13   C15   A    
O9    V1    S    
C36   C38   A    
C9    C11   A    
C38   C40   A    
O3    C1    A    
C11   H5    S    
C5    C27   S    
C12   H6    S    
O12   V4    S    
C26   H12   S    
C4    C39   S    
C31   C33   A    
O7    C3    A    
C3    C40   S    
O7    V1    S    
O6    C8    A    
O8    V2    S    
C29   H13   S    
C36   C39   A    
C9    H3    S    
C35   C40   A    
O3    V1    S    
O14   V4    S    
V4    O20   S    
C14   C16   A    
C6    C28   S    
O5    C7    A    
O24   C44   S    
C15   C17   A    
C16   C18   A    
O1    V3    S    
C44   H25   S    
C18   C20   A    
O11   V3    S    
O17   V3    S    
C11   C13   A    
C25   H11   S    
H1    C14   S    
H2    C13   S    
C36   O24   S    
C35   O23   S    
O8    C4    A    
O23   C43   S    
O22   C42   S    
C1    O11   A    
O15   V3    S    
C43   H23   S    
O21   C41   S    
C24   C26   A    
C29   C34   A    
C37   C39   A    
C30   C33   A    
C23   C28   A    
O10   V2    S    
C43   H22   S    
C24   C27   A    
C10   C20   A    
C17   C19   A    
C15   H7    S    
O18   V4    S    
C41   H16   S    
C23   H9    S    
O16   C6    A    
O1    C3    A    
C35   C37   A    
C10   C12   A    
C9    C19   A    
C1    C34   S    
C44   H26   S    
C10   H4    S    
V2    O20   S    
C19   C22   A    
C20   C21   A    
C2    C33   S    
O16   V4    S    
O18   C8    A    
C38   Cl2   S    
O5    V1    S    
O17   C7    A    
C41   H17   S    
O6    V2    S    
O10   C6    A    
C25   C27   A    
O2    V4    S    
C26   C28   A    
O15   C5    A    
V3    O19   S    
C16   H8    S    
C12   C14   A    
C30   C32   A    
C37   Cl1   S    
C29   C31   A    
O9    C5    A    
C43   H21   S    
O13   V1    S    
C24   H10   S    
O14   V2    S    
O2    C4    A    
C31   O21   S    
O4    V2    S    
C2    O12   A    
C41   H15   S    
C42   H20   S    
C42   H19   S    
C32   C34   A    
C17   C21   A    
C18   C22   A    
C32   O22   S    
