data_mof_unit_12221.cif
_audit_creation_date              2012-12-11T15:50:23-0500
_audit_creation_method            fapswitch 2.2
_symmetry_space_group_name_H-M    P1
_symmetry_Int_Tables_number       1
_space_group_crystal_system       triclinic
_cell_length_a                    18.930348
_cell_length_b                    11.015825
_cell_length_c                    18.767771
_cell_angle_alpha                 89.954606
_cell_angle_beta                  90.981713
_cell_angle_gamma                 90.15135
_cell_volume                      3913.11789104

loop_
_atom_site_label
_atom_site_type_symbol
_atom_type_description
_atom_site_fract_x
_atom_site_fract_y
_atom_site_fract_z
_atom_type_partial_charge
C1    C     C_R   0.274781 0.036072 0.856307 0.542379
C2    C     C_R   0.725358 0.036020 0.144024 0.543580
C3    C     C_R   0.774787 0.536058 0.856312 0.542144
C4    C     C_R   0.225355 0.536014 0.144021 0.545553
C5    C     C_3   0.506159 0.717479 0.976996 -0.126601
C6    C     C_3   0.452112 0.759429 0.032272 -0.134472
C7    C     C_3   0.006167 0.217478 0.976992 -0.126387
C8    C     C_3   0.952120 0.259425 0.032268 -0.134796
C9    C     C_R   0.235883 0.555684 0.068338 0.017094
C10   C     C_R   0.764673 0.555176 0.932565 0.010685
C11   C     C_R   0.735889 0.055698 0.068342 0.017028
C12   C     C_R   0.264666 0.055199 0.932557 0.010588
C13   C     C_R   0.281065 0.481879 0.028710 0.029191
C14   C     C_R   0.714646 0.488162 0.970309 0.027352
C15   C     C_R   0.781066 0.981887 0.028713 0.029683
C16   C     C_R   0.214643 0.988176 0.970302 0.027152
C17   C     C_R   0.286737 0.498041 0.955886 0.008911
C18   C     C_R   0.709505 0.499064 0.043689 0.009378
C19   C     C_R   0.786737 0.998049 0.955889 0.008727
C20   C     C_R   0.209502 0.999078 0.043681 0.009664
C21   C     C_R   0.187040 0.631882 0.957128 -0.166805
C22   C     C_R   0.817178 0.613975 0.046483 -0.163297
C23   C     C_R   0.687048 0.131906 0.957134 -0.166752
C24   C     C_R   0.317171 0.114003 0.046474 -0.163723
C25   C     C_R   0.184783 0.623316 0.030520 -0.159301
C26   C     C_R   0.819189 0.611554 0.972528 -0.171861
C27   C     C_R   0.684793 0.123342 0.030526 -0.159408
C28   C     C_R   0.319180 0.111585 0.972520 -0.172024
C29   C     C_3   0.357919 0.454369 0.036986 -0.269765
C30   C     C_3   0.636717 0.479856 0.960245 -0.276954
C31   C     C_3   0.857918 0.954361 0.036986 -0.269796
C32   C     C_3   0.136716 0.979850 0.960237 -0.277048
C33   C     C_3   0.364181 0.475599 0.957059 -0.275033
C34   C     C_3   0.631017 0.487580 0.041052 -0.275472
C35   C     C_3   0.864180 0.975593 0.957060 -0.275014
C36   C     C_3   0.131015 0.987579 0.041043 -0.275505
C37   C     C_R   0.243590 0.581068 0.919613 0.015463
C38   C     C_R   0.756593 0.573815 0.082035 0.015831
C39   C     C_R   0.743594 0.081082 0.919618 0.015284
C40   C     C_R   0.256588 0.073832 0.082028 0.015241
C41   C     C_R   0.496606 0.840631 0.421912 -0.014744
C42   C     C_R   0.487972 0.830515 0.571739 -0.011996
C43   C     C_R   0.016769 0.335444 0.430108 -0.014594
C44   C     C_R   0.003860 0.325507 0.578792 -0.004311
C45   C     C_R   0.468759 0.821502 0.856281 0.545430
C46   C     C_R   0.530219 0.822275 0.144340 0.542432
C47   C     C_R   0.968764 0.321503 0.856279 0.545533
C48   C     C_R   0.030222 0.322275 0.144338 0.543722
C49   C     C_R   0.465210 0.742056 0.455405 -0.006441
C50   C     C_R   0.461920 0.737573 0.527968 0.020212
C51   C     C_R   0.001315 0.227660 0.464135 -0.001138
C52   C     C_R   0.994486 0.222610 0.536091 0.009629
C53   C     C_R   0.509315 0.939686 0.539000 -0.075112
C54   C     C_R   0.509835 0.947140 0.463706 -0.061082
C55   C     C_R   0.032479 0.430639 0.548161 -0.072317
C56   C     C_R   0.035766 0.438537 0.472914 -0.062414
C57   C     C_3   0.472023 0.607036 0.449414 -0.264800
C58   C     C_3   0.471749 0.603259 0.530260 -0.253820
C59   C     C_3   0.942075 0.141536 0.449699 -0.274767
C60   C     C_3   0.933327 0.136629 0.529489 -0.242433
C61   C     C_R   0.251439 0.585554 0.422775 0.009552
C62   C     C_R   0.759297 0.578369 0.573983 0.022970
C63   C     C_R   0.743768 0.069242 0.427673 0.006499
C64   C     C_R   0.246781 0.114862 0.583900 0.013956
C65   C     C_R   0.209902 0.671770 0.454552 0.055049
C66   C     C_R   0.818083 0.570755 0.530322 0.022940
C67   C     C_R   0.698819 0.149547 0.459818 0.046729
C68   C     C_R   0.297073 0.183761 0.547856 0.017010
C69   C     C_R   0.208721 0.680407 0.527025 0.055765
C70   C     C_R   0.811644 0.575985 0.458040 -0.015591
C71   C     C_R   0.698272 0.159271 0.531878 0.056458
C72   C     C_R   0.288092 0.210585 0.477177 0.004871
C73   C     C_R   0.289041 0.512024 0.539660 -0.171821
C74   C     C_R   0.685049 0.586031 0.469720 -0.154882
C75   C     C_R   0.783916 0.997873 0.544087 -0.179727
C76   C     C_R   0.170900 0.125654 0.478541 -0.158140
C77   C     C_R   0.291241 0.505059 0.465755 -0.168945
C78   C     C_R   0.691825 0.579011 0.543468 -0.177351
C79   C     C_R   0.783695 0.987515 0.470061 -0.159895
C80   C     C_R   0.180111 0.097612 0.551304 -0.165347
C81   C     C_3   0.211147 0.805780 0.444021 -0.277127
C82   C     C_3   0.883911 0.645335 0.531087 -0.245948
C83   C     C_3   0.693077 0.282338 0.447133 -0.280683
C84   C     C_3   0.374364 0.160562 0.538991 -0.251963
C85   C     C_3   0.208805 0.815746 0.524090 -0.240423
C86   C     C_3   0.877922 0.647930 0.450786 -0.261375
C87   C     C_3   0.692232 0.294544 0.526985 -0.236504
C88   C     C_3   0.364109 0.188308 0.461103 -0.257069
C89   C     C_R   0.259885 0.635085 0.850925 0.548653
C90   C     C_R   0.740219 0.633603 0.149427 0.544160
C91   C     C_R   0.759887 0.135091 0.850928 0.547764
C92   C     C_R   0.240218 0.133607 0.149426 0.552817
C93   C     C_R   0.249298 0.603403 0.570553 0.029463
C94   C     C_R   0.745673 0.590939 0.426954 0.021062
C95   C     C_R   0.744017 0.089871 0.574767 0.017336
C96   C     C_R   0.227786 0.173649 0.439857 0.013879
C97   C     C_R   0.270383 0.049674 0.647495 0.532844
C98   C     C_R   0.728192 0.042712 0.354808 0.547156
C99   C     C_R   0.771386 0.547115 0.646703 0.538624
C100  C     C_R   0.229757 0.546613 0.353036 0.543879
C101  C     C_R   0.469304 0.823348 0.646529 0.546639
C102  C     C_R   0.529495 0.824671 0.352652 0.547636
C103  C     C_R   0.971371 0.322870 0.648272 0.546208
C104  C     C_R   0.033455 0.324352 0.354939 0.535084
C105  C     C_R   0.259923 0.638933 0.643187 0.552436
C106  C     C_R   0.739134 0.638228 0.356583 0.552583
C107  C     C_R   0.758824 0.135537 0.644780 0.541961
C108  C     C_R   0.225227 0.190663 0.363105 0.565438
C109  C     C_3   0.492390 0.946350 0.024501 -0.111398
C110  C     C_3   0.546295 0.904830 0.968243 -0.126825
C111  C     C_3   0.992394 0.446348 0.024497 -0.111731
C112  C     C_3   0.046300 0.404830 0.968239 -0.126454
C113  C     C_3   0.434044 0.871113 0.986165 -0.114251
C114  C     C_3   0.564709 0.792762 0.014314 -0.114118
C115  C     C_3   0.934050 0.371108 0.986162 -0.114353
C116  C     C_3   0.064716 0.292762 0.014310 -0.114017
C117  C     C_3   0.488551 0.829156 0.931653 0.052317
C118  C     C_3   0.510025 0.833190 0.069235 0.060166
C119  C     C_3   0.988557 0.329155 0.931650 0.052685
C120  C     C_3   0.010031 0.333189 0.069232 0.059321
Cr1   Cr    Cr6+3 0.229640 0.835880 0.747370 1.028232
Cr2   Cr    Cr6+3 0.770360 0.835880 0.252630 1.009766
Cr3   Cr    Cr6+3 0.729640 0.335880 0.747370 1.024177
Cr4   Cr    Cr6+3 0.270360 0.335880 0.252630 1.007174
Cr5   Cr    Cr6+3 0.387390 0.989720 0.750850 1.030118
Cr6   Cr    Cr6+3 0.612610 0.989720 0.249150 1.041180
Cr7   Cr    Cr6+3 0.887390 0.489720 0.750850 1.029465
Cr8   Cr    Cr6+3 0.112610 0.489720 0.249150 1.031716
Cr9   Cr    Cr6+3 0.385770 0.677220 0.749340 1.010445
Cr10  Cr    Cr6+3 0.614230 0.677220 0.250660 1.008292
Cr11  Cr    Cr6+3 0.885770 0.177220 0.749340 1.007915
Cr12  Cr    Cr6+3 0.114230 0.177220 0.250660 1.009577
H1    H     H_    0.379291 0.897610 0.972144 0.129643
H2    H     H_    0.619862 0.764774 0.026694 0.116609
H3    H     H_    0.879296 0.397595 0.972139 0.129621
H4    H     H_    0.119870 0.264776 0.026690 0.116270
H5    H     H_    0.960570 0.054404 0.426822 0.148443
H6    H     H_    0.883355 0.179152 0.546792 0.160565
H7    H     H_    0.521880 0.574229 0.426918 0.155663
H8    H     H_    0.425872 0.555098 0.552398 0.155895
H9    H     H_    0.424358 0.565712 0.424255 0.138861
H10   H     H_    0.523410 0.576788 0.554292 0.129811
H11   H     H_    0.896737 0.184582 0.420986 0.135047
H12   H     H_    0.945324 0.046016 0.552781 0.144439
H13   H     H_    0.320508 0.450650 0.572144 0.125022
H14   H     H_    0.633148 0.597869 0.446836 0.140482
H15   H     H_    0.818697 0.941488 0.576282 0.122803
H16   H     H_    0.122106 0.100548 0.451623 0.147520
H17   H     H_    0.322555 0.435169 0.441928 0.138852
H18   H     H_    0.645499 0.575929 0.576361 0.117121
H19   H     H_    0.815101 0.917483 0.446155 0.140358
H20   H     H_    0.138220 0.051897 0.579357 0.128763
H21   H     H_    0.162457 0.839835 0.416885 0.170792
H22   H     H_    0.929369 0.593345 0.551455 0.166905
H23   H     H_    0.642404 0.308669 0.420877 0.175456
H24   H     H_    0.388217 0.064104 0.548594 0.160559
H25   H     H_    0.261570 0.838986 0.421327 0.133462
H26   H     H_    0.876668 0.735754 0.556198 0.135506
H27   H     H_    0.741234 0.321274 0.422695 0.124440
H28   H     H_    0.407853 0.228469 0.567598 0.154700
H29   H     H_    0.257791 0.855983 0.547547 0.145304
H30   H     H_    0.871109 0.741122 0.429883 0.160174
H31   H     H_    0.740360 0.339930 0.548534 0.153753
H32   H     H_    0.393131 0.270810 0.444171 0.145602
H33   H     H_    0.158129 0.852311 0.543597 0.159246
H34   H     H_    0.917634 0.593366 0.422879 0.153872
H35   H     H_    0.641102 0.328168 0.547455 0.165875
H36   H     H_    0.371750 0.107306 0.426746 0.163711
H37   H     H_    0.486077 0.039761 0.045549 0.109243
H38   H     H_    0.584400 0.962138 0.939272 0.121176
H39   H     H_    0.986081 0.539758 0.045545 0.108916
H40   H     H_    0.084402 0.462136 0.939264 0.121496
H41   H     H_    0.509873 0.623384 0.957041 0.114983
H42   H     H_    0.411501 0.708474 0.061328 0.109054
H43   H     H_    0.009877 0.123383 0.957035 0.115028
H44   H     H_    0.911509 0.208464 0.061322 0.108703
H45   H     H_    0.147645 0.688200 0.931148 0.137884
H46   H     H_    0.859991 0.658990 0.074816 0.130758
H47   H     H_    0.647655 0.188231 0.931156 0.137783
H48   H     H_    0.359984 0.159017 0.074807 0.131203
H49   H     H_    0.143062 0.671455 0.057267 0.139204
H50   H     H_    0.864333 0.652597 0.947158 0.140321
H51   H     H_    0.643076 0.171489 0.057274 0.139075
H52   H     H_    0.364320 0.152635 0.947149 0.140371
H53   H     H_    0.867258 0.858779 0.052280 0.141853
H54   H     H_    0.119419 0.891148 0.938138 0.137827
H55   H     H_    0.367265 0.358789 0.052281 0.141864
H56   H     H_    0.619411 0.391161 0.938144 0.137756
H57   H     H_    0.386804 0.519700 0.071297 0.129522
H58   H     H_    0.616488 0.560081 0.930746 0.133582
H59   H     H_    0.886809 0.019687 0.071296 0.129258
H60   H     H_    0.116482 0.060067 0.930734 0.133780
H61   H     H_    0.394417 0.558251 0.943313 0.162512
H62   H     H_    0.603202 0.568816 0.060412 0.167396
H63   H     H_    0.894422 0.058240 0.943314 0.162653
H64   H     H_    0.103195 0.068810 0.060402 0.166902
H65   H     H_    0.378341 0.392402 0.927116 0.134803
H66   H     H_    0.612998 0.401116 0.065378 0.130314
H67   H     H_    0.878334 0.892394 0.927115 0.134706
H68   H     H_    0.113001 0.901112 0.065371 0.130778
O1    O     O_R   0.214300 0.709080 0.827500 -0.524551
O2    O     O_R   0.785700 0.709080 0.172500 -0.526348
O3    O     O_R   0.714300 0.209080 0.827500 -0.525690
O4    O     O_R   0.285700 0.209080 0.172500 -0.522298
O5    O     O_R   0.445900 0.919370 0.676500 -0.492520
O6    O     O_R   0.554100 0.919370 0.323500 -0.488506
O7    O     O_R   0.945900 0.419370 0.676500 -0.493256
O8    O     O_R   0.054100 0.419370 0.323500 -0.494998
O9    O     O_R   0.456660 0.717710 0.669820 -0.518739
O10   O     O_R   0.543340 0.717710 0.330180 -0.527505
O11   O     O_R   0.956660 0.217710 0.669820 -0.520432
O12   O     O_R   0.043340 0.217710 0.330180 -0.525111
O13   O     O_R   0.320590 0.625770 0.672930 -0.513224
O14   O     O_R   0.679410 0.625770 0.327070 -0.513830
O15   O     O_R   0.820590 0.125770 0.672930 -0.516544
O16   O     O_R   0.179410 0.125770 0.327070 -0.508052
O17   O     O_3   0.334270 0.834280 0.749190 -0.260321
O18   O     O_3   0.665730 0.834280 0.250810 -0.255850
O19   O     O_3   0.834270 0.334280 0.749190 -0.258709
O20   O     O_3   0.165730 0.334280 0.250810 -0.278031
O21   O     O_R   0.236190 0.958390 0.823150 -0.498870
O22   O     O_R   0.763810 0.958390 0.176850 -0.500896
O23   O     O_R   0.736190 0.458390 0.823150 -0.498835
O24   O     O_R   0.263810 0.458390 0.176850 -0.500547
O25   O     O_R   0.332090 0.075280 0.831290 -0.527624
O26   O     O_R   0.667910 0.075280 0.168710 -0.528063
O27   O     O_R   0.832090 0.575280 0.831290 -0.528152
O28   O     O_R   0.167910 0.575280 0.168710 -0.526716
O29   O     O_R   0.446280 0.918040 0.826620 -0.502878
O30   O     O_R   0.553720 0.918040 0.173380 -0.506121
O31   O     O_R   0.946280 0.418040 0.826620 -0.503085
O32   O     O_R   0.053720 0.418040 0.173380 -0.504301
O33   O     O_R   0.457080 0.716270 0.831760 -0.529371
O34   O     O_R   0.542920 0.716270 0.168240 -0.527819
O35   O     O_R   0.957080 0.216270 0.831760 -0.529119
O36   O     O_R   0.042920 0.216270 0.168240 -0.526946
O37   O     O_R   0.320980 0.624440 0.823040 -0.503168
O38   O     O_R   0.679020 0.624440 0.176960 -0.504493
O39   O     O_R   0.820980 0.124440 0.823040 -0.502759
O40   O     O_R   0.179020 0.124440 0.176960 -0.499987
O41   O     O_R   0.213880 0.710510 0.665560 -0.492980
O42   O     O_R   0.786120 0.710510 0.334440 -0.527437
O43   O     O_R   0.713880 0.210510 0.665560 -0.500410
O44   O     O_R   0.286120 0.210510 0.334440 -0.520566
O45   O     O_R   0.235800 0.959720 0.673040 -0.512862
O46   O     O_R   0.764200 0.959720 0.326960 -0.516680
O47   O     O_R   0.735800 0.459720 0.673040 -0.512223
O48   O     O_R   0.264200 0.459720 0.326960 -0.532569
O49   O     O_R   0.331670 0.076720 0.669350 -0.516763
O50   O     O_R   0.668330 0.076720 0.330650 -0.491212
O51   O     O_R   0.831670 0.576720 0.669350 -0.516243
O52   O     O_R   0.168330 0.576720 0.330650 -0.485157
C121  C     C_1   0.532796 0.042059 0.581974 0.207498
N1    N     N_1   0.551267 0.123709 0.616363 -0.300063
C122  C     C_1   0.523285 0.063841 0.430815 0.233840
N2    N     N_1   0.533009 0.157305 0.404536 -0.315316
C123  C     C_1   0.054190 0.531468 0.593133 0.193137
N3    N     N_1   0.070949 0.612062 0.629169 -0.284822
C124  C     C_1   0.049081 0.556166 0.441500 0.223336
N4    N     N_1   0.057264 0.651392 0.416872 -0.302027

loop_
_geom_bond_atom_site_label_1
_geom_bond_atom_site_label_2
_ccdc_geom_bond_type
Cr12  O40   S    
C87   H31   S    
C55   C56   A    
Cr4   O20   S    
C67   C83   S    
C29   C33   S    
C5    C114  S    
Cr1   O21   S    
C64   C80   A    
C54   C122  S    
C14   C18   A    
C89   O1    A    
C111  C112  S    
Cr12  O12   S    
C73   C93   A    
C22   H46   S    
C99   O47   A    
C115  H3    S    
Cr3   O43   S    
C28   H52   S    
C84   H28   S    
Cr7   O19   S    
C7    C8    S    
C48   C120  S    
C63   C79   A    
C53   C54   A    
C15   C19   A    
C57   H7    S    
C33   H65   S    
Cr8   O52   S    
C35   H63   S    
C17   C33   S    
C12   C28   A    
C24   C40   A    
C32   C36   S    
C13   C29   S    
C16   C20   A    
Cr6   O30   S    
C74   H14   S    
C45   O33   A    
C98   O46   A    
C63   C98   S    
Cr5   O29   S    
C42   C53   A    
C97   O45   A    
C5    C6    S    
C82   H26   S    
C72   C96   A    
C23   C39   A    
C71   C95   A    
C103  O7    A    
C59   H5    S    
C45   C117  S    
C56   C124  S    
C22   C38   A    
C31   H59   S    
Cr12  O16   S    
C2    O22   A    
C91   O3    A    
C49   C57   S    
C41   C102  S    
C46   C118  S    
C1    O21   A    
C123  N3    T    
C85   H29   S    
C105  O41   A    
Cr10  O18   S    
C9    C13   A    
C43   C104  S    
Cr9   O17   S    
C83   H27   S    
C52   C60   S    
C8    C115  S    
C93   C105  S    
Cr5   O5    S    
C11   C15   A    
C41   C49   A    
C87   H35   S    
C12   C16   A    
Cr11  O39   S    
C88   H36   S    
C7    H43   S    
C24   H48   S    
Cr6   O18   S    
C76   C80   A    
Cr4   O24   S    
C86   H30   S    
C104  O8    A    
C23   C27   A    
Cr4   O44   S    
C44   C52   A    
C4    C9    S    
Cr8   O20   S    
C23   H47   S    
C92   O4    A    
C109  C113  S    
Cr2   O46   S    
C81   C85   S    
C34   H62   S    
C47   C119  S    
C75   C95   A    
Cr2   O22   S    
C59   H11   S    
C59   C60   S    
Cr8   O32   S    
C113  H1    S    
Cr7   O27   S    
C21   H45   S    
C46   O30   A    
C107  O43   A    
Cr8   O8    S    
Cr6   O26   S    
C1    C12   S    
C45   O29   A    
C106  O42   A    
C2    O26   A    
Cr5   O25   S    
C2    C11   S    
C101  O5    A    
C110  C117  S    
C39   C91   S    
C72   C88   S    
C44   C103  S    
C25   H49   S    
C109  C118  S    
C47   O35   A    
C106  O14   A    
C63   C67   A    
C81   H25   S    
C90   O38   A    
C35   H67   S    
C51   C52   A    
C68   C84   S    
C7    C119  S    
Cr11  O19   S    
Cr7   O7    S    
C36   H68   S    
C21   C25   A    
C10   C14   A    
C3    O27   A    
C103  O11   A    
C37   C89   S    
C98   O50   A    
C30   C34   S    
C102  O10   A    
C97   O49   A    
C6    H42   S    
C101  O9    A    
C14   C30   S    
Cr3   O23   S    
Cr3   O19   S    
Cr10  O34   S    
C116  C120  S    
C76   H16   S    
C5    C117  S    
C68   C72   A    
C55   C123  S    
C20   C36   S    
C7    C116  S    
Cr4   O48   S    
Cr1   O41   S    
C36   H64   S    
C6    C113  S    
C73   H13   S    
C100  O48   A    
Cr9   O9    S    
C89   O37   A    
C66   C82   S    
C102  O6    A    
C38   C90   S    
C34   H66   S    
C65   C81   S    
C114  C118  S    
C20   C40   A    
C11   C27   A    
C88   H32   S    
Cr8   O28   S    
C31   H53   S    
Cr7   O31   S    
C10   C26   A    
C114  H2    S    
C50   C58   S    
C21   C37   A    
C53   C121  S    
C78   H18   S    
C17   C37   A    
C30   H56   S    
C40   C92   S    
C92   O40   A    
C112  H40   S    
C18   C34   S    
C75   H15   S    
C108  O16   A    
Cr11  O35   S    
C95   C107  S    
C42   C50   A    
Cr9   O13   S    
C71   C87   S    
C110  H38   S    
C47   O31   A    
C99   O51   A    
C64   C97   S    
Cr4   O4    S    
C115  C119  S    
C46   O34   A    
Cr11  O11   S    
C31   C35   S    
Cr10  O10   S    
C61   C100  S    
C51   C59   S    
C109  H37   S    
C104  O12   A    
C77   H17   S    
C122  N2    T    
C70   C86   S    
C42   C101  S    
C64   C68   A    
C112  C116  S    
C69   C85   S    
C81   H21   S    
C8    C120  S    
Cr7   O51   S    
C79   H19   S    
C113  C117  S    
C1    O25   A    
Cr11  O15   S    
C61   C77   A    
C110  C114  S    
C94   C106  S    
C3    O23   A    
C58   H10   S    
Cr2   O18   S    
C108  O44   A    
Cr9   O37   S    
C48   O36   A    
C5    H41   S    
C62   C78   A    
Cr3   O3    S    
C24   C28   A    
Cr2   O42   S    
C100  O52   A    
C107  O15   A    
C83   C87   S    
C9    C25   A    
C112  C119  S    
C111  C115  S    
C8    H44   S    
C4    O24   A    
C15   C31   S    
C116  H4    S    
C32   H54   S    
C16   C32   S    
Cr1   O17   S    
C105  O13   A    
C66   C70   A    
C69   C93   A    
C57   H9    S    
Cr6   O50   S    
C85   H33   S    
Cr2   O2    S    
Cr5   O49   S    
C18   C38   A    
Cr1   O1    S    
C48   O32   A    
C3    C10   S    
C82   C86   S    
C109  C110  S    
C60   H12   S    
Cr3   O47   S    
C62   C99   S    
C84   H24   S    
C44   C55   A    
C43   C51   A    
C57   C58   S    
C121  N1    T    
C84   C88   S    
C58   H8    S    
Cr6   O6    S    
C65   C69   A    
Cr9   O33   S    
C30   H58   S    
Cr1   O45   S    
C26   H50   S    
Cr12  O36   S    
Cr10  O14   S    
Cr10  O38   S    
C67   C71   A    
C4    O28   A    
C61   C65   A    
C96   C108  S    
C27   H51   S    
C41   C54   A    
C62   C66   A    
Cr5   O17   S    
C33   H61   S    
C13   C17   A    
C82   H22   S    
C29   H55   S    
C43   C56   A    
C83   H23   S    
C86   H34   S    
C29   H57   S    
C19   C39   A    
C49   C50   A    
C22   C26   A    
C91   O39   A    
C74   C94   A    
C70   C94   A    
C73   C77   A    
C111  C120  S    
C19   C35   S    
C32   H60   S    
Cr12  O20   S    
C80   H20   S    
C75   C79   A    
C6    C118  S    
C76   C96   A    
C124  N4    T    
C60   H6    S    
C90   O2    A    
C111  H39   S    
C74   C78   A    
