data_mof_unit_53613.cif
_audit_creation_date              2012-12-10T19:45:47-0500
_audit_creation_method            fapswitch 2.2
_symmetry_space_group_name_H-M    P1
_symmetry_Int_Tables_number       1
_space_group_crystal_system       triclinic
_cell_length_a                    10.824784
_cell_length_b                    14.689325
_cell_length_c                    14.741123
_cell_angle_alpha                 65.278494
_cell_angle_beta                  103.349962
_cell_angle_gamma                 102.827532
_cell_volume                      2050.63555641

loop_
_atom_site_label
_atom_site_type_symbol
_atom_type_description
_atom_site_fract_x
_atom_site_fract_y
_atom_site_fract_z
_atom_type_partial_charge
C1    C     C_R   0.477716 0.119525 0.312296 0.828621
C2    C     C_R   0.600989 0.783299 0.972733 -0.229898
C3    C     C_R   0.408966 0.149922 0.128059 0.592171
C4    C     C_R   0.591413 0.850129 0.871915 0.591892
C5    C     C_R   0.498721 0.290840 0.178967 -0.242325
C6    C     C_R   0.501858 0.709138 0.821083 -0.241098
C7    C     C_R   0.476880 0.360426 0.078709 0.099410
C8    C     C_R   0.523949 0.639591 0.921343 0.099063
C9    C     C_R   0.435755 0.321155 0.002146 -0.034833
C10   C     C_R   0.565111 0.678888 0.997880 -0.034135
C11   C     C_R   0.501134 0.467272 0.052079 -0.105064
C12   C     C_R   0.522349 0.880474 0.687707 0.828783
C13   C     C_R   0.499844 0.532744 0.948003 -0.105104
C14   C     C_R   0.477013 0.488641 0.875048 0.587411
C15   C     C_R   0.524081 0.511391 0.125041 0.582208
C16   C     C_R   0.262904 0.999069 0.502509 0.786355
C17   C     C_R   0.737097 0.000929 0.497497 0.786308
C18   C     C_R   0.438156 0.385549 0.901644 -0.240043
C19   C     C_R   0.562918 0.614494 0.098405 -0.236165
C20   C     C_R   0.712775 0.283478 0.669602 -0.283998
C21   C     C_R   0.286803 0.715905 0.331034 -0.272968
C22   C     C_R   0.679748 0.202507 0.639104 0.098526
C23   C     C_R   0.870556 0.001332 0.495472 -0.080590
C24   C     C_R   0.320008 0.797187 0.361094 0.090144
C25   C     C_R   0.518911 0.285202 0.509682 0.068966
C26   C     C_R   0.481356 0.714946 0.490387 0.067865
C27   C     C_R   0.548484 0.371213 0.536126 -0.049502
C28   C     C_R   0.451506 0.628581 0.464503 -0.055069
C29   C     C_R   0.647405 0.368377 0.619096 0.114725
C30   C     C_R   0.352077 0.631048 0.381972 0.132967
C31   C     C_R   0.482868 0.458374 0.484285 0.014573
C32   C     C_R   0.517193 0.541359 0.516427 0.008014
C33   C     C_R   0.615761 0.534509 0.599536 -0.184215
C34   C     C_R   0.129449 0.998666 0.504548 -0.080512
C35   C     C_R   0.383847 0.465052 0.401486 -0.199867
C36   C     C_R   0.679752 0.449762 0.650827 0.154327
C37   C     C_R   0.319537 0.549386 0.350957 0.141460
C38   C     C_R   0.352999 0.062893 0.776967 -0.118637
C39   C     C_R   0.647198 0.937305 0.222885 -0.119320
C40   C     C_R   0.266528 0.022923 0.711964 -0.103753
C41   C     C_R   0.733658 0.977222 0.287934 -0.105110
C42   C     C_R   0.185894 0.084411 0.630790 0.091764
C43   C     C_R   0.814113 0.915651 0.369193 0.091467
C44   C     C_R   0.191117 0.185747 0.617019 -0.187592
C45   C     C_R   0.906923 0.957630 0.438268 0.011022
C46   C     C_R   0.808686 0.814271 0.383042 -0.186868
C47   C     C_R   0.277149 0.225814 0.683012 0.199661
C48   C     C_R   0.722624 0.774240 0.317033 0.198252
C49   C     C_R   0.358573 0.163884 0.762483 -0.118216
C50   C     C_R   0.641425 0.836271 0.237437 -0.116406
C51   C     C_R   0.963607 0.043678 0.555697 -0.226430
C52   C     C_R   0.036394 0.956318 0.444325 -0.225659
C53   C     C_R   0.093084 0.042383 0.561745 0.010864
C54   C     C_R   0.461627 0.186753 0.204723 -0.213833
C55   C     C_R   0.538688 0.813255 0.795285 -0.213615
C56   C     C_R   0.399678 0.216764 0.027252 -0.232445
Cu1   Cu    Cu3+1 0.466270 0.918260 0.475690 0.971605
Cu2   Cu    Cu3+1 0.533730 0.081740 0.524310 0.970615
F1    F     F_    0.500410 0.541728 0.778849 -0.714513
F2    F     F_    0.500827 0.458333 0.221288 -0.715603
F3    F     F_    0.631061 0.950347 0.850118 -0.687272
F4    F     F_    0.369112 0.049731 0.149818 -0.686221
H1    H     H_    0.425983 0.193944 0.813368 0.127627
H2    H     H_    0.210495 0.720164 0.267862 0.187360
H3    H     H_    0.644838 0.593858 0.627822 0.167533
H4    H     H_    0.353156 0.405790 0.373014 0.170393
H5    H     H_    0.415114 0.015301 0.839202 0.186040
H6    H     H_    0.585242 0.984969 0.160566 0.185716
H7    H     H_    0.262617 0.944266 0.724594 0.110430
H8    H     H_    0.737713 0.055908 0.275264 0.109654
H9    H     H_    0.128029 0.233104 0.555193 0.127075
H10   H     H_    0.871622 0.766848 0.444950 0.130129
H11   H     H_    0.935226 0.075326 0.601108 0.162219
H12   H     H_    0.574031 0.806251 0.186514 0.131259
H13   H     H_    0.064767 0.924666 0.398913 0.162027
H14   H     H_    0.417006 0.355099 0.843502 0.180473
H15   H     H_    0.584157 0.644959 0.156539 0.182026
H16   H     H_    0.449657 0.684425 0.762021 0.242413
H17   H     H_    0.550922 0.315480 0.238074 0.242456
H18   H     H_    0.802127 0.516125 0.742811 0.232042
H19   H     H_    0.738696 0.395468 0.801398 0.228619
H20   H     H_    0.260228 0.544240 0.212407 0.252615
H21   H     H_    0.150360 0.489042 0.291743 0.221217
H22   H     H_    0.372952 0.365665 0.662349 0.232815
H23   H     H_    0.364503 0.186820 0.968745 0.163148
H24   H     H_    0.219356 0.365743 0.606737 0.224084
H25   H     H_    0.626465 0.634471 0.337810 0.234891
H26   H     H_    0.780035 0.634190 0.393487 0.225638
H27   H     H_    0.636198 0.813271 0.031218 0.162620
H28   H     H_    0.557298 0.721390 0.549781 0.140678
H29   H     H_    0.443441 0.279242 0.449815 0.140579
H30   H     H_    0.270182 0.862578 0.321340 0.166781
H31   H     H_    0.729544 0.137088 0.678692 0.166089
H32   H     H_    0.789184 0.278874 0.732753 0.179655
N1    N     N_R   0.584450 0.204570 0.560790 -0.192508
N2    N     N_R   0.415550 0.795430 0.439210 -0.191521
N3    N     N_3   0.777679 0.445755 0.736607 -0.588149
N4    N     N_3   0.220414 0.551721 0.266775 -0.600023
N5    N     N_3   0.280165 0.327962 0.672203 -0.589986
N6    N     N_3   0.719324 0.672013 0.327974 -0.591218
O1    O     O_R   0.455540 0.022090 0.338120 -0.528963
O2    O     O_R   0.544460 0.977910 0.661880 -0.529560
O3    O     O_R   0.512510 0.160150 0.379180 -0.594369
O4    O     O_R   0.487490 0.839850 0.620820 -0.594140
O5    O     O_R   0.291160 0.930970 0.479480 -0.592327
O6    O     O_R   0.708840 0.069030 0.520520 -0.593097
O7    O     O_R   0.348130 0.069020 0.520540 -0.581450
O8    O     O_R   0.651870 0.930980 0.479460 -0.581150

loop_
_geom_bond_atom_site_label_1
_geom_bond_atom_site_label_2
_ccdc_geom_bond_type
Cu1   O5    S    
C8    C13   A    
C23   C45   A    
H18   N3    S    
C27   C29   A    
C41   C43   A    
C22   N1    A    
C14   C18   A    
C6    C55   A    
Cu2   N1    S    
C52   H13   S    
C56   H23   S    
C33   H3    S    
C39   C41   A    
C38   C49   A    
C48   C50   A    
C7    C11   A    
C14   F1    S    
C29   C36   A    
C17   C23   S    
C49   H1    S    
C35   C37   A    
C12   O4    A    
C50   H12   S    
C42   C53   S    
C3    C54   A    
C6    H16   S    
C33   C36   A    
C47   N5    S    
C44   H9    S    
Cu2   O7    S    
C39   H6    S    
C19   H15   S    
C21   H2    S    
C16   O7    A    
C16   C34   S    
C15   C19   A    
C11   C15   A    
Cu1   N2    S    
C36   N3    S    
Cu2   O2    S    
C5    H17   S    
C1    O3    A    
C46   H10   S    
C44   C47   A    
C40   C42   A    
C13   C14   A    
H20   N4    S    
C42   C44   A    
C24   H30   S    
C37   N4    S    
C20   C29   A    
C26   N2    A    
C48   N6    S    
C46   C48   A    
C25   H29   S    
C40   H7    S    
C27   C31   A    
C5    C54   A    
C28   C32   A    
C47   C49   A    
C17   O8    A    
C5    C7    A    
C6    C8    A    
C45   C52   A    
C4    F3    S    
H21   N4    S    
C30   C37   A    
Cu2   O6    S    
C2    H27   S    
C2    C4    A    
C1    C54   S    
C12   O2    A    
C3    C56   A    
C23   C51   A    
C31   C32   A    
C10   C19   A    
Cu1   O8    S    
C9    C56   A    
H24   N5    S    
C43   C45   S    
H26   N6    S    
C16   O5    A    
C20   C22   A    
C25   N1    A    
C4    C55   A    
C22   H31   S    
C31   C35   A    
C26   H28   S    
C2    C10   A    
C1    O1    A    
H25   N6    S    
C3    F4    S    
C7    C9    A    
Cu1   O4    S    
C20   H32   S    
C18   H14   S    
H22   N5    S    
C26   C28   A    
C51   H11   S    
C25   C27   A    
Cu1   O1    S    
C21   C30   A    
C34   C52   A    
C35   H4    S    
C32   C33   A    
C24   N2    A    
C17   O6    A    
C38   C40   A    
C11   C13   A    
Cu1   Cu2   S    
H19   N3    S    
C28   C30   A    
C43   C46   A    
C12   C55   S    
C9    C18   A    
C39   C50   A    
C38   H5    S    
C34   C53   A    
C8    C10   A    
C21   C24   A    
Cu2   O3    S    
C51   C53   A    
C15   F2    S    
C41   H8    S    
