data_mof_unit_66702.cif
_audit_creation_date              2013-03-05T15:39:23-0500
_audit_creation_method            fapswitch 2.2
_symmetry_space_group_name_H-M    P1
_symmetry_Int_Tables_number       1
_space_group_crystal_system       triclinic
_cell_length_a                    20.258332
_cell_length_b                    22.726272
_cell_length_c                    8.500586
_cell_angle_alpha                 89.686431
_cell_angle_beta                  103.531215
_cell_angle_gamma                 90.31331
_cell_volume                      3804.91413601

loop_
_atom_site_label
_atom_site_type_symbol
_atom_site_description
_atom_site_fract_x
_atom_site_fract_y
_atom_site_fract_z
_atom_type_partial_charge
P1    P     P_3+3 0.859590 0.433890 0.993820 0.405603
P2    P     P_3+3 0.859590 0.566110 0.493820 0.420423
P3    P     P_3+3 0.359590 0.933890 0.993820 0.408384
P4    P     P_3+3 0.359590 0.066110 0.493820 0.425982
O1    O     O_2   0.866180 0.413660 0.823810 -0.361871
O2    O     O_2   0.866180 0.586340 0.323810 -0.364981
O3    O     O_2   0.366180 0.913660 0.823810 -0.346666
O4    O     O_2   0.366180 0.086340 0.323810 -0.370909
O5    O     O_3   0.922050 0.469730 0.097400 -0.455102
O6    O     O_3   0.922050 0.530270 0.597400 -0.425740
O7    O     O_3   0.422050 0.969730 0.097400 -0.462581
O8    O     O_3   0.422050 0.030270 0.597400 -0.415265
O9    O     O_3   0.976760 0.360270 0.628090 -0.391981
O10   O     O_3   0.976760 0.639730 0.128090 -0.414755
O11   O     O_3   0.476760 0.860270 0.628090 -0.364549
O12   O     O_3   0.476760 0.139730 0.128090 -0.417558
O13   O     O_2   0.862529 0.315269 0.685563 -0.371954
O14   O     O_2   0.864349 0.687470 0.180744 -0.371102
O15   O     O_2   0.362649 0.816759 0.689009 -0.371025
O16   O     O_2   0.365247 0.188620 0.183310 -0.376276
O17   O     O_3   0.790165 0.481339 0.937535 -0.607342
O18   O     O_3   0.790798 0.517721 0.434565 -0.594221
O19   O     O_3   0.288970 0.980130 0.935872 -0.610509
O20   O     O_3   0.293157 0.015172 0.432840 -0.592122
O21   O     O_3   0.948099 0.237000 0.641708 -0.517594
O22   O     O_3   0.953741 0.763546 0.130443 -0.532954
O23   O     O_3   0.446536 0.737952 0.651266 -0.508808
O24   O     O_3   0.454682 0.263496 0.124902 -0.542444
H1    H     H_    0.047051 0.268809 0.708304 0.136052
H2    H     H_    0.049330 0.727278 0.218475 0.147285
H3    H     H_    0.532393 0.754669 0.565313 0.056113
H4    H     H_    0.549655 0.226893 0.213988 0.129806
C1    C     C_3   0.045485 0.175219 0.672474 -0.411934
C2    C     C_3   0.058280 0.819499 0.170801 -0.407516
C3    C     C_3   0.526609 0.663222 0.632687 -0.399029
C4    C     C_3   0.559903 0.317601 0.156480 -0.461024
H5    H     H_    0.094741 0.171440 0.637614 0.135629
H6    H     H_    0.109044 0.817682 0.142363 0.138120
H7    H     H_    0.578347 0.661882 0.610044 0.119056
H8    H     H_    0.614272 0.310373 0.157943 0.124398
H9    H     H_    0.055533 0.169801 0.805548 0.236161
H10   H     H_    0.067171 0.827480 0.302984 0.226416
H11   H     H_    0.533509 0.662381 0.766208 0.228090
H12   H     H_    0.557986 0.333149 0.279044 0.220300
P5    P     P_3+3 0.140130 0.433190 0.695710 0.457901
P6    P     P_3+3 0.140130 0.566810 0.195710 0.452437
P7    P     P_3+3 0.640130 0.933190 0.695710 0.461963
P8    P     P_3+3 0.640130 0.066810 0.195710 0.454066
P9    P     P_3+3 0.085876 0.306752 0.116269 0.443464
P10   P     P_3+3 0.086807 0.692846 0.614293 0.430851
P11   P     P_3+3 0.586523 0.806991 0.115073 0.469726
P12   P     P_3+3 0.585192 0.194654 0.614509 0.432847
O25   O     O_2   0.133470 0.412980 0.865660 -0.349939
O26   O     O_2   0.133470 0.587020 0.365660 -0.349746
O27   O     O_2   0.633470 0.912980 0.865660 -0.347251
O28   O     O_2   0.633470 0.087020 0.365660 -0.350029
O29   O     O_3   0.022720 0.360150 0.061220 -0.390711
O30   O     O_3   0.022720 0.639850 0.561220 -0.369085
O31   O     O_3   0.522720 0.860150 0.061220 -0.387428
O32   O     O_3   0.522720 0.139850 0.561220 -0.371763
O33   O     O_2   0.140186 0.320842 0.020744 -0.369003
O34   O     O_2   0.139539 0.680723 0.513496 -0.378893
O35   O     O_2   0.640447 0.820975 0.018458 -0.356703
O36   O     O_2   0.639090 0.181099 0.517870 -0.371115
O37   O     O_3   0.212208 0.478571 0.738027 -0.560791
O38   O     O_3   0.211734 0.521446 0.240294 -0.560252
O39   O     O_3   0.711984 0.978818 0.738540 -0.561910
O40   O     O_3   0.711783 0.021505 0.239932 -0.558026
O41   O     O_3   0.052436 0.239478 0.031835 -0.519530
O42   O     O_3   0.051806 0.760161 0.536212 -0.544707
O43   O     O_3   0.553295 0.739244 0.032501 -0.490931
O44   O     O_3   0.552294 0.262723 0.531848 -0.544420
C5    C     C_3   0.004501 0.216377 0.112600 0.671352
C6    C     C_3   0.999886 0.777366 0.611581 0.579073
C7    C     C_3   0.508798 0.715380 0.121653 0.698833
C8    C     C_3   0.499615 0.282346 0.602020 0.554763
H13   H     H_    0.016347 0.228715 0.242068 -0.001083
H14   H     H_    0.005744 0.758374 0.734782 0.019131
H15   H     H_    0.525283 0.726669 0.251638 -0.030003
H16   H     H_    0.510056 0.272044 0.733404 0.040731
C9    C     C_3   0.004840 0.148774 0.101838 -0.409006
C10   C     C_3   0.001825 0.844463 0.626673 -0.441102
C11   C     C_3   0.507927 0.647927 0.107826 -0.402878
C12   C     C_3   0.491799 0.349460 0.579903 -0.393631
H17   H     H_    0.980936 0.135286 0.975673 0.170880
H18   H     H_    0.993184 0.864429 0.503847 0.200066
H19   H     H_    0.481185 0.635313 0.983033 0.151770
H20   H     H_    0.482219 0.360776 0.448912 0.194269
C13   C     C_3   0.193724 0.465623 0.287199 0.454743
C14   C     C_3   0.195259 0.533965 0.787556 0.456265
C15   C     C_3   0.693896 0.965629 0.286683 0.455293
C16   C     C_3   0.694589 0.034153 0.787600 0.446595
H21   H     H_    0.170456 0.469188 0.392418 0.094910
H22   H     H_    0.174918 0.529529 0.897258 0.095353
H23   H     H_    0.671115 0.969091 0.392708 0.092922
H24   H     H_    0.673216 0.029643 0.895751 0.095852
H25   H     H_    0.158016 0.443449 0.185291 0.125834
H26   H     H_    0.157604 0.556103 0.689162 0.125279
H27   H     H_    0.657837 0.943591 0.185137 0.123661
H28   H     H_    0.657585 0.056381 0.688073 0.127389
C17   C     C_3   0.257816 0.428686 0.335518 -1.001194
C18   C     C_3   0.259297 0.571695 0.827801 -1.002758
C19   C     C_3   0.757982 0.928608 0.333232 -1.000996
C20   C     C_3   0.758586 0.071836 0.831015 -0.981449
H29   H     H_    0.293524 0.448866 0.440925 0.263143
H30   H     H_    0.297475 0.551210 0.928178 0.263497
H31   H     H_    0.794129 0.948713 0.438000 0.265750
H32   H     H_    0.795780 0.051559 0.933710 0.261353
H33   H     H_    0.245302 0.383502 0.368710 0.233532
H34   H     H_    0.247581 0.616301 0.865315 0.234782
H35   H     H_    0.745617 0.883433 0.366775 0.231554
H36   H     H_    0.746413 0.116603 0.866383 0.232588
H37   H     H_    0.282937 0.425966 0.232804 0.267949
H38   H     H_    0.281085 0.575902 0.719841 0.268949
H39   H     H_    0.782532 0.925893 0.229544 0.267997
H40   H     H_    0.781772 0.075649 0.725177 0.271083
Ba1   Ba    Ba6+2 0.999900 0.456810 0.844860 1.489946
Ba2   Ba    Ba6+2 0.999900 0.543190 0.344860 1.488983
Ba3   Ba    Ba6+2 0.499900 0.956810 0.844860 1.499707
Ba4   Ba    Ba6+2 0.499900 0.043190 0.344860 1.491452
C21   C     C_3   0.764518 0.492337 0.073964 0.302227
C22   C     C_3   0.762776 0.506650 0.567462 0.320911
C23   C     C_3   0.269646 0.997544 0.075758 0.292117
C24   C     C_3   0.251939 0.014872 0.543916 0.233050
H41   H     H_    0.794043 0.528355 0.140889 0.169083
H42   H     H_    0.796229 0.476227 0.648225 0.157476
H43   H     H_    0.304984 0.031637 0.130439 0.168534
H44   H     H_    0.278436 0.991226 0.653676 0.166288
H45   H     H_    0.766853 0.453395 0.154946 0.061690
H46   H     H_    0.757156 0.547487 0.634486 0.016883
H47   H     H_    0.270786 0.960489 0.161859 0.045488
H48   H     H_    0.239954 0.060154 0.576585 0.027322
C25   C     C_3   0.690275 0.511155 0.025934 -0.450958
C26   C     C_3   0.692690 0.477778 0.514753 -0.442502
C27   C     C_3   0.198353 0.023931 0.040728 -0.450412
C28   C     C_3   0.183654 0.984469 0.471977 -0.430409
H49   H     H_    0.674239 0.524665 0.136446 0.181573
H50   H     H_    0.679668 0.456236 0.621119 0.174824
H51   H     H_    0.191907 0.046416 0.151281 0.183722
H52   H     H_    0.153106 0.984342 0.563836 0.156199
H53   H     H_    0.658833 0.472464 0.976550 0.150642
H54   H     H_    0.654622 0.512548 0.472259 0.145804
H55   H     H_    0.159978 0.988331 0.017077 0.161269
H56   H     H_    0.154845 0.010187 0.368051 0.166052
O45   O     O_3   0.077880 0.530130 0.092320 -0.454849
O46   O     O_3   0.077880 0.469870 0.592320 -0.451230
O47   O     O_3   0.577880 0.030130 0.092320 -0.455648
O48   O     O_3   0.577880 0.969870 0.592320 -0.453918
P13   P     P_3+3 0.914841 0.695563 0.070822 0.422128
P14   P     P_3+3 0.912586 0.305278 0.576126 0.447259
P15   P     P_3+3 0.414799 0.195531 0.070580 0.417098
P16   P     P_3+3 0.411810 0.805691 0.578400 0.454425
C29   C     C_3   0.015595 0.236174 0.626044 0.385868
C30   C     C_3   0.022847 0.759919 0.127889 0.391910
C31   C     C_3   0.492348 0.720481 0.560468 0.386742
C32   C     C_3   0.523375 0.258488 0.119957 0.485756
H57   H     H_    0.018079 0.246145 0.499770 -0.021444
H58   H     H_    0.028543 0.746765 0.006250 -0.019236
H59   H     H_    0.464757 0.712936 0.433138 0.024143
H60   H     H_    0.528321 0.243197 0.999373 -0.022261
H61   H     H_    0.973749 0.128936 0.180471 0.146567
H62   H     H_    0.960404 0.859285 0.682772 0.164455
H63   H     H_    0.478719 0.628106 0.190885 0.163301
H64   H     H_    0.446841 0.363649 0.624344 0.179061
C33   C     C_R   0.118144 0.642782 0.924247 -0.511557
C34   C     C_R   0.115027 0.355153 0.428482 -0.481526
C35   C     C_R   0.617354 0.143465 0.924049 -0.511434
C36   C     C_R   0.615536 0.855382 0.427666 -0.479207
C37   C     C_R   0.129840 0.690946 0.831770 0.235768
C38   C     C_R   0.128255 0.308394 0.334272 0.223468
C39   C     C_R   0.628457 0.192149 0.832162 0.236868
C40   C     C_R   0.629261 0.808903 0.333061 0.205027
C41   C     C_R   0.177760 0.733984 0.900341 -0.284949
C42   C     C_R   0.178867 0.267499 0.399850 -0.302608
C43   C     C_R   0.676854 0.234819 0.900607 -0.286735
C44   C     C_R   0.680011 0.768109 0.398719 -0.305345
C45   C     C_R   0.215490 0.729857 0.063404 0.083381
C46   C     C_R   0.216766 0.271157 0.562364 0.087066
C47   C     C_R   0.715951 0.229664 0.062226 0.088173
C48   C     C_R   0.717237 0.771346 0.561910 0.090285
C49   C     C_R   0.201819 0.679490 0.153995 -0.285603
C50   C     C_R   0.202659 0.320749 0.654079 -0.283496
C51   C     C_R   0.702363 0.179185 0.152565 -0.283160
C52   C     C_R   0.702794 0.820761 0.653858 -0.263427
C53   C     C_R   0.153128 0.636282 0.085147 0.327469
C54   C     C_R   0.152368 0.363031 0.587088 0.325125
C55   C     C_R   0.653012 0.136397 0.084500 0.320427
C56   C     C_R   0.652612 0.863129 0.586660 0.338793
C57   C     C_R   0.811145 0.268875 0.294011 -0.332147
C58   C     C_R   0.812899 0.731148 0.790957 -0.300658
C59   C     C_R   0.308638 0.770527 0.297325 -0.334053
C60   C     C_R   0.312417 0.230950 0.791332 -0.297698
C61   C     C_R   0.864961 0.307232 0.357256 0.228438
C62   C     C_R   0.866978 0.692996 0.852323 0.184492
C63   C     C_R   0.363223 0.808164 0.359880 0.190593
C64   C     C_R   0.366300 0.192615 0.852824 0.190240
C65   C     C_R   0.842566 0.363063 0.102326 0.247401
C66   C     C_R   0.841386 0.636845 0.599391 0.261198
C67   C     C_R   0.341956 0.863341 0.103355 0.251673
C68   C     C_R   0.340696 0.136508 0.600005 0.254424
C69   C     C_R   0.787773 0.324182 0.039539 -0.294560
C70   C     C_R   0.786703 0.675840 0.537930 -0.320365
C71   C     C_R   0.287012 0.824576 0.040845 -0.287111
C72   C     C_R   0.286716 0.176051 0.537579 -0.323927
C73   C     C_R   0.772095 0.274654 0.131810 0.091926
C74   C     C_R   0.772606 0.725601 0.630283 0.100943
C75   C     C_R   0.270685 0.775544 0.133984 0.115299
C76   C     C_R   0.272301 0.225557 0.630403 0.098701
C77   C     C_R   0.881907 0.351048 0.257968 -0.195763
C78   C     C_R   0.882269 0.648954 0.751697 -0.187684
C79   C     C_R   0.380876 0.851459 0.259659 -0.197717
C80   C     C_R   0.381349 0.148448 0.752491 -0.188705
H65   H     H_    0.800334 0.235785 0.375491 0.165822
H66   H     H_    0.803339 0.764514 0.872055 0.160808
H67   H     H_    0.297132 0.737932 0.379312 0.153067
H68   H     H_    0.302836 0.264271 0.872527 0.161242
H69   H     H_    0.185872 0.769211 0.821840 0.132704
H70   H     H_    0.188829 0.234188 0.319031 0.162684
H71   H     H_    0.684199 0.270596 0.822866 0.136362
H72   H     H_    0.690675 0.735212 0.317561 0.161265
H73   H     H_    0.758150 0.333980 0.919800 0.148193
H74   H     H_    0.756356 0.666350 0.419033 0.151098
H75   H     H_    0.257812 0.833977 0.920508 0.143510
H76   H     H_    0.257466 0.167277 0.417285 0.149726
H77   H     H_    0.229356 0.671570 0.276635 0.153429
H78   H     H_    0.230986 0.328691 0.775957 0.153899
H79   H     H_    0.730428 0.170846 0.274509 0.156045
H80   H     H_    0.730732 0.828458 0.776203 0.148864
H81   H     H_    0.085161 0.607731 0.866837 0.151215
H82   H     H_    0.079563 0.388626 0.373680 0.141028
H83   H     H_    0.584283 0.108507 0.866510 0.151961
H84   H     H_    0.579789 0.888699 0.372992 0.138732
N1    N     N_2   0.678179 0.558766 0.908107 -0.096734
H85   H     H_    0.677273 0.546462 0.791358 0.188413
C81   C     C_3   0.712148 0.614277 0.955757 -0.757543
H86   H     H_    0.766005 0.611663 0.948599 0.228204
H87   H     H_    0.709601 0.626080 0.080737 0.257899
H88   H     H_    0.687072 0.649502 0.872238 0.231185
N2    N     N_2   0.689351 0.435499 0.386049 -0.078388
H89   H     H_    0.641668 0.432163 0.310004 0.183833
C82   C     C_3   0.718759 0.378705 0.435781 -0.811845
H90   H     H_    0.717000 0.351709 0.327029 0.226948
H91   H     H_    0.689734 0.355682 0.513644 0.237191
H92   H     H_    0.772387 0.383697 0.502099 0.264998
N3    N     N_2   0.185832 0.065125 0.906406 -0.088539
H93   H     H_    0.188278 0.047252 0.797088 0.196004
C83   C     C_3   0.217200 0.122458 0.938139 -0.782632
H94   H     H_    0.273076 0.118538 0.961749 0.236788
H95   H     H_    0.203056 0.143118 0.043693 0.262731
H96   H     H_    0.199558 0.151331 0.831225 0.224337
N4    N     N_2   0.190051 0.924762 0.418177 -0.084886
H97   H     H_    0.201838 0.921007 0.307298 0.190298
C84   C     C_3   0.224196 0.882995 0.537616 -0.754532
H98   H     H_    0.209762 0.837599 0.494943 0.229238
H99   H     H_    0.210561 0.889739 0.655239 0.234296
H100  H     H_    0.279483 0.888595 0.553668 0.265261
N5    N     N_2   0.998986 0.129808 0.594091 -0.050905
H101  H     H_    0.985831 0.133178 0.469727 0.198005
C85   C     C_3   0.016366 0.070736 0.652152 -0.875172
H102  H     H_    0.977324 0.039470 0.586622 0.244054
H103  H     H_    0.017962 0.067426 0.783316 0.253721
H104  H     H_    0.066571 0.058370 0.631589 0.235088
N6    N     N_2   0.020211 0.867368 0.078761 -0.070095
H105  H     H_    0.994341 0.856609 0.963229 0.213805
C86   C     C_3   0.982465 0.904467 0.163855 -0.820234
H106  H     H_    0.958824 0.941012 0.083265 0.227694
H107  H     H_    0.017062 0.923949 0.272234 0.238669
H108  H     H_    0.941788 0.878675 0.200622 0.264315
N7    N     N_2   0.489182 0.611478 0.560874 -0.103928
H109  H     H_    0.518342 0.573912 0.580735 0.186336
C87   C     C_3   0.422750 0.602242 0.592944 -0.793727
H110  H     H_    0.400005 0.561273 0.532341 0.229312
H111  H     H_    0.388253 0.639140 0.543735 0.265008
H112  H     H_    0.426855 0.597535 0.724914 0.233001
N8    N     N_2   0.532230 0.361126 0.033473 -0.075572
H113  H     H_    0.569221 0.384034 0.993202 0.199788
C88   C     C_3   0.481045 0.399624 0.069411 -0.801832
H114  H     H_    0.460075 0.427770 0.962432 0.231178
H115  H     H_    0.503781 0.428417 0.173509 0.214009
H116  H     H_    0.438658 0.373805 0.097918 0.280407
N9    N     N_2   0.935415 0.388080 0.327679 -0.139890
H117  H     H_    0.971320 0.396518 0.263878 0.203734
C89   C     C_3   0.914150 0.436126 0.411218 -0.498942
H118  H     H_    0.960780 0.454156 0.486533 0.293838
H119  H     H_    0.880821 0.421977 0.491063 0.209195
H120  H     H_    0.885057 0.468641 0.327914 0.226207
N10   N     N_2   0.935756 0.610959 0.812447 -0.109512
H121  H     H_    0.980790 0.632042 0.860062 0.155982
C90   C     C_3   0.915701 0.564895 0.907824 -0.474394
H122  H     H_    0.962279 0.546571 0.982344 0.289110
H123  H     H_    0.884937 0.531712 0.830263 0.221715
H124  H     H_    0.883370 0.580221 0.988132 0.198452
N11   N     N_2   0.435202 0.887825 0.328327 -0.142745
H125  H     H_    0.470796 0.895853 0.263351 0.201975
C91   C     C_3   0.414914 0.936262 0.412028 -0.494555
H126  H     H_    0.461722 0.953920 0.487355 0.291610
H127  H     H_    0.381292 0.922686 0.491755 0.214599
H128  H     H_    0.386592 0.969060 0.328807 0.227945
N12   N     N_2   0.435211 0.110810 0.812517 -0.109836
H129  H     H_    0.480102 0.132142 0.859773 0.155111
C92   C     C_3   0.415640 0.064571 0.907817 -0.478392
H130  H     H_    0.462428 0.046223 0.981135 0.289393
H131  H     H_    0.384322 0.031624 0.830106 0.227488
H132  H     H_    0.384048 0.079827 0.989682 0.192362
C93   C     C_3   0.933129 0.238149 0.032944 -0.900460
H133  H     H_    0.896822 0.222302 0.103336 0.196473
H134  H     H_    0.931801 0.286608 0.028028 0.274524
H135  H     H_    0.916096 0.221430 0.907765 0.291249
C94   C     C_3   0.930624 0.759371 0.507694 -0.829815
H136  H     H_    0.890358 0.771462 0.569874 0.187651
H137  H     H_    0.920045 0.782510 0.389482 0.277002
H138  H     H_    0.928414 0.711434 0.486104 0.285377
C95   C     C_3   0.436468 0.737645 0.054369 -0.927064
H139  H     H_    0.402360 0.720398 0.128841 0.194196
H140  H     H_    0.435250 0.786027 0.055649 0.268964
H141  H     H_    0.416615 0.723078 0.927745 0.292186
C96   C     C_3   0.431521 0.255371 0.515213 -0.841682
H142  H     H_    0.391625 0.269107 0.576648 0.190728
H143  H     H_    0.416589 0.271029 0.388315 0.286228
H144  H     H_    0.433075 0.207103 0.514432 0.279471
N13   N     N_2   0.073373 0.125915 0.144124 -0.064023
H145  H     H_    0.078169 0.086794 0.087097 0.201851
C97   C     C_3   0.104806 0.123928 0.314904 -0.958534
H146  H     H_    0.159217 0.113218 0.332352 0.239006
H147  H     H_    0.079963 0.089673 0.374493 0.249978
H148  H     H_    0.101177 0.167015 0.371665 0.252499
N14   N     N_2   0.066765 0.864014 0.723130 -0.087662
H149  H     H_    0.107625 0.846930 0.686161 0.223390
C98   C     C_3   0.072110 0.926910 0.743668 -0.937252
H150  H     H_    0.125850 0.938759 0.794323 0.246065
H151  H     H_    0.040858 0.941766 0.827000 0.271377
H152  H     H_    0.054909 0.949480 0.625135 0.255679
N15   N     N_2   0.575955 0.624107 0.140608 -0.062383
H153  H     H_    0.578267 0.585817 0.077815 0.208037
C99   C     C_3   0.609641 0.618772 0.309588 -0.945999
H154  H     H_    0.581397 0.587542 0.370407 0.239976
H155  H     H_    0.612985 0.662038 0.369615 0.250642
H156  H     H_    0.661933 0.602235 0.321257 0.245983
N16   N     N_2   0.550845 0.381365 0.667416 -0.087565
H157  H     H_    0.595875 0.367592 0.643475 0.208994
C100  C     C_3   0.542477 0.444579 0.655795 -0.972892
H158  H     H_    0.586692 0.466531 0.734288 0.240251
H159  H     H_    0.496585 0.458117 0.696635 0.270023
H160  H     H_    0.538102 0.459532 0.529035 0.251068

loop_
_geom_bond_atom_site_label_1
_geom_bond_atom_site_label_2
_geom_bond_distance
_ccdc_geom_bond_type
C25   H49   1.108766 S    
C17   H37   1.110868 S    
C2    H10   1.111328 S    
C28   H52   1.103997 S    
P8    Ba4   3.409873 S    
O27   Ba3   2.854654 S    
C92   H130  1.088941 S    
C27   H51   1.106693 S    
C22   H46   1.111829 S    
C30   H58   1.109705 S    
C3    H7    1.109676 S    
C92   H132  1.107948 S    
C9    N13   1.448769 S    
C87   H110  1.110884 S    
C20   H40   1.110862 S    
C58   C74   1.423630 A    
C72   C76   1.447356 A    
C46   C76   1.541380 S    
O42   C6    1.411467 S    
N10   C90   1.434752 S    
P4    O8    1.588028 S    
C94   H137  1.107663 S    
P9    O41   1.756355 S    
N3    H93   1.028037 S    
C33   H81   1.079350 S    
P11   O43   1.759456 S    
C3    N7    1.453240 S    
C5    C9    1.539720 S    
O18   C22   1.398998 S    
O38   C13   1.399642 S    
C33   C37   1.395403 A    
C97   H146  1.105581 S    
O3    Ba3   2.842198 S    
N6    H105  1.029245 S    
C51   H79   1.075608 S    
C99   H155  1.104707 S    
C35   C39   1.398163 A    
C49   H77   1.075796 S    
Ba3   O48   2.960917 S    
N15   H153  1.030331 S    
Ba1   O46   2.960917 S    
P15   C64   1.882997 S    
C96   H144  1.097672 S    
C18   H38   1.110985 S    
C36   H84   1.076292 S    
H3    C31   1.114154 S    
Ba2   O46   2.851745 S    
C14   H26   1.111589 S    
C46   C50   1.441225 A    
Ba4   O48   2.851745 S    
N7    C87   1.448301 S    
C81   H87   1.110062 S    
C4    H12   1.111292 S    
C52   H80   1.076100 S    
N14   C98   1.441370 S    
C38   C42   1.401098 A    
C83   H96   1.108295 S    
N6    C86   1.446147 S    
C13   C17   1.522430 S    
C34   C54   1.394968 A    
O22   P13   1.753066 S    
C12   H20   1.113536 S    
C15   C19   1.522460 S    
C85   H103  1.110003 S    
O19   C23   1.395902 S    
O16   P15   1.548368 D    
P10   O42   1.750490 S    
P2    O18   1.751018 S    
C71   C75   1.444571 A    
O10   P13   1.773515 S    
O39   C16   1.399622 S    
O12   P15   1.773773 S    
P3    O7    1.585871 S    
C16   C20   1.522446 S    
C99   H154  1.108311 S    
C64   C80   1.400825 A    
C45   C75   1.538978 S    
H2    C30   1.111680 S    
N13   H145  1.030805 S    
O1    Ba1   2.842198 S    
C5    H13   1.107471 S    
C19   H31   1.110756 S    
C82   H91   1.110204 S    
Ba3   O47   2.855101 S    
C48   C52   1.441499 A    
O13   P14   1.546468 D    
C47   C73   1.538834 S    
O23   P16   1.745286 S    
C69   H73   1.076515 S    
C80   N12   1.388348 S    
C5    C93   1.529671 S    
C91   H127  1.108994 S    
C2    N6    1.451864 S    
Ba1   O45   2.855101 S    
C3    C31   1.534170 S    
O12   Ba4   2.826937 S    
P9    C38   1.851632 S    
C1    C29   1.527331 S    
C95   H140  1.100111 S    
C16   H24   1.108117 S    
C77   N9    1.389015 S    
C24   H48   1.110181 S    
N5    H101  1.030532 S    
C14   C18   1.522714 S    
P12   O32   1.754656 S    
H4    C32   1.112062 S    
C93   H134  1.102089 S    
C66   C70   1.421393 A    
C42   H70   1.076126 S    
P10   C37   1.850638 S    
C3    H11   1.110720 S    
N1    H85   1.028555 S    
C27   H55   1.105049 S    
P5    O25   1.549036 D    
C88   H114  1.110162 S    
C89   H120  1.094804 S    
O5    Ba2   2.855971 S    
C98   H151  1.109703 S    
O7    Ba4   2.855971 S    
N15   C99   1.443617 S    
C100  H159  1.111223 S    
C31   H59   1.109608 S    
C32   H60   1.110782 S    
C20   H36   1.107729 S    
P1    Ba1   3.408089 S    
C8    C96   1.530560 S    
C10   H62   1.112237 S    
C23   C27   1.529851 S    
C97   H147  1.107515 S    
C21   H41   1.091759 S    
N11   H125  1.020863 S    
C62   C78   1.402222 A    
O8    Ba3   2.852591 S    
N1    C81   1.447353 S    
C23   H43   1.082165 S    
C68   C72   1.420928 A    
C90   H122  1.089374 S    
N2    C82   1.443660 S    
C59   C75   1.425390 A    
C79   N11   1.389131 S    
C7    C95   1.530696 S    
P3    Ba3   3.408089 S    
C34   C38   1.398320 A    
C2    C30   1.534277 S    
N12   C92   1.433233 S    
P5    O37   1.751271 S    
C81   H88   1.110150 S    
C1    N5    1.448997 S    
P5    Ba1   3.416941 S    
Ba2   O45   2.965001 S    
P1    C65   1.920195 S    
C8    H16   1.110872 S    
C84   H100  1.102899 S    
O28   Ba4   2.844987 S    
N9    C89   1.427899 S    
C82   H92   1.106217 S    
C88   H115  1.111612 S    
C6    C94   1.527658 S    
Ba1   Ba2   4.671982 S    
C7    H15   1.108040 S    
C45   C49   1.437588 A    
O11   Ba3   2.838587 S    
C13   H21   1.107820 S    
C66   C78   1.391951 A    
C59   C63   1.398795 A    
C15   H23   1.107835 S    
C57   C61   1.399265 A    
P4    C68   1.924852 S    
O24   P15   1.752512 S    
C88   H116  1.109347 S    
C89   H118  1.088928 S    
C69   C73   1.444309 A    
C15   H27   1.111409 S    
C9    H17   1.112487 S    
C40   C44   1.401514 A    
C87   H112  1.109936 S    
C11   H19   1.110725 S    
C36   C56   1.395685 A    
C26   N2    1.449468 S    
C27   N3    1.449093 S    
N2    H89   1.031638 S    
C8    C12   1.540253 S    
P2    Ba2   3.414948 S    
N4    H97   1.029122 S    
C16   H28   1.111575 S    
P1    O1    1.554343 D    
C60   C64   1.400775 A    
P7    O27   1.549036 D    
P11   C40   1.853357 S    
O9    P14   1.779530 S    
P6    O38   1.750847 S    
P3    O3    1.554343 D    
P4    O20   1.755885 S    
C94   H138  1.104702 S    
C17   H33   1.107171 S    
P8    O47   1.592330 S    
C90   H124  1.109359 S    
P6    Ba2   3.409873 S    
C19   H35   1.107004 S    
C50   C54   1.420873 A    
C96   H143  1.107263 S    
C59   H67   1.075766 S    
C57   C73   1.425794 A    
C81   H86   1.108791 S    
O41   C5    1.411538 S    
C42   C46   1.417410 A    
O44   C8    1.414087 S    
C24   H44   1.100336 S    
C92   H131  1.097102 S    
C34   H82   1.075793 S    
C2    H6    1.111132 S    
N7    H109  1.031312 S    
C67   C71   1.419518 A    
C78   N10   1.389189 S    
C6    C10   1.530467 S    
O11   P16   1.782135 S    
C14   H22   1.108117 S    
C83   H95   1.110876 S    
O23   C31   1.399027 S    
O37   C14   1.399338 S    
P9    O33   1.543942 D    
C24   C28   1.537306 S    
O21   C29   1.404714 S    
P10   O30   1.747705 S    
P1    O5    1.585871 S    
P8    C55   1.886102 S    
P12   O36   1.545355 D    
C91   H126  1.088471 S    
C86   H107  1.111276 S    
C50   H78   1.076085 S    
C94   H136  1.107300 S    
C1    H5    1.109272 S    
C19   H39   1.110908 S    
N12   H129  1.024590 S    
P14   C61   1.885187 S    
C51   C55   1.415878 A    
C26   H54   1.105802 S    
N16   H157  1.030661 S    
C57   H65   1.075507 S    
P6    O26   1.554154 D    
P11   O35   1.543380 D    
C25   N1    1.452651 S    
P8    O40   1.750783 S    
N3    C83   1.445300 S    
C18   H34   1.107827 S    
C20   H32   1.110753 S    
C4    C32   1.528044 S    
O29   Ba1   2.826822 S    
C11   H63   1.113832 S    
O31   Ba3   2.826822 S    
C23   H47   1.109475 S    
C9    H61   1.112382 S    
C21   H45   1.112623 S    
C99   H156  1.108168 S    
O9    Ba1   2.838587 S    
Ba3   Ba4   4.671982 S    
P8    O28   1.554154 D    
C25   H53   1.108111 S    
C1    H9    1.107803 S    
N14   H149  1.030181 S    
C28   H56   1.104298 S    
C10   H18   1.112121 S    
C7    C11   1.537785 S    
C95   H139  1.109427 S    
C84   H98   1.110243 S    
O32   Ba4   2.838512 S    
P6    C53   1.881593 S    
C29   H57   1.108420 S    
C36   C40   1.398904 A    
Ba4   O47   2.965001 S    
C93   H133  1.108796 S    
C6    H14   1.111136 S    
O6    Ba1   2.852591 S    
P1    O17   1.750963 S    
C89   H119  1.108881 S    
C98   H150  1.105371 S    
C70   H74   1.075246 S    
P3    O19   1.753482 S    
O30   Ba2   2.838512 S    
P4    O4    1.549223 D    
C85   H104  1.109424 S    
P9    O29   1.749051 S    
C100  H158  1.102509 S    
C68   C80   1.390667 A    
P12   O44   1.763858 S    
N8    C88   1.447444 S    
C82   H90   1.105829 S    
O25   Ba1   2.854654 S    
P5    C54   1.893108 S    
N4    C84   1.441613 S    
P6    O45   1.592330 S    
O20   C24   1.399151 S    
O40   C15   1.399506 S    
C22   C26   1.530521 S    
N10   H121  1.024835 S    
N13   C97   1.442933 S    
P3    C67   1.923090 S    
C28   N4    1.450399 S    
C65   C69   1.419502 A    
O14   P13   1.548085 D    
C41   H69   1.075753 S    
C86   H106  1.110428 S    
C4    N8    1.451383 S    
C12   H64   1.114343 S    
P7    Ba3   3.416941 S    
C12   N16   1.445683 S    
C72   H76   1.074206 S    
C60   C76   1.423869 A    
P2    O2    1.549223 D    
C48   C74   1.542025 S    
P12   C39   1.853419 S    
P7    O39   1.751097 S    
C91   H128  1.092805 S    
C47   C51   1.437847 A    
C17   H29   1.110867 S    
C71   H75   1.076014 S    
P5    O46   1.594513 S    
C4    H8    1.111658 S    
C84   H99   1.109454 S    
C49   C53   1.416082 A    
C95   H141  1.108966 S    
C43   C47   1.420768 A    
O10   Ba2   2.826937 S    
N9    H117  1.020763 S    
C39   C43   1.403218 A    
C33   C53   1.392898 A    
C52   C56   1.421217 A    
C13   H25   1.111411 S    
O21   P14   1.746786 S    
N5    C85   1.444458 S    
C22   H42   1.091275 S    
C63   C79   1.396922 A    
P13   C62   1.884465 S    
C44   C48   1.417562 A    
C61   C77   1.394423 A    
C41   C45   1.420555 A    
C93   H135  1.107662 S    
C35   C55   1.394899 A    
O15   P16   1.543610 D    
C10   N14   1.446813 S    
C11   N15   1.448014 S    
C58   H66   1.075901 S    
N16   C100  1.447636 S    
N8    H113  1.031323 S    
O26   Ba2   2.844987 S    
P10   O34   1.544454 D    
C98   H152  1.109858 S    
O22   C30   1.408086 S    
P11   O31   1.753247 S    
C44   H72   1.076432 S    
C85   H102  1.110305 S    
P2    O6    1.588028 S    
O4    Ba4   2.851728 S    
H1    C29   1.112255 S    
C100  H160  1.111778 S    
C87   H111  1.110096 S    
P7    O48   1.594513 S    
C37   C41   1.403541 A    
P16   C63   1.888473 S    
P2    C66   1.924246 S    
C43   H71   1.076458 S    
C26   H50   1.110033 S    
C83   H94   1.106413 S    
C35   H83   1.079047 S    
C97   H148  1.104356 S    
N11   C91   1.427312 S    
O43   C7    1.410991 S    
C90   H123  1.095364 S    
O2    Ba2   2.851728 S    
C18   H30   1.110735 S    
C67   C79   1.402906 A    
O17   C21   1.401409 S    
C96   H142  1.107006 S    
C86   H108  1.110659 S    
C65   C77   1.401852 A    
C58   C62   1.400767 A    
C70   C74   1.447376 A    
O24   C32   1.407294 S    
P4    Ba4   3.414948 S    
C21   C25   1.526260 S    
P7    C56   1.894377 S    
C60   H68   1.075879 S    
