data_mof_unit_7936.cif
_audit_creation_date              2012-12-10T17:00:03-0500
_audit_creation_method            fapswitch 2.2
_symmetry_space_group_name_H-M    P1
_symmetry_Int_Tables_number       1
_space_group_crystal_system       triclinic
_cell_length_a                    15.010049
_cell_length_b                    15.308804
_cell_length_c                    10.080608
_cell_angle_alpha                 88.591909
_cell_angle_beta                  91.118236
_cell_angle_gamma                 89.749528
_cell_volume                      2315.21379665

loop_
_atom_site_label
_atom_site_type_symbol
_atom_type_description
_atom_site_fract_x
_atom_site_fract_y
_atom_site_fract_z
_atom_type_partial_charge
C1    C     C_R   0.382828 0.880418 0.500284 1.012121
C2    C     C_2   0.743437 0.199356 0.391379 0.466171
C3    C     C_2   0.270269 0.332238 0.450761 0.398711
C4    C     C_2   0.243442 0.699352 0.391383 0.466184
C5    C     C_2   0.694828 0.824755 0.518083 -0.474386
C6    C     C_2   0.700305 0.168374 0.499018 -0.448525
C7    C     C_2   0.194825 0.324752 0.518084 -0.474367
C8    C     C_2   0.200305 0.668374 0.499020 -0.448539
C9    C     C_2   0.340179 0.270261 0.487013 0.269318
C10   C     C_2   0.324253 0.746523 0.419129 0.378695
C11   C     C_2   0.840180 0.770261 0.487003 0.269307
C12   C     C_R   0.381489 0.118564 0.497633 0.982257
C13   C     C_2   0.824250 0.246525 0.419119 0.378721
C14   C     C_2   0.316953 0.186029 0.488075 -0.458498
C15   C     C_2   0.316926 0.814755 0.498490 -0.484579
C16   C     C_2   0.816953 0.686029 0.488075 -0.458505
C17   C     C_2   0.816928 0.314753 0.498491 -0.484606
C18   C     C_2   0.573056 0.004425 0.927823 0.124119
C19   C     C_2   0.073056 0.504425 0.927823 0.124125
C20   C     C_2   0.571293 0.009056 0.077419 0.007725
C21   C     C_2   0.071293 0.509056 0.077419 0.007712
C22   C     C_3   0.664480 0.011561 0.866465 -0.377191
C23   C     C_R   0.882829 0.380417 0.500284 1.012094
C24   C     C_3   0.732349 0.944918 0.923675 -0.389972
C25   C     C_3   0.813171 0.936807 0.834886 -0.725764
C26   C     C_3   0.164480 0.511560 0.866465 -0.377198
C27   C     C_3   0.232348 0.444916 0.923676 -0.389975
C28   C     C_3   0.313168 0.436801 0.834884 -0.725717
C29   C     C_R   0.881488 0.618564 0.497633 0.982247
C30   C     C_R   0.620818 0.116964 0.498965 1.044987
C31   C     C_R   0.620964 0.883378 0.503056 1.041179
C32   C     C_R   0.120819 0.616964 0.498965 1.044989
C33   C     C_R   0.120963 0.383377 0.503056 1.041158
C34   C     C_2   0.770269 0.832238 0.450753 0.398724
H1    H     H_    0.693047 0.780940 0.604869 0.155112
H2    H     H_    0.940269 0.499873 0.896041 0.163211
H3    H     H_    0.633392 0.018620 0.130475 0.238967
H4    H     H_    0.133392 0.518620 0.130474 0.238967
H5    H     H_    0.441888 0.986707 0.100911 0.174812
H6    H     H_    0.941888 0.486708 0.100911 0.174821
H7    H     H_    0.886893 0.936880 0.174640 0.387528
H8    H     H_    0.734607 0.292240 0.056587 0.384783
H9    H     H_    0.386898 0.436884 0.174655 0.387571
H10   H     H_    0.234757 0.792168 0.056561 0.384767
H11   H     H_    0.485869 0.261527 0.343637 0.386591
H12   H     H_    0.730570 0.176339 0.597103 0.128102
H13   H     H_    0.475556 0.592898 0.266004 0.391770
H14   H     H_    0.985865 0.761514 0.343616 0.386581
H15   H     H_    0.975413 0.092995 0.265522 0.391729
H16   H     H_    0.792774 0.911707 0.736525 0.261028
H17   H     H_    0.845666 0.001359 0.820997 0.274914
H18   H     H_    0.862148 0.890415 0.881723 0.280612
H19   H     H_    0.756748 0.967276 0.021344 0.287702
H20   H     H_    0.700825 0.879649 0.935141 0.271288
H21   H     H_    0.660607 0.000741 0.760348 0.266354
H22   H     H_    0.690328 0.078690 0.880672 0.223020
H23   H     H_    0.193041 0.280934 0.604866 0.155108
H24   H     H_    0.292769 0.411699 0.736526 0.261020
H25   H     H_    0.345664 0.501353 0.820989 0.274919
H26   H     H_    0.362145 0.390410 0.881722 0.280611
H27   H     H_    0.256750 0.467276 0.021343 0.287717
H28   H     H_    0.200823 0.379649 0.935146 0.271280
H29   H     H_    0.160608 0.500741 0.760348 0.266356
H30   H     H_    0.190329 0.578689 0.880673 0.223012
H31   H     H_    0.230567 0.676342 0.597107 0.128101
H32   H     H_    0.250343 0.166428 0.456677 0.163010
H33   H     H_    0.255352 0.829069 0.549058 0.159215
H34   H     H_    0.750341 0.666427 0.456688 0.162984
H35   H     H_    0.755358 0.329063 0.549071 0.159210
H36   H     H_    0.440269 0.999873 0.896041 0.163208
N1    N     N_2   0.501330 1.000000 0.852150 -0.196128
N2    N     N_2   0.001330 0.500000 0.852150 -0.196126
N3    N     N_2   0.501360 1.000000 0.147810 -0.194147
N4    N     N_2   0.001360 0.500000 0.147810 -0.194146
O1    O     O_R   0.409520 0.909540 0.613040 -0.618897
O2    O     O_R   0.590440 0.909540 0.613100 -0.664268
O3    O     O_R   0.090440 0.590460 0.613100 -0.638873
O4    O     O_R   0.090440 0.409540 0.613100 -0.664274
O5    O     O_R   0.590480 0.090460 0.386960 -0.555337
O6    O     O_R   0.590480 0.909540 0.386960 -0.520443
O7    O     O_R   0.090480 0.590460 0.386960 -0.555346
O8    O     O_R   0.090480 0.409540 0.386960 -0.520439
O9    O     O_2   0.718245 0.866940 0.204368 -0.338330
O10   O     O_2   0.759202 0.992010 0.340833 -0.282390
O11   O     O_3   0.886348 0.895091 0.251172 -0.496815
O12   O     O_R   0.409520 0.090460 0.613040 -0.572523
O13   O     O_2   0.749461 0.129625 0.150336 -0.289810
O14   O     O_2   0.608239 0.201856 0.201354 -0.289658
O15   O     O_3   0.744881 0.297863 0.153358 -0.517195
O16   O     O_2   0.218252 0.366949 0.204376 -0.338333
O17   O     O_2   0.259205 0.492013 0.340856 -0.282378
O18   O     O_3   0.386354 0.395100 0.251194 -0.496858
O19   O     O_2   0.249476 0.629610 0.150351 -0.289788
O20   O     O_2   0.108253 0.701850 0.201344 -0.289588
O21   O     O_3   0.244900 0.797850 0.153355 -0.517165
O22   O     O_2   0.443243 0.405513 0.555075 -0.220446
O23   O     O_R   0.909520 0.409540 0.613040 -0.618897
O24   O     O_2   0.477870 0.263517 0.661429 -0.277941
O25   O     O_3   0.520973 0.288662 0.415632 -0.482229
O26   O     O_2   0.441999 0.766555 0.223280 -0.240310
O27   O     O_2   0.501475 0.723335 0.443841 -0.333745
O28   O     O_3   0.417903 0.606796 0.306933 -0.460333
O29   O     O_2   0.943248 0.905514 0.555047 -0.220357
O30   O     O_2   0.977880 0.763519 0.661403 -0.277953
O31   O     O_3   0.020970 0.788660 0.415600 -0.482185
O32   O     O_2   0.941967 0.266569 0.223241 -0.240442
O33   O     O_2   0.001478 0.223346 0.443780 -0.333556
O34   O     O_R   0.909520 0.590460 0.613040 -0.572523
O35   O     O_3   0.917895 0.106805 0.306898 -0.460313
O36   O     O_R   0.409560 0.909540 0.386900 -0.562939
O37   O     O_R   0.409560 0.090460 0.386900 -0.623786
O38   O     O_R   0.909560 0.409540 0.386900 -0.562927
O39   O     O_R   0.909560 0.590460 0.386900 -0.623795
O40   O     O_R   0.590440 0.090460 0.613100 -0.638877
S1    S     S_3+6 0.782000 0.899584 0.308271 0.054878
S2    S     S_3+6 0.707513 0.203850 0.221451 0.091494
S3    S     S_3+6 0.282005 0.399589 0.308286 0.054883
S4    S     S_3+6 0.207526 0.703841 0.221453 0.091544
S5    S     S_3+6 0.447309 0.308684 0.534465 0.081452
S6    S     S_3+6 0.425335 0.712531 0.346756 0.099402
S7    S     S_3+6 0.947313 0.808684 0.534441 0.081490
S8    S     S_3+6 0.925325 0.212540 0.346720 0.099451
Zn1   Zn    Zn3+2 0.499970 1.000000 0.650990 0.993168
Zn2   Zn    Zn3+2 0.999970 0.500000 0.650990 0.993165
Zn3   Zn    Zn3+2 0.500030 1.000000 0.349010 1.091591
Zn4   Zn    Zn3+2 0.000030 0.500000 0.349010 1.091587

loop_
_geom_bond_atom_site_label_1
_geom_bond_atom_site_label_2
_ccdc_geom_bond_type
C17   H35   S    
C13   S8    S    
O7    Zn4   S    
O22   S5    D    
C26   H29   S    
O24   S5    D    
C11   S7    S    
C32   O7    A    
C26   C27   S    
C17   C23   S    
O1    Zn1   S    
N1    Zn1   S    
C19   C21   S    
C23   O38   A    
O23   Zn2   S    
C3    C7    D    
C10   C15   D    
O35   S8    S    
O6    Zn3   S    
C24   H20   S    
C2    C13   S    
C19   C26   S    
C26   H30   S    
C25   H16   S    
O8    Zn4   S    
C27   H27   S    
C32   O3    A    
C2    S2    S    
C21   H4    S    
O37   Zn3   S    
O17   S3    D    
C29   O34   A    
H36   N1    S    
C1    C15   S    
C3    S3    S    
C33   O8    A    
O38   Zn4   S    
C4    C8    D    
O5    Zn3   S    
O15   S2    S    
O27   S6    D    
C8    H31   S    
H13   O28   S    
N2    Zn2   S    
C7    C33   S    
C4    S4    S    
C19   N2    D    
C2    C6    D    
O34   Zn2   S    
C28   H26   S    
O21   S4    S    
C8    C32   S    
O16   S3    D    
O9    S1    D    
O11   S1    S    
C24   C25   S    
C31   O6    A    
H11   O25   S    
C22   H22   S    
O30   S7    D    
C24   H19   S    
C21   N4    D    
C1    O1    A    
O14   S2    D    
C9    C14   D    
C25   H17   S    
C3    C9    S    
C27   H28   S    
C1    O36   A    
C11   C16   D    
H14   O31   S    
C15   H33   S    
C5    C34   D    
O32   S8    D    
C14   H32   S    
O31   S7    S    
O13   S2    D    
O18   S3    S    
C16   H34   S    
C30   O5    A    
C23   O23   A    
C12   C14   S    
O10   S1    D    
C9    S5    S    
C22   C24   S    
O19   S4    D    
O40   Zn1   S    
C4    C10   S    
O29   S7    D    
O12   Zn1   S    
O28   S6    S    
H15   O35   S    
C30   O40   A    
C28   H25   S    
C18   N1    D    
C29   O39   A    
C6    H12   S    
C6    C30   S    
C18   C22   S    
O2    Zn1   S    
C11   C34   S    
C22   H21   S    
O39   Zn4   S    
C28   H24   S    
H7    O11   S    
H9    O18   S    
C12   O12   A    
H8    O15   S    
C34   S1    S    
C25   H18   S    
H10   O21   S    
C20   H3    S    
O20   S4    D    
C31   O2    A    
N4    Zn4   S    
N3    Zn3   S    
C5    H1    S    
H6    N4    S    
C20   N3    D    
C18   C20   S    
H5    N3    S    
O26   S6    D    
C33   O4    A    
C10   S6    S    
O36   Zn3   S    
O25   S5    S    
C13   C17   D    
C16   C29   S    
C27   C28   S    
O3    Zn2   S    
O33   S8    D    
C7    H23   S    
C12   O37   A    
H2    N2    S    
O4    Zn2   S    
C5    C31   S    
