data_mof_unit_34241.cif
_audit_creation_date              2012-12-11T15:41:09-0500
_audit_creation_method            fapswitch 2.2
_symmetry_space_group_name_H-M    P1
_symmetry_Int_Tables_number       1
_space_group_crystal_system       triclinic
_cell_length_a                    19.317705
_cell_length_b                    11.065584
_cell_length_c                    18.767563
_cell_angle_alpha                 90.000789
_cell_angle_beta                  89.695316
_cell_angle_gamma                 90.099559
_cell_volume                      4011.72315492

loop_
_atom_site_label
_atom_site_type_symbol
_atom_type_description
_atom_site_fract_x
_atom_site_fract_y
_atom_site_fract_z
_atom_type_partial_charge
C1    C     C_R   0.725417 0.957935 0.854377 0.551956
C2    C     C_R   0.274523 0.957796 0.145763 0.558198
C3    C     C_R   0.225415 0.457934 0.854377 0.557438
C4    C     C_R   0.774520 0.457794 0.145766 0.551281
C5    C     C_R   0.695823 0.411104 0.043363 -0.006090
C6    C     C_R   0.304573 0.418747 0.957477 -0.005575
C7    C     C_R   0.195815 0.911235 0.043344 -0.005971
C8    C     C_R   0.804570 0.918568 0.957458 -0.005143
C9    C     C_R   0.687705 0.400625 0.970224 0.000667
C10   C     C_R   0.312420 0.408622 0.030697 0.001187
C11   C     C_R   0.187702 0.900761 0.970202 0.001666
C12   C     C_R   0.812421 0.908440 0.030675 0.000863
C13   C     C_R   0.811798 0.412608 0.953185 0.103320
C14   C     C_R   0.187980 0.407973 0.046387 0.107690
C15   C     C_R   0.311804 0.912529 0.953186 0.104344
C16   C     C_R   0.687985 0.908080 0.046395 0.106616
C17   C     C_R   0.819454 0.415895 0.026822 -0.136518
C18   C     C_R   0.180883 0.408115 0.972633 -0.135542
C19   C     C_R   0.319453 0.915753 0.026827 -0.137253
C20   C     C_R   0.680876 0.908295 0.972645 -0.134971
C21   C     C_3   0.634791 0.491625 0.051216 -0.280902
C22   C     C_3   0.362366 0.506900 0.950491 -0.279334
C23   C     C_3   0.134850 0.991919 0.051171 -0.280957
C24   C     C_3   0.862468 0.006500 0.950440 -0.279119
C25   C     C_3   0.625114 0.479951 0.971481 -0.271139
C26   C     C_3   0.371862 0.495402 0.030230 -0.273023
C27   C     C_3   0.125172 0.980232 0.971438 -0.271310
C28   C     C_3   0.871959 0.995019 0.030184 -0.273464
C29   C     C_R   0.745105 0.407452 0.924292 0.040413
C30   C     C_R   0.254458 0.409102 0.075998 0.039651
C31   C     C_R   0.245114 0.907479 0.924284 0.041718
C32   C     C_R   0.754470 0.909075 0.075993 0.038565
C33   C     C_R   0.505507 0.176065 0.423014 0.004734
C34   C     C_R   0.507908 0.166753 0.572117 0.010326
C35   C     C_R   0.006700 0.663991 0.421945 0.013914
C36   C     C_R   0.004782 0.675747 0.571819 0.008827
C37   C     C_R   0.499394 0.280439 0.464748 0.027374
C38   C     C_R   0.498553 0.274309 0.537278 0.108645
C39   C     C_R   0.037614 0.761698 0.456667 0.009991
C40   C     C_R   0.030267 0.769467 0.529462 0.058684
C41   C     C_R   0.522627 0.063701 0.531542 -0.182794
C42   C     C_R   0.525463 0.069155 0.456616 -0.182774
C43   C     C_R   0.984355 0.569859 0.537831 -0.189166
C44   C     C_R   0.989354 0.562704 0.463196 -0.176179
C45   C     C_R   0.530199 0.178286 0.850536 0.553481
C46   C     C_R   0.469897 0.178422 0.149526 0.555710
C47   C     C_R   0.030209 0.678286 0.850544 0.555525
C48   C     C_R   0.969904 0.678422 0.149531 0.554189
C49   C     C_3   0.442476 0.371046 0.467484 -0.215671
C50   C     C_3   0.441619 0.362023 0.547142 -0.283377
C51   C     C_3   0.030024 0.895739 0.449361 -0.249858
C52   C     C_3   0.008271 0.897545 0.526846 -0.241516
C53   C     C_R   0.747678 0.396943 0.418533 -0.026582
C54   C     C_R   0.230227 0.468369 0.565740 -0.030123
C55   C     C_R   0.273049 0.974048 0.434829 -0.031122
C56   C     C_R   0.752908 0.894479 0.582487 -0.023567
C57   C     C_R   0.796748 0.331723 0.456548 -0.013584
C58   C     C_R   0.184397 0.395040 0.529899 -0.025901
C59   C     C_R   0.320946 0.907841 0.472619 -0.027339
C60   C     C_R   0.707630 0.816354 0.547145 0.000984
C61   C     C_R   0.787020 0.298722 0.526655 -0.039167
C62   C     C_R   0.192717 0.367818 0.459168 -0.025542
C63   C     C_R   0.311401 0.878851 0.543046 -0.026805
C64   C     C_R   0.717679 0.782523 0.476592 -0.034435
C65   C     C_R   0.673834 0.390530 0.524778 0.237357
C66   C     C_R   0.292215 0.500329 0.453281 0.211263
C67   C     C_R   0.205010 0.991340 0.543945 0.225849
C68   C     C_R   0.821422 0.903765 0.473378 0.226839
C69   C     C_R   0.683859 0.421736 0.452005 -0.149870
C70   C     C_R   0.284864 0.523564 0.527225 -0.156293
C71   C     C_R   0.214569 0.018990 0.471122 -0.153580
C72   C     C_R   0.812137 0.933644 0.545957 -0.158697
C73   C     C_3   0.868232 0.373341 0.471521 -0.270439
C74   C     C_3   0.110927 0.424803 0.519662 -0.263979
C75   C     C_3   0.393078 0.944012 0.485176 -0.265744
C76   C     C_3   0.633949 0.844313 0.532654 -0.276309
C77   C     C_3   0.858935 0.333263 0.546987 -0.271454
C78   C     C_3   0.118348 0.386778 0.443255 -0.272444
C79   C     C_3   0.384023 0.907877 0.561837 -0.274230
C80   C     C_3   0.643200 0.798391 0.458492 -0.276156
C81   C     C_R   0.727670 0.332408 0.562831 0.027457
C82   C     C_R   0.246284 0.418776 0.420544 0.034766
C83   C     C_R   0.253744 0.919200 0.579346 0.038067
C84   C     C_R   0.772286 0.830925 0.437667 0.026039
C85   C     C_R   0.737464 0.363177 0.852411 0.578518
C86   C     C_R   0.262442 0.363662 0.147690 0.569958
C87   C     C_R   0.237467 0.863186 0.852409 0.569255
C88   C     C_R   0.762444 0.863659 0.147690 0.577323
C89   C     C_R   0.728337 0.953680 0.648087 0.543199
C90   C     C_R   0.288267 0.998279 0.360120 0.562410
C91   C     C_R   0.213012 0.495748 0.639619 0.563394
C92   C     C_R   0.771468 0.453845 0.351896 0.542512
C93   C     C_R   0.530531 0.175677 0.644722 0.549615
C94   C     C_R   0.471484 0.177176 0.354140 0.529088
C95   C     C_R   0.029260 0.677087 0.644947 0.536311
C96   C     C_R   0.971781 0.676126 0.353918 0.551796
C97   C     C_R   0.725341 0.311091 0.639734 0.582999
C98   C     C_R   0.260121 0.363844 0.352169 0.554647
C99   C     C_R   0.239754 0.863237 0.647519 0.559091
C100  C     C_R   0.774482 0.810979 0.360390 0.580699
C101  C     C_2   0.498699 0.172320 0.921002 -0.123678
C102  C     C_2   0.501773 0.172973 0.079226 -0.122455
C103  C     C_2   0.998727 0.672316 0.921017 -0.123999
C104  C     C_2   0.001801 0.672975 0.079241 -0.121602
C105  C     C_2   0.492208 0.076260 0.038004 -0.176194
C106  C     C_2   0.510049 0.076583 0.962569 -0.173138
C107  C     C_2   0.992252 0.576260 0.038018 -0.175947
C108  C     C_2   0.010100 0.576587 0.962585 -0.173430
C109  C     C_R   0.761659 0.421753 0.072605 -0.003652
C110  C     C_R   0.238775 0.420964 0.927385 -0.006794
C111  C     C_R   0.261654 0.921733 0.072602 -0.005395
C112  C     C_R   0.738767 0.920990 0.927386 -0.005206
Cr1   Cr    Cr6+3 0.769260 0.163750 0.750730 0.999091
Cr2   Cr    Cr6+3 0.230740 0.163750 0.249270 1.000739
Cr3   Cr    Cr6+3 0.269260 0.663750 0.750730 1.000237
Cr4   Cr    Cr6+3 0.730740 0.663750 0.249270 1.000801
Cr5   Cr    Cr6+3 0.612640 0.009910 0.748780 0.990632
Cr6   Cr    Cr6+3 0.387360 0.009910 0.251220 0.981579
Cr7   Cr    Cr6+3 0.112640 0.509910 0.748780 0.982616
Cr8   Cr    Cr6+3 0.887360 0.509910 0.251220 0.985776
Cr9   Cr    Cr6+3 0.614190 0.322400 0.747710 1.007691
Cr10  Cr    Cr6+3 0.385810 0.322400 0.252290 1.019864
Cr11  Cr    Cr6+3 0.114190 0.822400 0.747710 1.020329
Cr12  Cr    Cr6+3 0.885810 0.822400 0.252290 1.006271
H1    H     H_    0.473284 0.992980 0.060610 0.141670
H2    H     H_    0.530781 0.994490 0.940311 0.142784
H3    H     H_    0.973325 0.492978 0.060618 0.141706
H4    H     H_    0.030852 0.494505 0.940328 0.142753
H5    H     H_    0.991522 0.928261 0.411847 0.226842
H6    H     H_    0.036505 0.957650 0.561891 0.211136
H7    H     H_    0.394114 0.334522 0.444100 0.191907
H8    H     H_    0.457743 0.447034 0.573376 0.148910
H9    H     H_    0.461733 0.459632 0.447869 0.182934
H10   H     H_    0.393606 0.319929 0.568887 0.120323
H11   H     H_    0.081042 0.939116 0.440218 0.134067
H12   H     H_    0.951976 0.904554 0.535468 0.162669
H13   H     H_    0.644183 0.471389 0.423938 0.123533
H14   H     H_    0.321400 0.581670 0.554244 0.134289
H15   H     H_    0.176568 0.072946 0.443410 0.130510
H16   H     H_    0.847485 0.996255 0.571199 0.119674
H17   H     H_    0.869541 0.473174 0.466623 0.162368
H18   H     H_    0.106874 0.523872 0.526043 0.162859
H19   H     H_    0.397136 0.043262 0.477818 0.151425
H20   H     H_    0.629778 0.943591 0.533552 0.160880
H21   H     H_    0.908344 0.322068 0.442023 0.131267
H22   H     H_    0.074457 0.369171 0.551480 0.132591
H23   H     H_    0.430705 0.886810 0.456207 0.132524
H24   H     H_    0.596247 0.793625 0.565276 0.133875
H25   H     H_    0.891284 0.254365 0.561887 0.127928
H26   H     H_    0.091252 0.300677 0.430759 0.129692
H27   H     H_    0.413893 0.825843 0.576545 0.132019
H28   H     H_    0.616913 0.711134 0.447758 0.121565
H29   H     H_    0.860713 0.409880 0.585302 0.161307
H30   H     H_    0.109665 0.461053 0.404404 0.145150
H31   H     H_    0.388472 0.984798 0.599737 0.138781
H32   H     H_    0.633448 0.869770 0.418163 0.162877
H33   H     H_    0.524440 0.254992 0.057311 0.104501
H34   H     H_    0.474652 0.253307 0.942569 0.104722
H35   H     H_    0.024473 0.754996 0.057332 0.104718
H36   H     H_    0.974670 0.753292 0.942586 0.104523
H37   H     H_    0.870782 0.423801 0.047899 0.137138
H38   H     H_    0.129523 0.408886 0.951048 0.134929
H39   H     H_    0.370785 0.923537 0.047911 0.136793
H40   H     H_    0.629514 0.909209 0.951070 0.135217
H41   H     H_    0.150710 0.083879 0.067412 0.157912
H42   H     H_    0.843464 0.096860 0.934542 0.161415
H43   H     H_    0.650567 0.583616 0.067481 0.157984
H44   H     H_    0.343247 0.597204 0.934622 0.161578
H45   H     H_    0.592467 0.449627 0.083047 0.132025
H46   H     H_    0.406520 0.470629 0.918920 0.130665
H47   H     H_    0.092482 0.950058 0.083002 0.131914
H48   H     H_    0.906571 0.970029 0.918873 0.130875
H49   H     H_    0.577333 0.429717 0.956965 0.145796
H50   H     H_    0.421319 0.450846 0.044958 0.144703
H51   H     H_    0.077355 0.930103 0.956925 0.145591
H52   H     H_    0.921367 0.950303 0.044918 0.144699
H53   H     H_    0.633081 0.566361 0.942232 0.136701
H54   H     H_    0.360464 0.580301 0.059782 0.137646
H55   H     H_    0.133206 0.066612 0.942175 0.136141
H56   H     H_    0.860654 0.079972 0.059720 0.137234
H57   H     H_    0.525661 0.977729 0.558281 0.133734
H58   H     H_    0.531589 0.986994 0.426087 0.119033
H59   H     H_    0.972206 0.490106 0.568679 0.122523
H60   H     H_    0.979792 0.478381 0.436681 0.135196
O1    O     O_R   0.784290 0.290360 0.830540 -0.495397
O2    O     O_R   0.215710 0.290360 0.169460 -0.496253
O3    O     O_R   0.284290 0.790360 0.830540 -0.499382
O4    O     O_R   0.715710 0.790360 0.169460 -0.492257
O5    O     O_R   0.554690 0.080440 0.673480 -0.517902
O6    O     O_R   0.445310 0.080440 0.326520 -0.522308
O7    O     O_R   0.054690 0.580440 0.673480 -0.521581
O8    O     O_R   0.945310 0.580440 0.326520 -0.516109
O9    O     O_R   0.543980 0.282110 0.666770 -0.494430
O10   O     O_R   0.456020 0.282110 0.333230 -0.516998
O11   O     O_R   0.043980 0.782110 0.666770 -0.506412
O12   O     O_R   0.956020 0.782110 0.333230 -0.511750
O13   O     O_R   0.679070 0.374030 0.674430 -0.468080
O14   O     O_R   0.320930 0.374030 0.325570 -0.457602
O15   O     O_R   0.179070 0.874030 0.674430 -0.447914
O16   O     O_R   0.820930 0.874030 0.325570 -0.465287
O17   O     O_3   0.665360 0.165350 0.749070 -0.276150
O18   O     O_3   0.334640 0.165350 0.250930 -0.276390
O19   O     O_3   0.165360 0.665350 0.749070 -0.273365
O20   O     O_3   0.834640 0.665350 0.250930 -0.274879
O21   O     O_R   0.762610 0.041070 0.825230 -0.503631
O22   O     O_R   0.237390 0.041070 0.174770 -0.498978
O23   O     O_R   0.262610 0.541070 0.825230 -0.499689
O24   O     O_R   0.737390 0.541070 0.174770 -0.503197
O25   O     O_R   0.667390 0.924160 0.829970 -0.531960
O26   O     O_R   0.332610 0.924160 0.170030 -0.529988
O27   O     O_R   0.167390 0.424160 0.829970 -0.531411
O28   O     O_R   0.832610 0.424160 0.170030 -0.532426
O29   O     O_R   0.553980 0.081420 0.821780 -0.501085
O30   O     O_R   0.446020 0.081420 0.178220 -0.500975
O31   O     O_R   0.053980 0.581420 0.821780 -0.501629
O32   O     O_R   0.946020 0.581420 0.178220 -0.500651
O33   O     O_R   0.543210 0.283170 0.826740 -0.528300
O34   O     O_R   0.456790 0.283170 0.173260 -0.521799
O35   O     O_R   0.043210 0.783170 0.826740 -0.524102
O36   O     O_R   0.956790 0.783170 0.173260 -0.527366
O37   O     O_R   0.678350 0.375000 0.822720 -0.512657
O38   O     O_R   0.321650 0.375000 0.177280 -0.510230
O39   O     O_R   0.178350 0.875000 0.822720 -0.514980
O40   O     O_R   0.821650 0.875000 0.177280 -0.512885
O41   O     O_R   0.785060 0.289300 0.670580 -0.532112
O42   O     O_R   0.214940 0.289300 0.329420 -0.538261
O43   O     O_R   0.285060 0.789300 0.670580 -0.539261
O44   O     O_R   0.714940 0.789300 0.329420 -0.533943
O45   O     O_R   0.763330 0.040090 0.676940 -0.520010
O46   O     O_R   0.236670 0.040090 0.323060 -0.505347
O47   O     O_R   0.263330 0.540090 0.676940 -0.505836
O48   O     O_R   0.736670 0.540090 0.323060 -0.517960
O49   O     O_R   0.668160 0.923110 0.670000 -0.516300
O50   O     O_R   0.331840 0.923110 0.330000 -0.526794
O51   O     O_R   0.168160 0.423110 0.670000 -0.527589
O52   O     O_R   0.831840 0.423110 0.330000 -0.522744
O53   O     O_3   0.612551 0.417200 0.559782 -0.534658
C113  C     C_3   0.602507 0.543112 0.565487 -0.005760
H61   H     H_    0.564319 0.571064 0.524695 0.110233
H62   H     H_    0.651165 0.595550 0.558255 0.139523
C114  C     C_3   0.573595 0.574120 0.639336 -0.329579
H63   H     H_    0.616137 0.578861 0.678746 0.159348
H64   H     H_    0.546847 0.662589 0.638631 0.059117
H65   H     H_    0.535397 0.506144 0.657503 0.178447
O54   O     O_3   0.350342 0.534061 0.414928 -0.578298
C115  C     C_3   0.360988 0.658547 0.413373 -0.010727
H66   H     H_    0.381181 0.688515 0.465642 0.130746
H67   H     H_    0.312461 0.706339 0.398751 0.171968
C116  C     C_3   0.415889 0.683883 0.356507 -0.341626
H68   H     H_    0.396821 0.654301 0.303551 0.163469
H69   H     H_    0.428683 0.781180 0.353684 0.128954
H70   H     H_    0.464191 0.634036 0.368879 0.121106
O55   O     O_3   0.144289 0.018016 0.578720 -0.572921
C117  C     C_3   0.137965 0.142212 0.590538 -0.018985
H71   H     H_    0.117242 0.182814 0.541354 0.138031
H72   H     H_    0.188121 0.184683 0.605982 0.156789
C118  C     C_3   0.086198 0.162111 0.651040 -0.352630
H73   H     H_    0.105247 0.118607 0.700520 0.162586
H74   H     H_    0.078916 0.259786 0.661230 0.132524
H75   H     H_    0.035024 0.123233 0.637245 0.116927
O56   O     O_3   0.876496 0.951069 0.435886 -0.570159
C119  C     C_3   0.863139 0.072688 0.419211 0.000245
H76   H     H_    0.874039 0.126969 0.466972 0.136108
H77   H     H_    0.808627 0.087330 0.401678 0.150068
C120  C     C_3   0.911080 0.114180 0.359093 -0.370900
H78   H     H_    0.911939 0.047019 0.315203 0.185867
H79   H     H_    0.892666 0.201395 0.337157 0.126339
H80   H     H_    0.964483 0.127164 0.379325 0.101125
N1    N     N_2   0.869988 0.429967 0.907525 -0.494892
H81   H     H_    0.889143 0.516551 0.909757 0.258128
C121  C     C_3   0.922538 0.336937 0.908482 -0.285103
H82   H     H_    0.944357 0.325881 0.962671 0.107659
H83   H     H_    0.900896 0.250236 0.889899 0.170086
H84   H     H_    0.964754 0.361352 0.870784 0.140374
N2    N     N_2   0.129181 0.422942 0.091494 -0.496542
H85   H     H_    0.110170 0.509573 0.090981 0.257741
C122  C     C_3   0.076998 0.329068 0.089977 -0.286171
H86   H     H_    0.055317 0.318161 0.035723 0.107054
H87   H     H_    0.099021 0.242874 0.108510 0.170175
H88   H     H_    0.034597 0.352259 0.127668 0.138044
N3    N     N_2   0.369997 0.929885 0.907531 -0.496863
H89   H     H_    0.389140 0.016479 0.909739 0.257526
C123  C     C_3   0.422550 0.836860 0.908470 -0.285693
H90   H     H_    0.444355 0.825747 0.962661 0.108201
H91   H     H_    0.400921 0.750181 0.889839 0.170324
H92   H     H_    0.464774 0.861322 0.870792 0.140349
N4    N     N_2   0.629194 0.923046 0.091512 -0.495263
H93   H     H_    0.610164 0.009663 0.090968 0.258105
C124  C     C_3   0.577021 0.829156 0.089978 -0.285372
H94   H     H_    0.555314 0.818324 0.035729 0.106677
H95   H     H_    0.599067 0.742936 0.108441 0.170069
H96   H     H_    0.534635 0.852279 0.127703 0.138399

loop_
_geom_bond_atom_site_label_1
_geom_bond_atom_site_label_2
_ccdc_geom_bond_type
Cr12  O36   S    
C55   C59   A    
C53   C69   A    
C49   H7    S    
Cr4   O44   S    
C92   O48   A    
C121  H82   S    
C64   C84   A    
C117  H72   S    
C56   C72   A    
Cr3   O19   S    
C45   O29   A    
N4    C124  S    
Cr1   O17   S    
C17   H37   S    
C22   H44   S    
C67   O55   S    
O54   C115  S    
C85   O1    A    
C82   C98   S    
Cr10  O10   S    
Cr4   O20   S    
C4    O24   A    
C113  H62   S    
C2    C111  S    
C116  H69   S    
C51   C52   S    
C84   C100  S    
C50   H10   S    
Cr11  O39   S    
C60   C76   S    
C87   O39   A    
C43   C44   A    
C94   O6    A    
Cr3   O43   S    
C37   C38   A    
C66   C82   A    
C10   C30   A    
Cr1   O41   S    
C54   C70   A    
C11   C27   S    
C68   C72   A    
Cr5   O29   S    
C28   H56   S    
C22   H46   S    
C75   H19   S    
C76   H20   S    
Cr7   O51   S    
C101  H34   S    
C70   H14   S    
N1    C121  S    
C104  H35   S    
C49   H9    S    
C94   O10   A    
C17   C109  A    
C119  H77   S    
C57   C61   A    
C19   C111  A    
C59   C63   A    
Cr11  O19   S    
C60   C64   A    
C3    O23   A    
C107  H3    S    
Cr8   O20   S    
Cr10  O18   S    
C66   C70   A    
C43   H59   S    
Cr9   O17   S    
C25   H49   S    
C23   H47   S    
C76   H24   S    
Cr10  O38   S    
C91   O47   A    
C73   C77   S    
C114  H64   S    
C75   C79   S    
C104  C107  D    
C55   C71   A    
C6    C22   S    
Cr8   O28   S    
C39   C51   S    
C4    C109  S    
C67   C83   A    
Cr6   O6    S    
C33   C94   S    
C51   H5    S    
C35   C96   S    
C116  H68   S    
C33   C42   A    
Cr11  O15   S    
C55   C90   S    
C1    C112  S    
O56   C119  S    
C3    C110  S    
C32   C88   S    
C91   O51   A    
C118  H73   S    
C57   C73   S    
C77   H29   S    
C23   H41   S    
Cr12  O40   S    
C61   C77   S    
C107  C108  S    
C88   O40   A    
C2    O22   A    
C29   C85   S    
O53   C113  S    
Cr4   O48   S    
C123  H92   S    
Cr6   O18   S    
C3    O27   A    
C1    O25   A    
C97   O13   A    
C39   C40   A    
C87   O3    A    
C117  C118  S    
C79   H31   S    
C108  H4    S    
C73   H21   S    
Cr1   O21   S    
C5    C9    A    
C13   N1    S    
Cr3   O3    S    
Cr5   O49   S    
C8    C12   A    
Cr1   O1    S    
Cr12  O12   S    
C124  H94   S    
C5    C21   S    
C19   H39   S    
Cr10  O14   S    
C16   N4    S    
C120  H79   S    
Cr4   O24   S    
Cr5   O5    S    
C100  O16   A    
C56   C89   S    
C74   C78   S    
C52   H12   S    
C58   C74   S    
C101  C106  D    
Cr11  O35   S    
C115  H66   S    
C116  H70   S    
Cr9   O33   S    
C62   C78   S    
C76   C80   S    
Cr1   O45   S    
C119  H76   S    
C93   O5    A    
N3    C123  S    
Cr7   O27   S    
C13   C17   A    
C114  H65   S    
C96   O8    A    
Cr5   O25   S    
C61   C81   A    
C9    C29   A    
C36   C95   S    
C7    C23   S    
C8    C24   S    
C24   H48   S    
C72   H16   S    
C49   C50   S    
C122  H88   S    
C93   O9    A    
C123  H90   S    
C90   O46   A    
C85   O37   A    
C99   O43   A    
C115  C116  S    
C58   C62   A    
C121  H84   S    
C97   O41   A    
C46   O34   A    
C41   C42   A    
N2    H85   S    
Cr11  O11   S    
C119  C120  S    
C9    C25   S    
C73   H17   S    
C42   H58   S    
C15   C19   A    
C113  C114  S    
C12   C28   S    
C13   C29   A    
C27   H55   S    
C8    C112  A    
C25   H53   S    
C103  H36   S    
C26   H50   S    
C20   H40   S    
C124  H96   S    
C102  C105  D    
C80   H28   S    
C100  O44   A    
C21   C25   S    
C20   C112  A    
C47   O31   A    
Cr2   O18   S    
C62   C82   A    
C83   C99   S    
N1    H81   S    
C64   C80   S    
C41   H57   S    
C34   C41   A    
Cr9   O9    S    
C47   C103  S    
C68   C84   A    
C24   C28   S    
C31   C87   S    
C27   H51   S    
C53   C57   A    
C28   H52   S    
C75   H23   S    
C33   C37   A    
C56   C60   A    
C63   C83   A    
C35   C39   A    
C105  H1    S    
C117  H71   S    
Cr2   O42   S    
C37   C49   S    
C65   C81   A    
N4    H93   S    
Cr7   O19   S    
Cr6   O30   S    
C15   C31   A    
C50   H8    S    
C86   O2    A    
C16   C32   A    
C77   H25   S    
C48   O36   A    
C113  H61   S    
C95   O11   A    
C74   H22   S    
C78   H30   S    
C18   C110  A    
C6    C10   A    
C105  C106  S    
C106  H2    S    
C21   H43   S    
C118  H75   S    
C54   C91   S    
C18   H38   S    
O55   C117  S    
C5    C109  A    
C65   C69   A    
C7    C111  A    
C67   C71   A    
C92   O52   A    
C96   O12   A    
C22   C26   S    
C99   O15   A    
Cr9   O37   S    
Cr2   O2    S    
C36   C43   A    
C66   O54   S    
C48   O32   A    
Cr7   O31   S    
Cr3   O23   S    
C123  H91   S    
C45   O33   A    
C14   C18   A    
C24   H42   S    
C34   C93   S    
C63   C79   S    
C7    C11   A    
Cr4   O4    S    
Cr12  O16   S    
Cr12  O20   S    
N2    C122  S    
Cr7   O7    S    
C114  H63   S    
Cr8   O8    S    
C21   H45   S    
C89   O49   A    
C48   C104  S    
C90   O50   A    
C51   H11   S    
C14   N2    S    
C46   O30   A    
C103  C108  D    
C23   C27   S    
C30   C86   S    
C1    O21   A    
C120  H78   S    
C44   H60   S    
Cr3   O47   S    
C16   C20   A    
C10   C26   S    
C74   H18   S    
C11   C31   A    
C46   C102  S    
C12   C32   A    
C6    C110  A    
C65   O53   S    
C14   C30   A    
Cr5   O17   S    
C102  H33   S    
C68   O56   S    
C80   H32   S    
C26   H54   S    
C69   H13   S    
C115  H67   S    
C2    O26   A    
C98   O14   A    
C36   C40   A    
C71   H15   S    
N3    H89   S    
C40   C52   S    
C47   O35   A    
Cr2   O22   S    
C118  H74   S    
Cr6   O50   S    
C53   C92   S    
C35   C44   A    
Cr9   O13   S    
C45   C101  S    
C122  H87   S    
C15   N3    S    
C59   C75   S    
C78   H26   S    
C79   H27   S    
C54   C58   A    
C121  H83   S    
Cr10  O34   S    
C34   C38   A    
Cr2   O46   S    
C38   C50   S    
C95   O7    A    
Cr8   O32   S    
C4    O28   A    
Cr6   O26   S    
C52   H6    S    
Cr8   O52   S    
C81   C97   S    
C124  H95   S    
C120  H80   S    
C88   O4    A    
C86   O38   A    
C89   O45   A    
C122  H86   S    
C98   O42   A    
