data_mof_unit_5260.cif
_audit_creation_date              2012-12-10T16:50:11-0500
_audit_creation_method            fapswitch 2.2
_symmetry_space_group_name_H-M    P1
_symmetry_Int_Tables_number       1
_space_group_crystal_system       triclinic
_cell_length_a                    23.574233
_cell_length_b                    8.772135
_cell_length_c                    7.53704
_cell_angle_alpha                 101.959912
_cell_angle_beta                  95.579445
_cell_angle_gamma                 94.065817
_cell_volume                      1510.92492454

loop_
_atom_site_label
_atom_site_type_symbol
_atom_type_description
_atom_site_fract_x
_atom_site_fract_y
_atom_site_fract_z
_atom_type_partial_charge
C1    C     C_R   0.497932 0.200983 0.455362 0.830906
C2    C     C_R   0.502068 0.799018 0.544640 0.830763
C3    C     C_R   0.232998 0.550553 0.380599 0.247733
C4    C     C_R   0.767024 0.449667 0.619264 0.247645
C5    C     C_R   0.292497 0.555499 0.373987 0.174354
C6    C     C_R   0.707523 0.444568 0.625868 0.174404
C7    C     C_R   0.327226 0.486791 0.494934 -0.212648
C8    C     C_R   0.672771 0.513339 0.505061 -0.212619
C9    C     C_R   0.300388 0.403986 0.611147 0.143302
C10   C     C_R   0.699581 0.596370 0.389010 0.143552
C11   C     C_R   0.241564 0.409315 0.625552 0.248135
C12   C     C_R   0.758403 0.591121 0.374518 0.248102
C13   C     C_R   0.207882 0.478500 0.507115 0.131929
C14   C     C_R   0.792113 0.521873 0.492824 0.131961
C15   C     C_2   0.488933 0.035209 0.434776 0.031955
C16   C     C_2   0.511065 0.964794 0.565235 0.031756
C17   C     C_R   0.390779 0.496788 0.498854 0.861735
C18   C     C_R   0.609220 0.503224 0.501146 0.861540
C19   C     C_R   0.888602 0.645327 0.587629 0.654463
C20   C     C_R   0.111392 0.355116 0.412191 0.654386
C21   C     C_R   0.872821 0.398344 0.378831 0.664886
C22   C     C_R   0.127170 0.602129 0.620938 0.664928
C23   C     C_R   0.931874 0.379990 0.393373 -0.081304
C24   C     C_R   0.068118 0.620494 0.606346 -0.081323
C25   C     C_R   0.970153 0.506254 0.495322 -0.079807
C26   C     C_R   0.029840 0.494223 0.504406 -0.079798
C27   C     C_R   0.948627 0.644710 0.587127 -0.112203
C28   C     C_R   0.051366 0.355761 0.412616 -0.112173
C29   C     C_R   0.953039 0.237744 0.313658 0.222606
C30   C     C_R   0.046953 0.762756 0.686008 0.222620
C31   C     C_R   0.012388 0.224991 0.324302 0.256676
C32   C     C_R   0.987604 0.775498 0.675383 0.256673
Cu1   Cu    Cu3+1 0.506340 0.517380 0.684380 1.152235
Cu2   Cu    Cu3+1 0.493660 0.482620 0.315620 1.152246
N1    N     N_R   0.852721 0.523483 0.484298 -0.440603
N2    N     N_R   0.147271 0.476950 0.515547 -0.440600
N3    N     N_2   0.484110 0.456420 0.038520 0.083157
N4    N     N_2   0.515890 0.543580 0.961480 0.083197
O1    O     O_R   0.504120 0.286130 0.619770 -0.543564
O2    O     O_R   0.495880 0.713870 0.380230 -0.543583
O3    O     O_R   0.493410 0.256770 0.308360 -0.532172
O4    O     O_R   0.506590 0.743230 0.691640 -0.532193
O5    O     O_R   0.423230 0.514630 0.655730 -0.544639
O6    O     O_R   0.576770 0.485370 0.344270 -0.544574
O7    O     O_R   0.412530 0.485280 0.344320 -0.546011
O8    O     O_R   0.587470 0.514720 0.655680 -0.546015
O9    O     O_2   0.865745 0.763375 0.692908 -0.448021
O10   O     O_2   0.134255 0.237045 0.306969 -0.448050
O11   O     O_2   0.835228 0.292654 0.261246 -0.443556
O12   O     O_2   0.164760 0.707843 0.738504 -0.443613
N5    N     N_2   0.914228 0.103823 0.231742 -0.371865
H1    H     H_    0.924830 0.031027 0.116719 0.334483
C33   C     C_3   0.887370 0.023928 0.356074 -0.393941
H2    H     H_    0.907606 0.914315 0.362213 0.236743
H3    H     H_    0.841324 0.995095 0.306293 0.270952
H4    H     H_    0.890342 0.098768 0.495569 0.244247
N6    N     N_2   0.085764 0.896693 0.767855 -0.371846
H5    H     H_    0.075162 0.969531 0.882843 0.334478
C34   C     C_3   0.112620 0.976526 0.643466 -0.394060
H6    H     H_    0.092382 0.086126 0.637268 0.236757
H7    H     H_    0.109645 0.901639 0.503996 0.244250
H8    H     H_    0.158666 0.005378 0.693236 0.270813
Br1   Br    Br    0.036756 0.019173 0.237522 -0.471882
Br2   Br    Br    0.963229 0.981320 0.762066 -0.471903
Br3   Br    Br    0.184788 0.646196 0.221125 -0.321574
Br4   Br    Br    0.815273 0.354042 0.778651 -0.321620
Br5   Br    Br    0.323857 0.652933 0.194074 -0.323013
Br6   Br    Br    0.676186 0.346874 0.805581 -0.322826
N7    N     N_2   0.330983 0.298829 0.694474 -0.388192
H9    H     H_    0.321485 0.295184 0.824185 0.323698
C35   C     C_3   0.329310 0.144335 0.578067 -0.519436
H10   H     H_    0.284480 0.089866 0.543882 0.247237
H11   H     H_    0.354450 0.067909 0.649136 0.250865
H12   H     H_    0.348158 0.151640 0.450256 0.233216
N8    N     N_2   0.668966 0.701710 0.306047 -0.388184
H13   H     H_    0.678582 0.706102 0.176629 0.323590
C36   C     C_3   0.670371 0.855803 0.423229 -0.519394
H14   H     H_    0.715150 0.910643 0.458206 0.247379
H15   H     H_    0.651375 0.847670 0.550614 0.232944
H16   H     H_    0.645215 0.932360 0.352399 0.250711
Br7   Br    Br    0.206415 0.322412 0.807081 -0.433668
Br8   Br    Br    0.793516 0.678165 0.193031 -0.433681
Br9   Br    Br    0.436162 0.933544 0.224035 -0.348713
Br10  Br    Br    0.563824 0.066470 0.776006 -0.348881
Br11  Br    Br    0.443547 0.268785 0.911938 -0.288283
Br12  Br    Br    0.556461 0.731205 0.088057 -0.288177

loop_
_geom_bond_atom_site_label_1
_geom_bond_atom_site_label_2
_ccdc_geom_bond_type
C4    Br4   S    
Cu2   N3    S    
C33   H3    S    
C5    Br5   S    
C21   O11   S    
C33   H2    S    
C11   Br7   S    
Cu1   O1    S    
N4    Br12  S    
Cu2   O2    S    
Cu1   O4    S    
C23   C29   A    
N3    Br11  S    
C24   C26   A    
C19   O9    S    
N6    C34   S    
C15   C16   D    
C30   N6    S    
C16   Br10  S    
N7    C35   S    
C7    C17   S    
C1    C15   S    
C2    C16   S    
C3    C13   A    
C22   O12   S    
C6    Br6   S    
C34   H6    S    
Cu1   O8    S    
C3    Br3   S    
Cu2   O3    S    
C18   O8    A    
C36   H15   S    
C34   H7    S    
N5    H1    S    
Cu1   O5    S    
C31   Br1   S    
Cu2   O6    S    
C32   Br2   S    
C13   N2    S    
C4    C6    A    
C14   N1    S    
C35   H11   S    
C15   Br9   S    
C20   C28   A    
C25   C26   A    
C36   H14   S    
C8    C18   S    
C17   O7    A    
N5    C33   S    
N8    H13   S    
C17   O5    A    
N3    N4    D    
C18   O6    A    
C9    C11   A    
C10   N8    S    
Cu1   Cu2   S    
C12   Br8   S    
Cu2   O7    S    
N8    C36   S    
C20   O10   S    
C10   C12   A    
C1    O3    A    
C12   C14   A    
C21   C23   A    
C22   C24   A    
C19   C27   A    
C5    C7    A    
C29   N5    S    
C33   H4    S    
C7    C9    A    
C34   H8    S    
C27   C32   A    
C28   C31   A    
C9    N7    S    
C3    C5    A    
C35   H12   S    
C6    C8    A    
C21   N1    A    
C25   C27   A    
C22   N2    A    
C26   C28   A    
Cu1   N4    S    
C35   H10   S    
C29   C31   A    
C19   N1    A    
C30   C32   A    
C11   C13   A    
N6    H5    S    
C36   H16   S    
C2    O4    A    
C23   C25   A    
C4    C14   A    
N7    H9    S    
C24   C30   A    
C1    O1    A    
C20   N2    A    
C2    O2    A    
C8    C10   A    
