data_mof_unit_34566.cif
_audit_creation_date              2012-12-10T16:54:29-0500
_audit_creation_method            fapswitch 2.2
_symmetry_space_group_name_H-M    P1
_symmetry_Int_Tables_number       1
_space_group_crystal_system       triclinic
_cell_length_a                    15.04096
_cell_length_b                    10.967706
_cell_length_c                    9.755947
_cell_angle_alpha                 89.909411
_cell_angle_beta                  88.965633
_cell_angle_gamma                 91.776
_cell_volume                      1608.34919158

loop_
_atom_site_label
_atom_site_type_symbol
_atom_type_description
_atom_site_fract_x
_atom_site_fract_y
_atom_site_fract_z
_atom_type_partial_charge
C1    C     C_R   0.498063 0.265159 0.500496 0.933891
C2    C     C_R   0.908627 0.606059 0.504932 -0.110470
C3    C     C_R   0.949916 0.282655 0.406846 -0.083408
C4    C     C_R   0.043784 0.282995 0.410831 -0.031522
C5    C     C_R   0.091336 0.386254 0.463210 0.050396
C6    C     C_R   0.046570 0.496424 0.482632 -0.100245
C7    C     C_R   0.095356 0.606939 0.506278 -0.237521
C8    C     C_R   0.050007 0.715998 0.525534 0.618483
C9    C     C_R   0.957489 0.715284 0.525464 0.541447
C10   C     C_R   0.183216 0.384149 0.491683 -0.112947
C11   C     C_R   0.232029 0.495583 0.502174 -0.237770
C12   C     C_R   0.329000 0.499155 0.501103 0.939149
C13   C     C_R   0.188452 0.606044 0.508310 0.666994
C14   C     C_2   0.499389 0.933256 0.391143 0.489506
C15   C     C_2   0.522128 0.864339 0.498103 0.247856
C16   C     C_2   0.511537 0.065681 0.394901 0.570295
C17   C     C_2   0.484207 0.132707 0.502916 -0.340503
C18   C     C_2   0.439229 0.447238 0.926982 0.016433
C19   C     C_2   0.455627 0.421937 0.075683 -0.034504
C20   C     C_R   0.504862 0.734001 0.499466 0.857248
C21   C     C_R   0.670809 0.501074 0.498738 0.794486
C22   C     C_R   0.816018 0.605511 0.508032 -0.124096
C23   C     C_R   0.767201 0.496607 0.494144 -0.128060
C24   C     C_R   0.809774 0.385520 0.472831 -0.038027
C25   C     C_R   0.903751 0.386040 0.454938 0.047828
C26   C     C_R   0.952972 0.496038 0.480368 0.018012
Cu1   Cu    Cu3+1 0.500020 0.500020 0.638630 1.079606
Cu2   Cu    Cu3+1 0.499980 0.499980 0.361370 1.099471
H1    H     H_    0.781141 0.689560 0.524208 0.202467
H2    H     H_    0.559540 0.518965 0.890565 0.219349
H3    H     H_    0.520558 0.579008 0.106830 0.230483
N1    N     N_2   0.499020 0.498660 0.846910 -0.309164
N2    N     N_2   0.499000 0.498630 0.153040 -0.308411
O1    O     O_R   0.500020 0.321960 0.617040 -0.555146
O2    O     O_R   0.499980 0.321920 0.382900 -0.515461
O3    O     O_R   0.370270 0.499990 0.617090 -0.573007
O4    O     O_R   0.370240 0.499950 0.382940 -0.529192
O5    O     O_R   0.500020 0.678080 0.617100 -0.530963
O6    O     O_R   0.499980 0.678040 0.382960 -0.560369
O7    O     O_R   0.629760 0.500050 0.617060 -0.582035
O8    O     O_R   0.629730 0.500010 0.382910 -0.548255
F1    F     F_    0.565571 0.914205 0.606852 -0.660678
F2    F     F_    0.553128 0.118964 0.284281 -0.552587
C27   C     C_2   0.432040 0.078239 0.620813 0.928363
O9    O     O_2   0.449624 0.108106 0.738157 -0.437406
O10   O     O_R   0.363177 0.992611 0.597175 -0.726006
H4    H     H_    0.333778 0.961206 0.685215 0.376198
C28   C     C_2   0.351353 0.409833 0.875131 0.928693
O11   O     O_2   0.292038 0.483527 0.873348 -0.547003
O12   O     O_R   0.334386 0.288781 0.837663 -0.704524
H5    H     H_    0.269759 0.272437 0.814631 0.350082
C29   C     C_2   0.417451 0.306158 0.130411 0.989734
O13   O     O_2   0.445807 0.210006 0.087295 -0.449464
O14   O     O_R   0.344014 0.305687 0.219526 -0.707986
H6    H     H_    0.321597 0.219777 0.242118 0.374375
C30   C     C_2   0.756428 0.269813 0.485797 0.822769
O15   O     O_2   0.694332 0.249271 0.409418 -0.528350
O16   O     O_R   0.778393 0.183934 0.584614 -0.685198
H7    H     H_    0.737586 0.108614 0.583239 0.383203
C31   C     C_2   0.902262 0.184100 0.330476 0.868998
O17   O     O_2   0.903450 0.078490 0.370502 -0.447353
O18   O     O_R   0.854585 0.213547 0.213928 -0.713468
H8    H     H_    0.824022 0.139513 0.171374 0.376014
C32   C     C_2   0.092403 0.185700 0.337482 0.870113
O19   O     O_2   0.142546 0.213053 0.241541 -0.563693
O20   O     O_R   0.081850 0.064029 0.379077 -0.610437
H9    H     H_    0.119080 0.007145 0.321679 0.376179
C33   C     C_2   0.223533 0.267812 0.532913 0.848719
O21   O     O_2   0.300229 0.246652 0.501314 -0.622475
O22   O     O_R   0.172990 0.182814 0.610829 -0.697589
H10   H     H_    0.206814 0.106948 0.632637 0.387284
F3    F     F_    0.237454 0.711701 0.520662 -0.588251
F4    F     F_    0.094681 0.823505 0.547536 -0.524786
F5    F     F_    0.915577 0.821777 0.546850 -0.560679
F6    F     F_    0.463673 0.883056 0.276282 -0.585115

loop_
_geom_bond_atom_site_label_1
_geom_bond_atom_site_label_2
_ccdc_geom_bond_type
C9    F5    S    
C2    C22   A    
C28   O11   D    
C33   O21   D    
C11   C12   S    
H3    N2    S    
C24   C25   A    
C2    C9    A    
O18   H8    S    
C22   H1    S    
C10   C33   S    
Cu1   O3    S    
C12   O3    A    
C20   O5    A    
C4    C32   S    
C15   F1    S    
C1    C17   S    
C14   C15   D    
C7    C13   A    
Cu1   O7    S    
C23   C24   A    
C14   F6    S    
C29   O14   S    
C28   O12   S    
O20   H9    S    
O16   H7    S    
C17   C27   S    
C5    C10   A    
C2    C26   A    
O10   H4    S    
C32   O19   D    
H2    N1    S    
C11   C13   A    
C16   F2    S    
C32   O20   S    
C6    C26   A    
C21   O7    A    
Cu2   O4    S    
C31   O17   D    
Cu1   N1    S    
C21   O8    A    
C33   O22   S    
C8    F4    S    
C13   F3    S    
C30   O16   S    
C1    O1    A    
O12   H5    S    
C6    C7    A    
C21   C23   S    
Cu1   O1    S    
C19   N2    D    
C5    C6    A    
C14   C16   S    
C24   C30   S    
Cu2   N2    S    
C20   O6    A    
Cu1   O5    S    
C3    C4    A    
C16   C17   D    
Cu2   O8    S    
C3    C25   A    
O22   H10   S    
C18   N1    D    
C29   O13   D    
C1    O2    A    
C31   O18   S    
C7    C8    A    
C10   C11   A    
C12   O4    A    
C30   O15   D    
C18   C19   S    
O14   H6    S    
C4    C5    A    
Cu2   O6    S    
C25   C26   A    
C22   C23   A    
C3    C31   S    
C19   C29   S    
C15   C20   S    
C27   O9    D    
Cu2   O2    S    
C27   O10   S    
C8    C9    A    
Cu1   Cu2   S    
C18   C28   S    
