data_mof_unit_6906.cif
_audit_creation_date              2012-12-11T14:21:15-0500
_audit_creation_method            fapswitch 2.2
_symmetry_space_group_name_H-M    P1
_symmetry_Int_Tables_number       1
_space_group_crystal_system       triclinic
_cell_length_a                    11.494817
_cell_length_b                    11.534847
_cell_length_c                    19.514246
_cell_angle_alpha                 90.563464
_cell_angle_beta                  90.195289
_cell_angle_gamma                 59.931508
_cell_volume                      2239.10513291

loop_
_atom_site_label
_atom_site_type_symbol
_atom_type_description
_atom_site_fract_x
_atom_site_fract_y
_atom_site_fract_z
_atom_type_partial_charge
C1    C     C_R   0.640902 0.117566 0.599118 0.535571
C2    C     C_1   0.652168 0.683061 0.664040 0.001028
C3    C     C_1   0.146231 0.188937 0.863148 0.002660
C4    C     C_1   0.226547 0.145625 0.735537 -0.030783
C5    C     C_1   0.187122 0.164897 0.805016 -0.028302
C6    C     C_1   0.257821 0.133442 0.675905 0.001726
C7    C     C_1   0.677711 0.191425 0.860859 0.002700
C8    C     C_1   0.658578 0.167518 0.728973 -0.032288
C9    C     C_1   0.665039 0.181201 0.800328 -0.031835
C10   C     C_1   0.653484 0.149848 0.668512 0.001452
C11   C     C_R   0.696399 0.576808 0.206675 0.009373
C12   C     C_R   0.614114 0.743162 0.597908 0.533036
C13   C     C_R   0.605616 0.558745 0.249615 0.011570
C14   C     C_R   0.609547 0.577463 0.320812 -0.004145
C15   C     C_R   0.757900 0.667607 0.302363 -0.150782
C16   C     C_R   0.774420 0.626993 0.234880 -0.141010
C17   C     C_R   0.504648 0.532196 0.225332 -0.153438
C18   C     C_R   0.414208 0.525335 0.270065 -0.093066
C19   C     C_R   0.432631 0.523503 0.340356 0.249635
C20   C     C_R   0.535866 0.542265 0.365547 -0.081990
C21   C     C_R   0.673639 0.646296 0.345111 -0.003239
C22   C     C_R   0.144509 0.205609 0.194087 -0.002641
C23   C     C_R   0.297500 0.120508 0.605386 0.555586
C24   C     C_R   0.132641 0.310985 0.237805 0.030184
C25   C     C_R   0.121164 0.299459 0.308648 0.027058
C26   C     C_R   0.203415 0.061401 0.292232 -0.145134
C27   C     C_R   0.180827 0.081031 0.222279 -0.142626
C28   C     C_R   0.132227 0.427121 0.214260 -0.108178
C29   C     C_R   0.097474 0.535956 0.257861 -0.139469
C30   C     C_R   0.065909 0.530962 0.325873 -0.072819
C31   C     C_R   0.073737 0.414907 0.350883 -0.062896
C32   C     C_R   0.172714 0.170079 0.336110 -0.012820
C33   C     C_R   0.686438 0.165261 0.193469 0.004118
C34   C     C_R   0.645185 0.113782 0.403060 0.535487
C35   C     C_R   0.799652 0.070114 0.233483 0.045132
C36   C     C_R   0.791784 0.084095 0.304896 0.018928
C37   C     C_R   0.548509 0.220056 0.293386 -0.129799
C38   C     C_R   0.560595 0.232920 0.223614 -0.172354
C39   C     C_R   0.919333 0.960286 0.205940 -0.077985
C40   C     C_R   0.033141 0.887882 0.246406 -0.146816
C41   C     C_R   0.029746 0.919346 0.315390 -0.121357
C42   C     C_R   0.910683 0.018667 0.344462 -0.086269
C43   C     C_R   0.663655 0.151158 0.334872 -0.002846
C44   C     C_R   0.084248 0.229866 0.929293 0.541103
C45   C     C_R   0.621661 0.730789 0.405705 0.537400
C46   C     C_R   0.709174 0.545818 0.922560 0.563093
C47   C     C_R   0.707727 0.206532 0.930255 0.543105
C48   C     C_R   0.085166 0.236422 0.125233 0.536226
C49   C     C_R   0.709455 0.547930 0.133073 0.567781
C50   C     C_R   0.708659 0.206484 0.125972 0.539145
C51   C     C_R   0.239070 0.142538 0.402822 0.537653
C52   C     C_1   0.698857 0.580562 0.851682 0.000315
C53   C     C_1   0.673496 0.644323 0.722246 -0.028978
C54   C     C_1   0.689393 0.608277 0.791849 -0.030912
Cr1   Cr    Cr6+3 0.404720 0.198220 0.499960 1.033960
Cr2   Cr    Cr6+3 0.698290 0.897110 0.500380 1.018598
Cr3   Cr    Cr6+3 0.396970 0.904720 0.499610 1.020482
Cr4   Cr    Cr6+3 0.926180 0.151990 0.028120 1.015543
Cr5   Cr    Cr6+3 0.921330 0.451820 0.027470 1.019378
Cr6   Cr    Cr6+3 0.626260 0.446870 0.028710 1.005891
H1    H     H_    0.803552 0.725141 0.319581 0.144190
H2    H     H_    0.094179 0.624658 0.238426 0.104055
H3    H     H_    0.036944 0.616431 0.359453 0.133343
H4    H     H_    0.048930 0.413461 0.404246 0.126500
H5    H     H_    0.448221 0.264348 0.314784 0.191715
H6    H     H_    0.925813 0.923877 0.154096 0.142445
H7    H     H_    0.472254 0.294880 0.193137 0.112012
H8    H     H_    0.124667 0.808064 0.223937 0.101463
H9    H     H_    0.118248 0.864186 0.346855 0.129093
H10   H     H_    0.910737 0.040064 0.398598 0.130187
H11   H     H_    0.487541 0.519796 0.172564 0.169983
H12   H     H_    0.839588 0.646929 0.203352 0.148793
H13   H     H_    0.335733 0.510408 0.249395 0.122533
H14   H     H_    0.552063 0.538881 0.420388 0.109798
H15   H     H_    0.249202 0.960397 0.311631 0.143942
H16   H     H_    0.164502 0.433920 0.163318 0.138420
H17   H     H_    0.194725 0.998218 0.189899 0.137080
O1    O     O_R   0.267740 0.231960 0.575440 -0.504367
O2    O     O_R   0.685970 0.784660 0.430010 -0.504640
O3    O     O_R   0.502530 0.767000 0.423990 -0.519950
O4    O     O_R   0.288330 0.026350 0.429250 -0.497936
O5    O     O_3   0.499990 0.000020 0.499980 -0.265632
O6    O     O_R   0.821500 0.119340 0.952830 -0.501025
O7    O     O_R   0.037130 0.162530 0.957360 -0.492024
O8    O     O_R   0.056440 0.344740 0.951340 -0.512346
O9    O     O_R   0.797900 0.560360 0.957470 -0.479680
O10   O     O_R   0.596130 0.579390 0.952730 -0.492342
O11   O     O_R   0.639060 0.321160 0.958670 -0.510187
O12   O     O_R   0.527280 0.186640 0.570530 -0.512369
O13   O     O_R   0.821240 0.124200 0.104370 -0.528133
O14   O     O_R   0.036890 0.167040 0.097840 -0.494295
O15   O     O_R   0.056180 0.349610 0.102880 -0.537572
O16   O     O_R   0.797660 0.564870 0.097950 -0.494405
O17   O     O_R   0.595880 0.584250 0.104270 -0.523961
O18   O     O_R   0.638830 0.325670 0.099150 -0.528420
O19   O     O_3   0.824590 0.350230 0.028100 -0.288327
O20   O     O_R   0.728090 0.003450 0.576380 -0.504011
O21   O     O_R   0.682970 0.789190 0.570490 -0.495707
O22   O     O_R   0.499290 0.771880 0.575530 -0.516498
O23   O     O_R   0.285330 0.030870 0.569730 -0.491027
O24   O     O_R   0.270980 0.227080 0.423890 -0.501220
O25   O     O_R   0.530280 0.182120 0.430050 -0.487898
O26   O     O_R   0.731330 0.998570 0.424830 -0.521165
O27   O     O_3   0.348587 0.503628 0.382781 -0.709743
H18   H     H_    0.375976 0.503691 0.431008 0.319185

loop_
_geom_bond_atom_site_label_1
_geom_bond_atom_site_label_2
_ccdc_geom_bond_type
C25   C31   A    
C22   C48   S    
C26   C32   A    
C41   C42   A    
C36   C42   A    
C35   C36   A    
C16   H12   S    
Cr2   O21   S    
C2    C12   S    
Cr6   O11   S    
C53   C54   S    
Cr1   O25   S    
C26   C27   A    
C29   C30   A    
Cr2   O2    S    
C14   C21   A    
C28   C29   A    
C30   C31   A    
C50   O18   A    
C15   C16   A    
Cr3   O22   S    
C46   C52   S    
C42   H10   S    
C18   C19   A    
C11   C16   A    
Cr4   O19   S    
C12   O22   A    
C50   O13   A    
C19   C20   A    
C8    C9    S    
C48   O14   A    
C37   H5    S    
C47   O6    A    
C49   O17   A    
Cr4   O14   S    
C51   O4    A    
C12   O21   A    
C25   C32   A    
C23   O23   A    
C30   H3    S    
Cr3   O3    S    
Cr2   O20   S    
O27   H18   S    
Cr6   O10   S    
C52   C54   T    
C26   H15   S    
C21   C45   S    
C3    C44   S    
C34   C43   S    
C14   C20   A    
C24   C25   A    
C4    C6    T    
C1    O20   A    
C39   C40   A    
Cr1   O1    S    
C27   H17   S    
C33   C50   S    
Cr3   O23   S    
C7    C47   S    
C37   C43   A    
C35   C39   A    
Cr5   O8    S    
C32   C51   S    
C37   C38   A    
C11   C49   S    
Cr4   O7    S    
C19   O27   S    
C17   C18   A    
C15   H1    S    
C20   H14   S    
C45   O2    A    
C34   O25   A    
Cr1   O5    S    
Cr4   O13   S    
Cr6   O19   S    
C40   C41   A    
C17   H11   S    
C18   H13   S    
C22   C27   A    
C48   O15   A    
C39   H6    S    
C22   C24   A    
Cr5   O19   S    
C44   O8    A    
C28   H16   S    
C3    C5    T    
C41   H9    S    
C46   O10   A    
C7    C9    T    
C29   H2    S    
C1    O12   A    
C31   H4    S    
C1    C10   S    
C24   C28   A    
Cr2   O26   S    
C4    C5    S    
C44   O7    A    
C2    C53   T    
Cr2   O5    S    
C51   O24   A    
Cr1   O24   S    
C33   C38   A    
C13   C17   A    
C47   O11   A    
Cr5   O9    S    
Cr1   O12   S    
Cr4   O6    S    
C11   C13   A    
C6    C23   S    
C34   O26   A    
C33   C35   A    
C45   O3    A    
Cr3   O4    S    
Cr5   O15   S    
C23   O1    A    
Cr6   O18   S    
C15   C21   A    
C38   H7    S    
C8    C10   T    
C40   H8    S    
Cr3   O5    S    
C36   C43   A    
Cr5   O16   S    
C49   O16   A    
C13   C14   A    
C46   O9    A    
Cr6   O17   S    
