data_mof_unit_52917.cif
_audit_creation_date              2012-12-10T17:03:58-0500
_audit_creation_method            fapswitch 2.2
_symmetry_space_group_name_H-M    P1
_symmetry_Int_Tables_number       1
_space_group_crystal_system       triclinic
_cell_length_a                    9.806307
_cell_length_b                    11.079855
_cell_length_c                    15.851143
_cell_angle_alpha                 95.068618
_cell_angle_beta                  78.890448
_cell_angle_gamma                 112.011151
_cell_volume                      1566.56309468

loop_
_atom_site_label
_atom_site_type_symbol
_atom_type_description
_atom_site_fract_x
_atom_site_fract_y
_atom_site_fract_z
_atom_type_partial_charge
C1    C     C_R   0.557554 0.746172 0.506198 0.745673
C2    C     C_R   0.442442 0.253827 0.493808 0.745659
C3    C     C_R   0.322311 0.461068 0.078011 -0.330347
C4    C     C_R   0.677587 0.538541 0.921965 -0.330388
C5    C     C_R   0.214884 0.429991 0.024715 0.460382
C6    C     C_R   0.785024 0.569607 0.975253 0.460403
C7    C     C_2   0.592452 0.887443 0.509560 0.200536
C8    C     C_2   0.407526 0.112554 0.490477 0.200545
C9    C     C_2   0.486556 0.930577 0.499037 -0.121013
C10   C     C_2   0.513331 0.069410 0.501158 -0.121025
C11   C     C_2   0.923083 0.490286 0.492416 -0.057440
C12   C     C_2   0.076917 0.509714 0.507584 -0.057423
C13   C     C_R   0.410833 0.486617 0.662906 0.834534
C14   C     C_R   0.589164 0.513370 0.337093 0.834555
C15   C     C_R   0.356073 0.474138 0.756159 -0.101321
C16   C     C_R   0.643902 0.525769 0.243834 -0.101335
C17   C     C_R   0.154278 0.408831 0.878725 0.501776
C18   C     C_R   0.845667 0.590903 0.121240 0.501719
C19   C     C_R   0.203982 0.425254 0.789723 -0.336945
C20   C     C_R   0.795987 0.574588 0.210251 -0.336923
C21   C     C_R   0.459671 0.506854 0.811446 -0.208830
C22   C     C_R   0.540284 0.493006 0.188556 -0.208813
C23   C     C_R   0.416019 0.484128 0.900239 -0.031836
C24   C     C_R   0.583911 0.515609 0.099748 -0.031817
C25   C     C_R   0.260459 0.439754 0.934894 0.064080
C26   C     C_R   0.739468 0.559935 0.065079 0.064057
C27   C     C_R   0.523754 0.506245 0.954970 0.054408
C28   C     C_R   0.476160 0.493434 0.045015 0.054428
Cu1   Cu    Cu3+1 0.362980 0.479380 0.485080 0.954020
Cu2   Cu    Cu3+1 0.637020 0.520620 0.514920 0.954018
H1    H     H_    0.424989 0.447041 0.216990 0.164242
H2    H     H_    0.574970 0.552888 0.783040 0.164251
H3    H     H_    0.876413 0.600578 0.253335 0.156732
H4    H     H_    0.123571 0.399293 0.746632 0.156729
H5    H     H_    0.280825 0.460984 0.145885 0.133406
H6    H     H_    0.719037 0.538551 0.854087 0.133431
H7    H     H_    0.622145 0.137772 0.511725 0.191995
H8    H     H_    0.377683 0.862208 0.488573 0.191966
H9    H     H_    0.122539 0.577458 0.557813 0.159437
H10   H     H_    0.877461 0.422542 0.442186 0.159470
H11   H     H_    0.111176 0.384749 0.415291 0.195561
H12   H     H_    0.888824 0.615251 0.584708 0.195568
N1    N     N_2   0.842890 0.551600 0.537350 -0.281935
N2    N     N_2   0.157110 0.448400 0.462650 -0.281922
O1    O     O_R   0.426810 0.668300 0.492040 -0.592683
O2    O     O_R   0.573190 0.331700 0.507960 -0.592698
O3    O     O_R   0.658240 0.703130 0.517240 -0.570036
O4    O     O_R   0.341760 0.296870 0.482760 -0.570045
O5    O     O_R   0.319390 0.472820 0.610170 -0.573861
O6    O     O_R   0.680610 0.527180 0.389830 -0.573851
O7    O     O_R   0.550820 0.507640 0.635370 -0.576801
O8    O     O_R   0.449180 0.492360 0.364630 -0.576801
O9    O     O_3   0.064939 0.392944 0.060114 -0.633390
H13   H     H_    0.051602 0.390007 0.123609 0.309729
O10   O     O_3   0.934958 0.606567 0.939844 -0.633386
H14   H     H_    0.948278 0.609435 0.876346 0.309706
O11   O     O_3   0.002934 0.360460 0.911160 -0.636658
H15   H     H_    0.945640 0.345390 0.863555 0.313516
O12   O     O_3   0.997007 0.639212 0.088786 -0.636686
H16   H     H_    0.054316 0.654340 0.136388 0.313531
O13   O     O_3   0.269295 0.024294 0.476884 -0.734389
H17   H     H_    0.204334 0.071956 0.470737 0.347458
O14   O     O_3   0.730765 0.975712 0.523013 -0.734401
H18   H     H_    0.795822 0.928061 0.528986 0.347477

loop_
_geom_bond_atom_site_label_1
_geom_bond_atom_site_label_2
_ccdc_geom_bond_type
C13   O5    A    
C16   C22   A    
Cu2   O7    S    
C4    H6    S    
C11   N1    D    
Cu1   Cu2   S    
C23   C27   A    
Cu2   O3    S    
C9    C10   S    
C8    O13   S    
C18   C20   A    
C18   C26   A    
C3    H5    S    
C6    O10   S    
C16   C20   A    
C17   C25   A    
H11   N2    S    
O10   H14   S    
C13   C15   S    
Cu2   O6    S    
O12   H16   S    
C12   N2    D    
Cu1   O5    S    
O9    H13   S    
C2    O2    A    
C15   C19   A    
C19   H4    S    
C7    O14   S    
O11   H15   S    
C14   O6    A    
C12   H9    S    
C10   H7    S    
C5    C25   A    
C20   H3    S    
C5    O9    S    
C3    C28   A    
C17   C19   A    
C24   C26   A    
C22   C24   A    
C23   C25   A    
Cu1   N2    S    
O13   H17   S    
C21   H2    S    
C14   C16   S    
Cu2   N1    S    
Cu1   O1    S    
C22   H1    S    
Cu1   O4    S    
C11   H10   S    
C18   O12   S    
C15   C21   A    
C4    C27   A    
C4    C6    A    
H12   N1    S    
C1    O1    A    
C2    C8    S    
C27   C28   A    
C7    C9    D    
C6    C26   A    
C1    O3    A    
C1    C7    S    
C9    H8    S    
C2    O4    A    
C13   O7    A    
C21   C23   A    
Cu2   O2    S    
C8    C10   D    
C14   O8    A    
C24   C28   A    
C11   C12   S    
C17   O11   S    
O14   H18   S    
C3    C5    A    
Cu1   O8    S    
