data_mof_unit_36568.cif
_audit_creation_date              2012-12-10T17:07:43-0500
_audit_creation_method            fapswitch 2.2
_symmetry_space_group_name_H-M    P1
_symmetry_Int_Tables_number       1
_space_group_crystal_system       triclinic
_cell_length_a                    19.271209
_cell_length_b                    11.09615
_cell_length_c                    9.912241
_cell_angle_alpha                 111.238192
_cell_angle_beta                  98.215879
_cell_angle_gamma                 91.830212
_cell_volume                      1947.29636939

loop_
_atom_site_label
_atom_site_type_symbol
_atom_type_description
_atom_site_fract_x
_atom_site_fract_y
_atom_site_fract_z
_atom_type_partial_charge
C1    C     C_R   0.495535 0.254989 0.440637 0.880197
C2    C     C_R   0.503469 0.745118 0.559226 0.887564
C3    C     C_2   0.484681 0.117098 0.408480 -0.310882
C4    C     C_2   0.511397 0.883576 0.590535 -0.310786
C5    C     C_2   0.514200 0.063302 0.502061 -0.051237
C6    C     C_2   0.485034 0.933544 0.490546 -0.053657
C7    C     C_2   0.499423 0.526196 0.088308 0.377408
C8    C     C_2   0.484050 0.515944 0.927666 0.392927
C9    C     C_R   0.367737 0.497619 0.500410 0.860302
C10   C     C_R   0.632224 0.502665 0.499662 0.859411
C11   C     C_R   0.266552 0.604829 0.597618 -0.187997
C12   C     C_R   0.734747 0.396205 0.409249 -0.176871
C13   C     C_R   0.194351 0.615211 0.595452 -0.087659
C14   C     C_R   0.807164 0.388778 0.412320 -0.087129
C15   C     C_R   0.146468 0.509091 0.499884 -0.076400
C16   C     C_R   0.853719 0.498856 0.502774 -0.077895
C17   C     C_R   0.171459 0.395145 0.407905 0.392384
C18   C     C_R   0.827329 0.613932 0.588388 0.391552
C19   C     C_R   0.244610 0.388831 0.405544 -0.128367
C20   C     C_R   0.753991 0.617954 0.589605 -0.125484
C21   C     C_R   0.291821 0.495078 0.502107 -0.132578
C22   C     C_R   0.708122 0.507450 0.498566 -0.135217
C23   C     C_R   0.929910 0.500148 0.501816 0.515124
C24   C     C_R   0.070259 0.510111 0.501366 0.512790
Cu1   Cu    Cu3+1 0.512140 0.521810 0.644910 1.091354
Cu2   Cu    Cu3+1 0.487860 0.478190 0.355090 1.085846
H1    H     H_    0.303739 0.685956 0.668977 0.192892
H2    H     H_    0.698504 0.312159 0.342001 0.196935
H3    H     H_    0.547562 0.940353 0.689212 0.205588
H4    H     H_    0.443988 0.065005 0.316066 0.204652
N1    N     N_R   0.024229 0.476705 0.373821 -0.127524
N2    N     N_R   0.975890 0.533865 0.629430 -0.130530
N3    N     N_R   0.955196 0.472348 0.374069 -0.192737
N4    N     N_R   0.044934 0.538051 0.629145 -0.193693
N5    N     N_2   0.469620 0.445420 0.137370 -0.269392
N6    N     N_2   0.530380 0.554580 0.862630 -0.261661
O1    O     O_R   0.506480 0.332340 0.577400 -0.547969
O2    O     O_R   0.493520 0.667660 0.422600 -0.524222
O3    O     O_R   0.485980 0.295500 0.332650 -0.561108
O4    O     O_R   0.514020 0.704500 0.667350 -0.560230
O5    O     O_R   0.410390 0.518410 0.622410 -0.521269
O6    O     O_R   0.589610 0.481590 0.377590 -0.538429
O7    O     O_R   0.389900 0.481570 0.377660 -0.556314
O8    O     O_R   0.610100 0.518430 0.622340 -0.573843
C25   C     C_2   0.171454 0.740281 0.690217 0.912007
O9    O     O_2   0.115173 0.777140 0.654059 -0.540803
O10   O     O_R   0.215793 0.818588 0.819334 -0.750013
H5    H     H_    0.195015 0.901795 0.873735 0.353348
C26   C     C_2   0.831762 0.262991 0.323680 0.915804
O11   O     O_2   0.889396 0.231713 0.361654 -0.543282
O12   O     O_R   0.787609 0.177802 0.198287 -0.737458
H6    H     H_    0.809637 0.094913 0.147929 0.358272
O13   O     O_3   0.122914 0.290273 0.326341 -0.658233
H7    H     H_    0.145775 0.208800 0.310748 0.352620
O14   O     O_3   0.874684 0.721816 0.664648 -0.658695
H8    H     H_    0.850790 0.801244 0.673183 0.355595
C27   C     C_2   0.270951 0.271575 0.303291 0.886040
O15   O     O_2   0.322227 0.225060 0.346174 -0.592530
O16   O     O_R   0.236298 0.213332 0.158206 -0.707326
H9    H     H_    0.257523 0.131762 0.100777 0.344780
C28   C     C_2   0.725962 0.737024 0.684774 0.874274
O17   O     O_2   0.672814 0.776235 0.637738 -0.592504
O18   O     O_R   0.760914 0.805136 0.827952 -0.722392
H10   H     H_    0.737066 0.884749 0.881300 0.357158
C29   C     C_2   0.425908 0.859438 0.370203 0.914576
O19   O     O_2   0.372368 0.820303 0.400398 -0.583572
O20   O     O_R   0.432646 0.831140 0.223523 -0.769361
H11   H     H_    0.389641 0.778349 0.152656 0.339330
C30   C     C_2   0.577586 0.132270 0.612784 0.910015
O21   O     O_2   0.630845 0.159094 0.571681 -0.584580
O22   O     O_R   0.575178 0.170857 0.762676 -0.701426
H12   H     H_    0.621212 0.217787 0.826133 0.365779
O23   O     O_3   0.416791 0.473393 0.851101 -0.660485
H13   H     H_    0.384387 0.479947 0.922085 0.295961
O24   O     O_3   0.542593 0.630761 0.189678 -0.652315
H14   H     H_    0.545726 0.699535 0.148611 0.320177
C31   C     C_2   0.603059 0.574689 0.926174 0.978503
O25   O     O_2   0.630410 0.495786 0.971951 -0.585642
O26   O     O_R   0.643489 0.683318 0.931255 -0.729208
H15   H     H_    0.694161 0.687630 0.978882 0.352802
C32   C     C_2   0.438166 0.319963 0.040118 0.970737
O27   O     O_2   0.459700 0.262547 0.925398 -0.550941
O28   O     O_R   0.384532 0.259724 0.080694 -0.714117
H16   H     H_    0.367370 0.169988 0.005399 0.331257

loop_
_geom_bond_atom_site_label_1
_geom_bond_atom_site_label_2
_ccdc_geom_bond_type
O14   H8    S    
C10   O6    A    
O23   H13   S    
C32   O27   D    
N5    C32   S    
C7    C8    S    
C25   O9    D    
C10   C22   S    
C12   H2    S    
C19   C21   A    
N6    C31   S    
Cu1   O4    S    
C5    C6    S    
Cu2   O3    S    
C27   O16   S    
C14   C26   S    
C12   C22   A    
C23   N3    A    
C30   O22   S    
C8    N6    D    
C20   C28   S    
C28   O18   S    
C5    C30   S    
Cu1   O1    S    
C19   C27   S    
C6    C29   S    
O10   H5    S    
C29   O20   S    
N1    N3    A    
C4    H3    S    
C1    O1    A    
C25   O10   S    
O16   H9    S    
C28   O17   D    
Cu1   O8    S    
C32   O28   S    
Cu2   O7    S    
C31   O26   S    
C9    O7    A    
C10   O8    A    
O20   H11   S    
O26   H15   S    
C4    C6    D    
Cu1   O5    S    
Cu2   O2    S    
C7    O24   S    
C26   O12   S    
Cu1   Cu2   S    
C31   O25   D    
C11   C21   A    
C24   N4    A    
O12   H6    S    
C1    C3    S    
N2    N4    A    
C3    H4    S    
C2    C4    S    
O24   H14   S    
C2    O2    A    
O28   H16   S    
C11   H1    S    
C18   O14   S    
C15   C24   S    
C12   C14   A    
C26   O11   D    
C16   C23   S    
C13   C15   A    
C14   C16   A    
C17   O13   S    
Cu2   O6    S    
C15   C17   A    
C7    N5    D    
C20   C22   A    
C3    C5    D    
O13   H7    S    
C9    O5    A    
C23   N2    A    
C24   N1    A    
O22   H12   S    
C13   C25   S    
C11   C13   A    
C9    C21   S    
C27   O15   D    
C8    O23   S    
C17   C19   A    
C18   C20   A    
C30   O21   D    
C1    O3    A    
Cu1   N6    S    
O18   H10   S    
C2    O4    A    
Cu2   N5    S    
C16   C18   A    
C29   O19   D    
