data_mof_unit_42741.cif
_audit_creation_date              2012-12-11T18:32:25-0500
_audit_creation_method            fapswitch 2.2
_symmetry_space_group_name_H-M    P1
_symmetry_Int_Tables_number       1
_space_group_crystal_system       triclinic
_cell_length_a                    8.4183
_cell_length_b                    14.380964
_cell_length_c                    18.838672
_cell_angle_alpha                 95.065651
_cell_angle_beta                  93.752569
_cell_angle_gamma                 91.80507
_cell_volume                      2265.29777766

loop_
_atom_site_label
_atom_site_type_symbol
_atom_type_description
_atom_site_fract_x
_atom_site_fract_y
_atom_site_fract_z
_atom_type_partial_charge
Ba1   Ba    Ba6+2 0.841340 0.543980 0.464170 1.679821
Ba2   Ba    Ba6+2 0.348470 0.456100 0.535830 1.657821
C1    C     C_3   0.373908 0.744512 0.162226 -0.147155
C2    C     C_3   0.418272 0.509063 0.248043 -0.020388
C3    C     C_2   0.378594 0.500498 0.168362 -0.171121
C4    C     C_3   0.993490 0.755646 0.268721 0.332492
C5    C     C_2   0.230617 0.472805 0.141807 -0.052988
C6    C     C_2   0.104899 0.457279 0.194961 -0.031990
C7    C     C_1   0.144584 0.472712 0.266781 0.083010
C8    C     C_R   0.086210 0.468447 0.921641 0.457794
C9    C     C_R   0.192870 0.466690 0.062069 0.452126
C10   C     C_R   0.099537 0.518010 0.795752 -0.131575
C11   C     C_R   0.036325 0.516532 0.724278 0.045844
C12   C     C_3   0.460421 0.746961 0.237670 0.409205
C13   C     C_R   0.800132 0.432222 0.754531 0.009413
C14   C     C_R   0.864756 0.430434 0.825161 -0.151638
C15   C     C_R   0.017117 0.471866 0.846483 -0.069389
C16   C     C_3   0.952446 0.793911 0.197285 -0.390989
C17   C     C_R   0.890009 0.470642 0.704073 -0.272471
C18   C     C_R   0.691905 0.942317 0.552882 0.580386
C19   C     C_R   0.514790 0.803886 0.501317 0.146187
C20   C     C_R   0.376180 0.771316 0.460186 -0.216231
C21   C     C_R   0.265125 0.833316 0.437137 -0.002875
C22   C     C_R   0.302865 0.928810 0.446212 -0.109256
C23   C     C_3   0.502207 0.286318 0.316071 0.370357
C24   C     C_R   0.448388 0.963206 0.480237 -0.071197
C25   C     C_R   0.553503 0.902045 0.512509 -0.123809
C26   C     C_R   0.630876 0.097263 0.516333 -0.096711
C27   C     C_R   0.733478 0.038238 0.552655 -0.048136
C28   C     C_3   0.168284 0.746012 0.616009 0.835997
C29   C     C_R   0.679247 0.191939 0.512029 0.050232
C30   C     C_R   0.825594 0.226261 0.544201 -0.269612
C31   C     C_R   0.929272 0.167733 0.577685 -0.015128
C32   C     C_R   0.882581 0.074603 0.583546 -0.114363
C33   C     C_R   0.487562 0.058652 0.482001 -0.063064
C34   C     C_3   0.613263 0.305653 0.257410 -0.364347
C35   C     C_3   0.177080 0.851290 0.634523 -0.299214
C36   C     C_3   0.973633 0.241902 0.366892 0.284788
C37   C     C_3   0.969555 0.138903 0.330992 -0.031724
C38   C     C_3   0.706078 0.664428 0.672190 0.378388
C39   C     C_3   0.737341 0.692164 0.751831 -0.384089
C40   C     C_3   0.509527 0.845965 0.270326 -0.170939
C41   C     C_3   0.371980 0.912030 0.275160 -0.532543
C42   C     C_3   0.876222 0.120571 0.256647 -0.166220
C43   C     C_3   0.934747 0.174713 0.196632 -0.394265
C44   C     C_3   0.925563 0.064685 0.381980 -0.251139
C45   C     C_3   0.127522 0.249319 0.740800 0.343541
C46   C     C_3   0.759879 0.018225 0.368613 -0.384955
C47   C     C_3   0.350295 0.235897 0.282849 -0.152623
C48   C     C_3   0.376393 0.143323 0.238532 -0.442598
C49   C     C_3   0.480708 0.764761 0.101273 -0.179631
C50   C     C_3   0.478351 0.866469 0.083600 -0.438811
C51   C     C_3   0.937531 0.428833 0.164264 -0.185890
C52   C     C_3   0.859604 0.504832 0.122779 -0.318670
C53   C     C_3   0.161135 0.217866 0.815045 -0.363870
C54   C     C_3   0.598760 0.211210 0.707095 0.358333
C55   C     C_3   0.584216 0.117563 0.738268 -0.363646
C56   C     C_2   0.271938 0.525648 0.288397 -0.253027
F1    F     F_    0.789940 0.890406 0.591694 -0.721677
F2    F     F_    0.309523 0.718674 0.590915 -0.760289
H1    H     H_    0.282255 0.871451 0.672073 0.106061
H2    H     H_    0.829324 0.749844 0.760742 0.127542
H3    H     H_    0.779886 0.631989 0.779662 0.054871
H4    H     H_    0.625802 0.715687 0.774977 0.127661
H5    H     H_    0.376232 0.718361 0.274019 -0.073604
H6    H     H_    0.318670 0.673749 0.149313 0.071746
H7    H     H_    0.471534 0.354720 0.343305 0.003862
H8    H     H_    0.616183 0.247684 0.215064 0.091345
H9    H     H_    0.578898 0.367269 0.230288 0.064185
H10   H     H_    0.734700 0.316675 0.280943 0.147627
H11   H     H_    0.966755 0.739432 0.152894 0.072563
H12   H     H_    0.187693 0.887638 0.585406 0.071737
H13   H     H_    0.176574 0.321927 0.740246 0.070140
H14   H     H_    0.996178 0.247766 0.729521 -0.058308
H15   H     H_    0.290948 0.223687 0.830258 0.151832
H16   H     H_    0.097986 0.262297 0.854318 0.097579
H17   H     H_    0.118443 0.144180 0.816195 0.113767
H18   H     H_    0.725954 0.224268 0.697370 -0.068116
H19   H     H_    0.525568 0.206847 0.655531 0.089363
H20   H     H_    0.626111 0.061533 0.700384 0.087872
H21   H     H_    0.458173 0.101274 0.748047 0.148191
H22   H     H_    0.903082 0.701003 0.277293 0.129902
H23   H     H_    0.067765 0.873809 0.660028 0.122324
H24   H     H_    0.658145 0.119541 0.789452 0.113050
H25   H     H_    0.470395 0.514106 0.132559 0.080328
H26   H     H_    0.213259 0.553681 0.811365 0.110854
H27   H     H_    0.795251 0.398511 0.863528 0.096147
H28   H     H_    0.270682 0.579384 0.332583 0.042688
H29   H     H_    0.840827 0.470229 0.649515 0.054280
H30   H     H_    0.346487 0.697146 0.452577 0.081124
H31   H     H_    0.219444 0.977129 0.427281 0.059974
H32   H     H_    0.965944 0.030043 0.609036 0.128539
H33   H     H_    0.111525 0.723956 0.266866 -0.051480
H34   H     H_    0.854381 0.264743 0.378557 0.034545
H35   H     H_    0.864052 0.297606 0.538525 0.061324
H36   H     H_    0.408053 0.101054 0.452555 0.119462
H37   H     H_    0.827945 0.816368 0.194415 0.133058
H38   H     H_    0.031473 0.855426 0.190882 0.112965
H39   H     H_    0.070750 0.728199 0.574343 0.040938
H40   H     H_    0.337869 0.935833 0.222101 0.142802
H41   H     H_    0.267797 0.877286 0.295248 0.154919
H42   H     H_    0.408523 0.973701 0.312800 0.138140
H43   H     H_    0.563431 0.840599 0.325255 0.101741
H44   H     H_    0.601689 0.876330 0.239149 0.107636
H45   H     H_    0.049161 0.246690 0.417842 0.001941
H46   H     H_    0.869554 0.147816 0.145415 0.106123
H47   H     H_    0.910508 0.249214 0.205668 0.144267
H48   H     H_    0.063072 0.166636 0.190655 0.142444
H49   H     H_    0.748998 0.132992 0.262091 0.126168
H50   H     H_    0.886304 0.045713 0.237595 0.105962
H51   H     H_    0.666667 0.070192 0.369863 0.148811
H52   H     H_    0.749402 0.976535 0.316456 0.133109
H53   H     H_    0.742016 0.968334 0.408982 0.142457
H54   H     H_    0.005859 0.006356 0.373377 0.150190
H55   H     H_    0.946014 0.093044 0.438445 0.090734
H56   H     H_    0.093437 0.123568 0.320565 0.076604
H57   H     H_    0.395783 0.155763 0.182370 0.122846
H58   H     H_    0.479303 0.107095 0.261140 0.151150
H59   H     H_    0.270744 0.095587 0.237643 0.115686
H60   H     H_    0.284924 0.220527 0.329261 0.124475
H61   H     H_    0.281981 0.282564 0.249248 0.077025
H62   H     H_    0.354198 0.886945 0.071114 0.137518
H63   H     H_    0.533601 0.914282 0.128313 0.130018
H64   H     H_    0.547122 0.874584 0.036061 0.130193
H65   H     H_    0.605507 0.745167 0.112879 0.144696
H66   H     H_    0.435154 0.720652 0.052269 0.133806
H67   H     H_    0.819313 0.644002 0.649657 -0.054435
H68   H     H_    0.889359 0.575477 0.149800 0.138170
H69   H     H_    0.895326 0.504072 0.067435 0.126463
H70   H     H_    0.728999 0.492207 0.118344 0.116616
H71   H     H_    0.940399 0.363834 0.128276 0.105775
H72   H     H_    0.860765 0.410065 0.205844 0.143010
H73   H     H_    0.618285 0.604484 0.664796 0.059508
H74   H     H_    0.271925 0.791017 0.162468 0.075129
N1    N     N_R   0.183073 0.539026 0.954789 -0.248526
N2    N     N_R   0.234428 0.538395 0.023502 -0.261678
N3    N     N_R   0.102778 0.394081 0.027770 -0.255909
N4    N     N_R   0.049552 0.395330 0.959502 -0.261052
O1    O     O_2   0.878750 0.447310 0.330740 -0.469811
O2    O     O_2   0.251950 0.166965 0.555987 -0.490024
O3    O     O_3   0.200958 0.189118 0.691184 -0.594169
O4    O     O_3   0.131030 0.448880 0.418060 -0.473441
O5    O     O_3   0.553640 0.613150 0.531430 -0.467443
O6    O     O_2   0.393070 0.270760 0.474720 -0.464081
O7    O     O_3   0.575618 0.227488 0.363360 -0.672563
O8    O     O_2   0.472042 0.457423 0.756937 -0.484004
O9    O     O_3   0.543541 0.281485 0.755081 -0.592656
O10   O     O_3   0.627390 0.618170 0.367170 -0.475419
O11   O     O_2   0.738925 0.547709 0.253441 -0.485588
O12   O     O_3   0.646115 0.741188 0.639872 -0.539658
O13   O     O_3   0.042927 0.298482 0.319812 -0.673065
O14   O     O_3   0.600259 0.696154 0.233603 -0.620010
O15   O     O_2   0.796630 0.729270 0.525320 -0.435666
O16   O     O_3   0.039210 0.666640 0.400620 -0.493620
O17   O     O_2   0.946601 0.831712 0.456388 -0.456162
O18   O     O_3   0.994092 0.828926 0.323035 -0.621187
O19   O     O_2   0.310950 0.552720 0.669300 -0.417863
O20   O     O_3   0.058670 0.551200 0.581940 -0.495568
O21   O     O_3   0.562310 0.381900 0.632830 -0.484074
O22   O     O_3   0.143378 0.701859 0.677514 -0.662311
O23   O     O_3   0.636050 0.386930 0.468580 -0.475341
O24   O     O_3   0.150490 0.333430 0.599380 -0.478022
P1    P     P_3+3 0.053470 0.419720 0.342720 0.964436
P2    P     P_3+3 0.625250 0.715650 0.546950 1.153724
P3    P     P_3+3 0.063556 0.788913 0.404083 0.929933
P4    P     P_3+3 0.136230 0.580350 0.657290 1.042181
P5    P     P_3+3 0.132467 0.213203 0.605461 0.950031
P6    P     P_3+3 0.586723 0.593257 0.276132 0.927718
P7    P     P_3+3 0.571571 0.268966 0.454070 0.923192
P8    P     P_3+3 0.594767 0.389910 0.725870 0.952578

loop_
_geom_bond_atom_site_label_1
_geom_bond_atom_site_label_2
_ccdc_geom_bond_type
C13   C17   A    
C4    H22   S    
O21   P8    S    
C16   H38   S    
C48   H57   S    
Ba2   O6    S    
C36   O13   S    
C23   H7    S    
O23   P7    S    
C40   H43   S    
Ba2   O24   S    
C5    C6    S    
C51   C52   S    
C42   C43   S    
C5    C9    S    
C24   C25   A    
C54   H19   S    
C44   H55   S    
C17   H29   S    
C26   C27   A    
C22   C24   A    
C7    C56   D    
C36   C37   S    
C53   H17   S    
C50   H63   S    
C47   H60   S    
C8    C15   S    
C13   C14   A    
Ba1   P1    S    
C54   H18   S    
C54   C55   S    
C43   H48   S    
Ba1   Ba2   S    
C7    P1    S    
Ba1   O4    S    
C21   P3    S    
C50   H62   S    
Ba1   P2    S    
C14   C15   A    
C28   F2    S    
C10   C15   A    
C14   H27   S    
C21   C22   A    
O16   P3    S    
C51   H71   S    
C16   H37   S    
O22   P4    S    
Ba2   P4    S    
Ba1   O1    S    
O9    P8    S    
C12   C40   S    
C53   H15   S    
C42   H49   S    
O2    P5    D    
C19   C25   A    
Ba1   O23   S    
C19   P2    S    
C19   C20   A    
Ba2   O5    S    
C55   H20   S    
C31   P5    S    
O11   P6    D    
C39   H2    S    
C52   H70   S    
Ba2   O23   S    
O14   P6    S    
C34   H10   S    
C46   H51   S    
C44   C46   S    
C18   C27   A    
C4    C16   S    
O7    P7    S    
O3    P5    S    
C11   C17   A    
O15   P2    D    
C49   C50   S    
C49   H65   S    
N1    N2    A    
C41   H40   S    
C26   C33   A    
O4    P1    S    
C3    C5    D    
C44   H54   S    
C6    C7    D    
C29   P7    S    
C33   H36   S    
C38   H67   S    
C52   H68   S    
O6    P7    D    
C48   H59   S    
C28   C35   S    
C56   H28   S    
O19   P4    D    
C28   O22   S    
C41   H41   S    
Ba1   O5    S    
O17   P3    D    
C29   C30   A    
Ba2   O20   S    
C4    H33   S    
C47   H61   S    
C36   H34   S    
C31   C32   A    
C20   H30   S    
C55   H24   S    
C38   O12   S    
C51   H72   S    
C8    N1    A    
C18   F1    S    
Ba1   O15   S    
C45   H13   S    
C1    C12   S    
C37   C44   S    
C53   H16   S    
C38   C39   S    
C46   H52   S    
C37   H56   S    
O13   P1    S    
O8    P8    D    
Ba2   O4    S    
C55   H21   S    
C1    H6    S    
C40   C41   S    
Ba2   O21   S    
C2    C56   S    
C22   H31   S    
O5    P2    S    
C43   H46   S    
O20   P4    S    
C45   C53   S    
C38   H73   S    
C16   H11   S    
C52   H69   S    
Ba1   O20   S    
C1    C49   S    
C48   H58   S    
C49   H66   S    
C26   C29   A    
C45   H14   S    
C2    C3    S    
C40   H44   S    
C6    C51   S    
C35   H1    S    
C34   H8    S    
C37   C42   S    
C18   C25   A    
O12   P2    S    
N3    N4    A    
C45   O3    S    
C10   H26   S    
C1    H74   S    
C30   C31   A    
C54   O9    S    
O1    P1    D    
C34   H9    S    
C9    N3    A    
C41   H42   S    
C3    H25   S    
C28   H39   S    
C9    N2    A    
C50   H64   S    
C11   P4    S    
O18   P3    S    
C36   H45   S    
Ba2   O19   S    
O10   P6    S    
C27   C32   A    
C12   H5    S    
Ba1   O16   S    
C23   C47   S    
C23   C34   S    
O24   P5    S    
C2    P6    S    
C24   C33   A    
C30   H35   S    
C10   C11   A    
C13   P8    S    
C47   C48   S    
C35   H12   S    
C12   O14   S    
C39   H3    S    
C20   C21   A    
C35   H23   S    
Ba1   O10   S    
C23   O7    S    
C8    N4    A    
C39   H4    S    
C4    O18   S    
C43   H47   S    
C46   H53   S    
C32   H32   S    
C42   H50   S    
