data_mof_unit_41529.cif
_audit_creation_date              2012-12-10T18:06:47-0500
_audit_creation_method            fapswitch 2.2
_symmetry_space_group_name_H-M    P1
_symmetry_Int_Tables_number       1
_space_group_crystal_system       triclinic
_cell_length_a                    12.555609
_cell_length_b                    13.250849
_cell_length_c                    15.449399
_cell_angle_alpha                 82.848481
_cell_angle_beta                  100.996794
_cell_angle_gamma                 94.749081
_cell_volume                      2498.92413786

loop_
_atom_site_label
_atom_site_type_symbol
_atom_type_description
_atom_site_fract_x
_atom_site_fract_y
_atom_site_fract_z
_atom_type_partial_charge
C1    C     C_R   0.452857 0.308901 0.523982 0.964947
C2    C     C_R   0.637631 0.425927 0.948469 0.134047
C3    C     C_R   0.567420 0.502747 0.905790 0.120722
C4    C     C_R   0.434692 0.519931 0.335524 1.023557
C5    C     C_R   0.681691 0.365275 0.898388 -0.184530
C6    C     C_R   0.653259 0.377020 0.806194 0.053949
C7    C     C_R   0.559848 0.527495 0.813559 -0.221138
C8    C     C_R   0.738157 0.930273 0.504744 -0.152486
C9    C     C_R   0.594089 0.797163 0.497477 -0.038600
C10   C     C_R   0.349615 0.162599 0.601848 0.320527
C11   C     C_R   0.324633 0.056492 0.613249 0.284049
C12   C     C_R   0.437158 0.541692 0.096150 -0.062932
C13   C     C_R   0.400894 0.989534 0.602597 -0.178437
C14   C     C_R   0.492834 0.026219 0.564837 -0.007078
C15   C     C_R   0.520446 0.131433 0.556878 0.036077
C16   C     C_R   0.556208 0.691024 0.492116 0.909172
C17   C     C_R   0.561485 0.961001 0.537782 0.105564
C18   C     C_R   0.668078 0.996006 0.526524 0.157755
C19   C     C_R   0.702916 0.096136 0.537235 -0.212463
C20   C     C_R   0.630223 0.162910 0.550813 -0.096443
C21   C     C_R   0.523805 0.863853 0.516117 -0.190917
C22   C     C_R   0.701868 0.830392 0.491866 -0.184437
C23   C     C_R   0.373505 0.625000 0.060286 -0.103708
C24   C     C_R   0.440742 0.200263 0.561891 -0.312950
C25   C     C_R   0.136432 0.656608 0.606790 -0.137445
C26   C     C_R   0.757214 0.393244 0.386183 0.114976
C27   C     C_R   0.843570 0.402188 0.340652 -0.253318
C28   C     C_R   0.564615 0.482047 0.665117 0.854533
C29   C     C_R   0.936228 0.461201 0.370871 -0.148566
C30   C     C_R   0.946996 0.502725 0.451658 -0.013840
C31   C     C_R   0.853888 0.500024 0.491209 0.120591
C32   C     C_R   0.046433 0.545155 0.496882 -0.046418
C33   C     C_R   0.041314 0.612974 0.560027 0.114250
C34   C     C_R   0.510402 0.510478 0.047486 0.103659
C35   C     C_R   0.942440 0.622203 0.586369 -0.302395
C36   C     C_R   0.863852 0.542819 0.571266 0.425491
C37   C     C_R   0.149849 0.513882 0.492001 0.110165
C38   C     C_R   0.235667 0.623872 0.598737 0.042683
C39   C     C_R   0.395264 0.549610 0.240596 -0.296753
C40   C     C_R   0.599764 0.463990 0.762423 -0.024612
C41   C     C_R   0.324323 0.672551 0.117281 -0.151674
C42   C     C_R   0.340789 0.640583 0.208185 0.377376
C43   C     C_R   0.425312 0.492168 0.180190 0.303597
C44   C     C_1   0.401715 0.890459 0.654143 0.254204
C45   C     C_R   0.502424 0.546118 0.956104 0.005822
C46   C     C_1   0.164535 0.435919 0.438695 0.363923
C47   C     C_1   0.666647 0.323795 0.358847 0.238184
C48   C     C_1   0.663571 0.289512 0.762964 0.289977
C49   C     C_R   0.425097 0.618346 0.917861 -0.261661
C50   C     C_R   0.362434 0.659193 0.969172 0.475922
C51   C     C_R   0.595427 0.448835 0.089733 -0.109343
C52   C     C_R   0.656547 0.404924 0.040516 -0.176598
H1    H     H_    0.727543 0.300959 0.931483 0.155911
H2    H     H_    0.133286 0.710370 0.653018 0.198747
H3    H     H_    0.998120 0.473868 0.330255 0.173823
H4    H     H_    0.838871 0.364344 0.281617 0.161004
H5    H     H_    0.715057 0.350709 0.074230 0.158458
H6    H     H_    0.280955 0.740255 0.092969 0.253929
H7    H     H_    0.412221 0.645188 0.848313 0.199555
H8    H     H_    0.612435 0.431163 0.161182 0.158868
H9    H     H_    0.174374 0.778826 0.784297 0.411763
H10   H     H_    0.205001 0.226072 0.772453 0.402137
H11   H     H_    0.276912 0.966592 0.770175 0.380678
H12   H     H_    0.757982 0.779523 0.477673 0.170958
H13   H     H_    0.999899 0.378851 0.758145 0.397405
H14   H     H_    0.188590 0.701508 0.372470 0.376047
H15   H     H_    0.334963 0.246187 0.289637 0.396979
H16   H     H_    0.785713 0.123794 0.532992 0.182929
H17   H     H_    0.820782 0.955913 0.498190 0.178480
H18   H     H_    0.438875 0.839690 0.512865 0.190405
H19   H     H_    0.666258 0.237073 0.563594 0.219781
H20   H     H_    0.310196 0.654418 0.635906 0.158830
H21   H     H_    0.517108 0.592060 0.778668 0.148266
H22   H     H_    0.942035 0.665106 0.641711 0.197060
N1    N     N_R   0.239390 0.551900 0.544730 -0.123688
N2    N     N_R   0.759950 0.448600 0.455730 -0.141762
N3    N     N_1   0.404795 0.812146 0.696586 -0.182339
N4    N     N_1   0.175714 0.373187 0.395812 -0.129460
N5    N     N_1   0.595283 0.266055 0.337071 -0.090314
N6    N     N_1   0.671787 0.216135 0.732135 -0.168903
O1    O     O_R   0.374950 0.371210 0.521360 -0.551821
O2    O     O_2   0.307403 0.852858 0.939061 -0.261011
O3    O     O_3   0.244760 0.747353 0.805705 -0.576079
O4    O     O_2   0.366563 0.326512 0.692994 -0.320394
O5    O     O_2   0.190424 0.288001 0.599546 -0.262399
O6    O     O_3   0.245684 0.177540 0.749449 -0.466631
O7    O     O_2   0.109301 0.079067 0.598790 -0.192099
O8    O     O_2   0.164460 0.909045 0.590034 -0.325632
O9    O     O_3   0.199357 0.975366 0.744305 -0.437619
O10   O     O_2   0.827902 0.499766 0.736853 -0.317447
O11   O     O_2   0.808478 0.357011 0.644447 -0.336605
O12   O     O_R   0.542050 0.338030 0.492790 -0.635105
O13   O     O_3   0.001521 0.429884 0.705729 -0.506684
O14   O     O_2   0.390737 0.759928 0.338989 -0.331544
O15   O     O_2   0.239024 0.808437 0.221272 -0.245682
O16   O     O_3   0.206399 0.653289 0.333953 -0.559652
O17   O     O_2   0.274873 0.348566 0.127614 -0.234946
O18   O     O_2   0.460775 0.295584 0.161745 -0.282210
O19   O     O_3   0.365510 0.317268 0.292754 -0.568052
O20   O     O_R   0.368720 0.526070 0.390200 -0.552805
O21   O     O_R   0.535820 0.492890 0.361630 -0.628853
O22   O     O_R   0.457950 0.661970 0.507210 -0.605835
O23   O     O_R   0.625050 0.628790 0.478640 -0.652042
O24   O     O_R   0.464180 0.507110 0.638370 -0.596096
O25   O     O_R   0.631280 0.473930 0.609800 -0.573764
O26   O     O_2   0.159787 0.720655 0.947306 -0.264040
S1    S     S_3+6 0.265952 0.748054 0.916090 0.042946
S2    S     S_3+6 0.286996 0.242766 0.660136 0.083678
S3    S     S_3+6 0.195149 0.004491 0.634644 0.098856
S4    S     S_3+6 0.870671 0.454673 0.666828 0.036117
S5    S     S_3+6 0.294884 0.719648 0.276433 0.050554
S6    S     S_3+6 0.382554 0.360070 0.188803 0.053116
Zn1   Zn    Zn3+2 0.388420 0.522150 0.519080 1.056521
Zn2   Zn    Zn3+2 0.611580 0.477850 0.480920 0.990737

loop_
_geom_bond_atom_site_label_1
_geom_bond_atom_site_label_2
_ccdc_geom_bond_type
C35   H22   S    
C27   C29   A    
C41   C42   A    
C10   S2    S    
C19   C20   A    
C47   N5    T    
C7    H21   S    
H10   O6    S    
C12   C23   A    
C34   C51   A    
C6    C48   S    
O11   S4    D    
C5    H1    S    
C44   N3    T    
C9    C16   S    
C41   H6    S    
C12   C43   A    
C3    C7    A    
C30   C31   A    
C9    C22   A    
C11   S3    S    
O26   S1    D    
C28   C40   S    
C1    O1    A    
O9    S3    S    
O14   S5    D    
C18   C19   A    
O4    S2    D    
C35   C36   A    
N2    Zn2   S    
C7    C40   A    
C20   H19   S    
N1    Zn1   S    
O5    S2    D    
H15   O19   S    
O13   S4    S    
H13   O13   S    
C37   N1    A    
C13   C14   A    
O21   Zn2   S    
C14   C17   A    
C39   C42   A    
C38   N1    A    
C15   C20   A    
O16   S5    S    
C38   H20   S    
O18   S6    D    
C51   C52   A    
O25   Zn2   S    
O23   Zn2   S    
C25   H2    S    
H9    O3    S    
C46   N4    T    
O17   S6    D    
C8    H17   S    
C27   H4    S    
C23   C50   A    
C39   C43   A    
C29   H3    S    
C10   C24   A    
C32   C37   A    
C8    C22   A    
C3    C45   A    
C8    C18   A    
C42   S5    S    
C29   C30   A    
C25   C38   A    
C28   O24   A    
C16   O23   A    
C26   N2    A    
C4    C39   S    
C45   C49   A    
C28   O25   A    
C4    O21   A    
H11   O9    S    
C17   C18   A    
C26   C27   A    
C19   H16   S    
C34   C45   A    
O2    S1    D    
C2    C52   A    
C26   C47   S    
O8    S3    D    
C16   O22   A    
C15   C24   A    
C1    O12   A    
C4    O20   A    
C36   S4    S    
C50   S1    S    
C6    C40   A    
C2    C5    A    
C43   S6    S    
O10   S4    D    
C12   C34   A    
C52   H5    S    
H14   O16   S    
C14   C15   A    
O6    S2    S    
O20   Zn1   S    
C49   H7    S    
O7    S3    D    
C23   C41   A    
C21   H18   S    
C32   C33   A    
C48   N6    T    
C2    C3    A    
O22   Zn1   S    
O15   S5    D    
C30   C32   A    
C11   C13   A    
C9    C21   A    
C31   N2    A    
C5    C6    A    
O19   S6    S    
C33   C35   A    
O3    S1    S    
C17   C21   A    
C10   C11   A    
C22   H12   S    
O24   Zn1   S    
C1    C24   S    
C49   C50   A    
O1    Zn1   S    
C31   C36   A    
C51   H8    S    
C37   C46   S    
O12   Zn2   S    
C13   C44   S    
C25   C33   A    
