data_mof_unit_35279.cif
_audit_creation_date              2012-10-26T19:50:41-0400
_audit_creation_method            fapswitch 2.2
_symmetry_space_group_name_H-M    P1
_symmetry_Int_Tables_number       1
_space_group_crystal_system       triclinic
_cell_length_a                    14.027013
_cell_length_b                    15.157732
_cell_length_c                    15.655866
_cell_angle_alpha                 95.772379
_cell_angle_beta                  71.728321
_cell_angle_gamma                 91.027345
_cell_volume                      3144.52851496

loop_
_atom_site_label
_atom_site_type_symbol
_atom_type_description
_atom_site_fract_x
_atom_site_fract_y
_atom_site_fract_z
_atom_type_partial_charge
C1    C     C_R   0.502792 0.670301 0.496018 0.595243
C2    C     C_R   0.535587 0.175108 0.421892 0.264934
C3    C     C_R   0.508449 0.768020 0.488488 -0.041766
C4    C     C_R   0.490184 0.233026 0.500811 -0.009406
C5    C     C_R   0.570857 0.824765 0.526478 0.005094
C6    C     C_R   0.425237 0.197215 0.579226 0.025103
C7    C     C_R   0.556753 0.918330 0.535823 0.246918
C8    C     C_R   0.414980 0.103944 0.580531 0.274639
C9    C     C_R   0.482320 0.953091 0.504837 -0.009286
C10   C     C_R   0.470872 0.048660 0.504130 -0.018561
C11   C     C_R   0.917660 0.457150 0.422556 0.010363
C12   C     C_R   0.498594 0.329900 0.499220 0.615317
C13   C     C_R   0.100783 0.581980 0.521673 0.000625
C14   C     C_R   0.813474 0.451799 0.430680 0.131768
C15   C     C_R   0.198212 0.576201 0.532225 0.138382
C16   C     C_R   0.440380 0.491153 0.671265 0.553442
C17   C     C_R   0.560278 0.504814 0.327612 0.613194
C18   C     C_R   0.771941 0.545962 0.568447 0.399351
C19   C     C_R   0.215009 0.426610 0.466313 0.386470
C20   C     C_R   0.872808 0.543170 0.566036 -0.084663
C21   C     C_R   0.112512 0.427203 0.473852 -0.094624
C22   C     C_R   0.948055 0.503460 0.492237 -0.042474
C23   C     C_R   0.401254 0.391766 0.075902 -0.085498
C24   C     C_R   0.055784 0.505095 0.494371 -0.048790
C25   C     C_R   0.410644 0.469444 0.767640 -0.077275
C26   C     C_R   0.593803 0.506627 0.226901 -0.056100
C27   C     C_R   0.284821 0.470390 0.919049 0.177681
C28   C     C_R   0.724050 0.520136 0.082059 0.189258
C29   C     C_R   0.315528 0.496672 0.830146 -0.022841
C30   C     C_R   0.693063 0.530088 0.177835 0.022336
C31   C     C_R   0.478025 0.421793 0.799664 0.061546
C32   C     C_R   0.525163 0.486508 0.177833 0.003218
C33   C     C_R   0.456378 0.420359 0.893778 -0.016164
C34   C     C_R   0.634830 0.422123 0.895296 -0.025183
C35   C     C_R   0.562591 0.456062 0.084551 -0.063876
C36   C     C_R   0.354720 0.424397 0.947179 0.011180
C37   C     C_R   0.665374 0.468591 0.037273 -0.027022
C38   C     C_R   0.530714 0.420669 0.939147 0.006326
C39   C     C_R   0.497722 0.423915 0.034622 -0.013924
C40   C     C_2   0.993780 0.410636 0.343333 0.619817
C41   C     C_2   0.045029 0.667910 0.540543 0.598316
C42   C     C_2   0.784607 0.385022 0.368939 0.684760
C43   C     C_2   0.230194 0.653892 0.581111 0.663627
C44   C     C_2   0.422842 0.527732 0.212097 0.651666
C45   C     C_R   0.330306 0.387544 0.030161 0.249103
C46   C     C_2   0.550853 0.352337 0.741228 0.594220
C47   C     C_2   0.760328 0.575703 0.224635 0.679438
C48   C     C_2   0.249284 0.555604 0.804872 0.671662
C49   C     C_2   0.659689 0.789635 0.544795 0.699086
C50   C     C_2   0.366130 0.256367 0.659217 0.613140
C51   C     C_R   0.702200 0.437613 0.944304 0.263204
C52   C     C_R   0.432301 0.897826 0.456784 -0.097459
C53   C     C_R   0.526649 0.084322 0.425668 -0.074238
C54   C     C_R   0.449380 0.806670 0.443304 0.207658
Cu1   Cu    Cu3+1 0.403570 0.500010 0.500000 1.206821
Cu2   Cu    Cu3+1 0.596430 0.499990 0.500000 1.196357
H1    H     H_    0.893269 0.571350 0.624028 0.194807
H2    H     H_    0.980332 0.770601 0.631467 0.376478
H3    H     H_    0.794195 0.343871 0.239787 0.380042
H4    H     H_    0.249741 0.786286 0.594904 0.373833
H5    H     H_    0.550376 0.672887 0.726411 0.380333
H6    H     H_    0.405573 0.303068 0.285021 0.381430
H7    H     H_    0.277501 0.520954 0.287581 0.371283
H8    H     H_    0.611155 0.230193 0.731777 0.388991
H9    H     H_    0.776252 0.670078 0.318990 0.382580
H10   H     H_    0.121257 0.569214 0.774161 0.390199
H11   H     H_    0.180730 0.654122 0.996392 0.372532
H12   H     H_    0.077450 0.365965 0.458964 0.183148
H13   H     H_    0.716443 0.642630 0.948393 0.357687
H14   H     H_    0.270338 0.706380 0.371247 0.387018
H15   H     H_    0.616985 0.324981 0.243777 0.348307
H16   H     H_    0.745683 0.798054 0.626673 0.382468
H17   H     H_    0.256533 0.349145 0.711093 0.363610
H18   H     H_    0.793561 0.989627 0.571705 0.390058
H19   H     H_    0.191524 0.094909 0.777961 0.399215
H20   H     H_    0.382440 0.367682 0.141831 0.184079
H21   H     H_    0.666511 0.408244 0.823325 0.205210
H22   H     H_    0.384815 0.927384 0.424184 0.193768
H23   H     H_    0.565837 0.039975 0.366618 0.191436
H24   H     H_    0.326747 0.198225 0.053325 0.367191
H25   H     H_    0.898552 0.289524 0.795076 0.391717
H26   H     H_    0.046471 0.292887 0.272735 0.411342
N1    N     N_R   0.741310 0.499980 0.500000 -0.276875
N2    N     N_R   0.258690 0.500020 0.500000 -0.261252
O1    O     O_R   0.418570 0.628550 0.499990 -0.460415
O2    O     O_2   0.202722 0.276683 0.978136 -0.194223
O3    O     O_3   0.269043 0.225432 0.102906 -0.456564
O4    O     O_2   0.885565 0.467992 0.830241 -0.184103
O5    O     O_2   0.878449 0.384293 0.958921 -0.180037
O6    O     O_3   0.826877 0.305380 0.825609 -0.493982
O7    O     O_2   0.064742 0.451545 0.298575 -0.401242
O8    O     O_R   0.986528 0.319224 0.323227 -0.617933
O9    O     O_2   0.019123 0.696981 0.481016 -0.438714
O10   O     O_R   0.019549 0.713838 0.626873 -0.629510
O11   O     O_2   0.755995 0.312949 0.394749 -0.387285
O12   O     O_R   0.581430 0.371450 0.500010 -0.443252
O13   O     O_R   0.806000 0.398422 0.277959 -0.640316
O14   O     O_2   0.259976 0.643722 0.644425 -0.449891
O15   O     O_R   0.225798 0.739293 0.555789 -0.647303
O16   O     O_2   0.656721 0.534554 0.737968 -0.306297
O17   O     O_2   0.751505 0.668910 0.709672 -0.261060
O18   O     O_3   0.591275 0.654137 0.663237 -0.483579
O19   O     O_2   0.277707 0.261525 0.472187 -0.226156
O20   O     O_2   0.221157 0.287015 0.345107 -0.255709
O21   O     O_3   0.396041 0.342913 0.341287 -0.453425
O22   O     O_2   0.407379 0.595584 0.182067 -0.402544
O23   O     O_R   0.581440 0.628540 0.499990 -0.445169
O24   O     O_R   0.343374 0.487175 0.272622 -0.636858
O25   O     O_2   0.604333 0.363854 0.665314 -0.458774
O26   O     O_R   0.559771 0.272536 0.776252 -0.619280
O27   O     O_2   0.850007 0.557097 0.199211 -0.365094
O28   O     O_R   0.722248 0.642869 0.294706 -0.627289
O29   O     O_2   0.266097 0.635057 0.806559 -0.423899
O30   O     O_R   0.164284 0.521490 0.785469 -0.605127
O31   O     O_2   0.087649 0.447140 0.998825 -0.086017
O32   O     O_2   0.179049 0.523633 0.093890 -0.210283
O33   O     O_3   0.134235 0.611026 0.979392 -0.411160
O34   O     O_R   0.418560 0.371460 0.500010 -0.419702
O35   O     O_2   0.803023 0.684687 0.079538 -0.205109
O36   O     O_2   0.916161 0.562653 0.997428 -0.067495
O37   O     O_3   0.785761 0.617935 0.927252 -0.427306
O38   O     O_2   0.398283 0.813190 0.291766 -0.222017
O39   O     O_2   0.516848 0.698021 0.292199 -0.225102
O40   O     O_3   0.329159 0.677462 0.379514 -0.483439
O41   O     O_2   0.705266 0.173375 0.283794 -0.184267
O42   O     O_2   0.547651 0.165297 0.248691 -0.255988
O43   O     O_3   0.599247 0.317470 0.309015 -0.525858
O44   O     O_2   0.723786 0.746387 0.484491 -0.461714
O45   O     O_R   0.372890 0.500010 0.629830 -0.475393
O46   O     O_R   0.675072 0.812884 0.628054 -0.567610
O47   O     O_2   0.374998 0.249211 0.733388 -0.429023
O48   O     O_R   0.295047 0.315607 0.651140 -0.623968
O49   O     O_2   0.629267 0.086380 0.566196 -0.274852
O50   O     O_2   0.607068 0.984465 0.681444 -0.170976
O51   O     O_3   0.756985 0.958265 0.533153 -0.465200
O52   O     O_2   0.307425 0.962731 0.653281 -0.274270
O53   O     O_2   0.384635 0.058501 0.747839 -0.162384
O54   O     O_3   0.225673 0.116434 0.718391 -0.448925
O55   O     O_R   0.627110 0.499990 0.370170 -0.488851
O56   O     O_R   0.535760 0.500000 0.629840 -0.414408
O57   O     O_R   0.464240 0.500000 0.370160 -0.410739
O58   O     O_2   0.141823 0.354251 0.130094 -0.138924
S1    S     S_3+6 0.231696 0.310958 0.059948 0.126766
S2    S     S_3+6 0.333213 0.056804 0.676692 0.113039
S3    S     S_3+6 0.827989 0.400791 0.890189 0.108715
S4    S     S_3+6 0.691833 0.601662 0.671355 0.076088
S5    S     S_3+6 0.278054 0.327065 0.406256 0.107412
S6    S     S_3+6 0.169352 0.512086 0.000472 0.152615
S7    S     S_3+6 0.810669 0.597902 0.021932 0.156064
S8    S     S_3+6 0.423884 0.748823 0.348706 0.091560
S9    S     S_3+6 0.598894 0.207738 0.313275 0.070548
S10   S     S_3+6 0.636293 0.990792 0.581334 0.090459

loop_
_geom_bond_atom_site_label_1
_geom_bond_atom_site_label_2
_ccdc_geom_bond_type
C25   C31   A    
Cu1   Cu2   S    
C26   C32   A    
C23   C45   A    
C27   C29   A    
C2    C4    A    
C43   O14   D    
C23   H20   S    
H4    O15   S    
C5    C49   S    
C13   C41   S    
O19   S5    D    
C54   S8    S    
H6    O21   S    
O5    S3    D    
O49   S10   D    
C34   C51   A    
O33   S6    S    
Cu1   O57   S    
C17   C26   S    
O38   S8    D    
C48   O30   S    
C19   C21   A    
C43   O15   S    
H24   O3    S    
C34   H21   S    
C38   C39   A    
Cu2   O56   S    
C3    C54   A    
C47   O27   D    
C51   S3    S    
C47   O28   S    
O21   S5    S    
C16   C25   S    
C33   C36   A    
H26   O8    S    
C53   H23   S    
C17   O57   A    
C10   C53   A    
O41   S9    D    
O43   S9    S    
C41   O9    D    
O16   S4    D    
C27   S6    S    
Cu1   O45   S    
C31   C46   S    
O4    S3    D    
C31   C33   A    
C4    C12   S    
C9    C10   S    
C14   C42   S    
O39   S8    D    
C28   S7    S    
C1    O1    A    
O20   S5    D    
H15   O43   S    
C16   O56   A    
C9    C52   A    
C14   N1    A    
C52   H22   S    
C52   C54   A    
O2    S1    D    
C7    C9    A    
C44   O24   S    
C25   C29   A    
O17   S4    D    
C29   C48   S    
C42   O11   D    
C32   C35   A    
C30   C47   S    
C4    C6    A    
C42   O13   S    
O35   S7    D    
C5    C7    A    
Cu2   O55   S    
C6    C8    A    
C3    C5    A    
O31   S6    D    
H19   O54   S    
C6    C50   S    
C13   C24   A    
C1    C3    S    
Cu1   O1    S    
C35   C39   A    
Cu2   O23   S    
O42   S9    D    
H8    O26   S    
C41   O10   S    
H13   O37   S    
O50   S10   D    
H18   O51   S    
C18   N1    A    
O36   S7    D    
C36   C45   A    
C17   O55   A    
C40   O8    S    
C16   O45   A    
H11   O33   S    
C50   O48   S    
C1    O23   A    
C12   O34   A    
H25   O6    S    
O53   S2    D    
C20   C22   A    
C26   C30   A    
C46   O26   S    
C21   H12   S    
H3    O13   S    
C22   C24   S    
C21   C24   A    
H9    O28   S    
C19   N2    A    
Cu2   N1    S    
O32   S6    D    
C2    S9    S    
Cu2   O12   S    
C49   O44   D    
O40   S8    S    
H10   O30   S    
C35   C37   A    
C34   C38   A    
C18   S4    S    
C2    C53   A    
H16   O46   S    
C15   N2    A    
C44   O22   D    
C27   C36   A    
O6    S3    S    
C49   O46   S    
C11   C22   A    
C33   C38   A    
Cu1   N2    S    
C13   C15   A    
H5    O18   S    
C20   H1    S    
C15   C43   S    
O52   S2    D    
O54   S2    S    
O18   S4    S    
C28   C37   A    
C23   C39   A    
C28   C30   A    
C37   C51   A    
C11   C14   A    
O37   S7    S    
C18   C20   A    
C40   O7    D    
H2    O10   S    
C11   C40   S    
C19   S5    S    
H17   O48   S    
C50   O47   D    
C7    S10   S    
C8    S2    S    
H14   O40   S    
C32   C44   S    
C8    C10   A    
C46   O25   D    
C45   S1    S    
O58   S1    D    
C12   O12   A    
O3    S1    S    
H7    O24   S    
O51   S10   S    
C48   O29   D    
Cu1   O34   S    
