data_mof_unit_41910.cif
_audit_creation_date              2013-03-05T16:48:15-0500
_audit_creation_method            fapswitch 2.2
_symmetry_space_group_name_H-M    P1
_symmetry_Int_Tables_number       1
_space_group_crystal_system       triclinic
_cell_length_a                    23.413088
_cell_length_b                    8.929119
_cell_length_c                    8.078546
_cell_angle_alpha                 89.318638
_cell_angle_beta                  89.712825
_cell_angle_gamma                 89.082481
_cell_volume                      1688.53109579

loop_
_atom_site_label
_atom_site_type_symbol
_atom_site_description
_atom_site_fract_x
_atom_site_fract_y
_atom_site_fract_z
_atom_type_partial_charge
O1    O     O_R   0.500000 0.285350 0.636850 -0.617097
O2    O     O_R   0.500000 0.714650 0.363150 -0.632864
O3    O     O_R   0.500000 0.714650 0.636850 -0.615257
O4    O     O_R   0.500000 0.285350 0.363150 -0.620331
H1    H     H_    0.942012 0.181849 0.620175 0.190529
H2    H     H_    0.054834 0.914635 0.463263 0.193299
H3    H     H_    0.951019 0.927138 0.459413 0.184939
H4    H     H_    0.045550 0.167808 0.613443 0.187514
C1    C     C_R   0.500108 0.217871 0.500611 0.935726
C2    C     C_R   0.499986 0.782116 0.499371 0.935765
O5    O     O_R   0.416160 0.500000 0.636910 -0.577646
O6    O     O_R   0.583840 0.500000 0.363090 -0.594671
O7    O     O_R   0.583840 0.500000 0.636910 -0.599649
O8    O     O_R   0.416160 0.500000 0.363090 -0.584976
C3    C     C_R   0.207100 0.517590 0.519800 0.223857
C4    C     C_R   0.790085 0.564204 0.507204 0.213227
C5    C     C_R   0.388750 0.499150 0.500751 0.951468
C6    C     C_R   0.610922 0.503275 0.499683 0.975008
Zn1   Zn    Zn3+2 0.500000 0.500000 0.682780 1.010308
Zn2   Zn    Zn3+2 0.500000 0.500000 0.317220 0.998991
H5    H     H_    0.210503 0.600146 0.270584 0.161001
H6    H     H_    0.794015 0.417489 0.299483 0.163206
H7    H     H_    0.213277 0.426821 0.762891 0.144692
H8    H     H_    0.774849 0.716185 0.706085 0.158295
C7    C     C_R   0.295105 0.561921 0.369125 0.371168
C8    C     C_R   0.707491 0.448039 0.386531 0.372283
C9    C     C_R   0.297398 0.445903 0.648264 0.384291
C10   C     C_R   0.695913 0.623777 0.615966 0.388076
C11   C     C_R   0.326006 0.500842 0.504858 -0.228188
C12   C     C_R   0.672461 0.525088 0.500030 -0.233624
C13   C     C_R   0.880268 0.692576 0.500776 0.519900
C14   C     C_R   0.116034 0.398700 0.553154 0.513346
C15   C     C_R   0.877495 0.430283 0.564227 0.510051
C16   C     C_R   0.119581 0.663891 0.508727 0.512443
N1    N     N_R   0.850603 0.563525 0.526207 -0.331044
N2    N     N_R   0.146206 0.527037 0.527559 -0.332652
C17   C     C_R   0.936922 0.420946 0.568066 -0.015578
C18   C     C_R   0.059960 0.674875 0.510644 -0.016491
C19   C     C_R   0.939977 0.689700 0.508425 -0.018270
C20   C     C_R   0.056535 0.404982 0.562282 -0.018436
C21   C     C_R   0.968364 0.551759 0.538933 -0.021876
C22   C     C_R   0.028344 0.544036 0.538050 -0.021833
C23   C     C_R   0.965418 0.283705 0.597033 -0.168157
C24   C     C_R   0.031368 0.812617 0.484676 -0.163351
C25   C     C_R   0.971868 0.819825 0.482564 -0.172697
C26   C     C_R   0.024749 0.275585 0.592908 -0.169421
C27   C     C_1   0.500119 0.065143 0.500846 -0.191307
C28   C     C_1   0.500083 0.934822 0.499065 -0.191123
C29   C     C_R   0.235418 0.563073 0.376222 -0.249584
C30   C     C_R   0.766174 0.473876 0.386963 -0.242847
C31   C     C_R   0.237528 0.460334 0.654911 -0.258137
C32   C     C_R   0.755304 0.642571 0.618035 -0.247681
N3    N     N_1   0.500000 0.500000 0.073640 -0.040292
N4    N     N_1   0.500000 0.500000 0.926360 -0.039141
O9    O     O_2   0.852135 0.821995 0.465260 -0.570081
O10   O     O_2   0.143614 0.265232 0.567472 -0.553923
O11   O     O_2   0.846573 0.306922 0.597078 -0.571321
O12   O     O_2   0.150786 0.788705 0.488752 -0.561460
O13   O     O_3   0.324178 0.604664 0.225742 -0.623149
C33   C     C_3   0.304829 0.744183 0.159365 0.086749
H9    H     H_    0.342539 0.817567 0.147141 0.169969
H10   H     H_    0.273530 0.805855 0.238929 0.148332
C34   C     C_3   0.280185 0.720295 0.986572 -0.359586
H11   H     H_    0.312925 0.663188 0.908710 0.260813
H12   H     H_    0.242107 0.648145 0.995739 0.208315
C35   C     C_3   0.262740 0.867309 0.901728 -0.920110
H13   H     H_    0.229202 0.926069 0.975194 0.271865
H14   H     H_    0.245243 0.843794 0.777315 0.295120
H15   H     H_    0.300405 0.940246 0.886138 0.259342
O14   O     O_3   0.683348 0.351376 0.273963 -0.627602
C36   C     C_3   0.709731 0.207279 0.281488 0.088366
H16   H     H_    0.675775 0.124304 0.304705 0.153052
H17   H     H_    0.740597 0.191038 0.385485 0.173389
C37   C     C_3   0.738707 0.172706 0.115383 -0.369417
H18   H     H_    0.705506 0.149764 0.021530 0.224651
H19   H     H_    0.763189 0.271202 0.071521 0.237934
C38   C     C_3   0.779599 0.038176 0.129264 -0.877336
H20   H     H_    0.815704 0.064559 0.212155 0.296481
H21   H     H_    0.797060 0.010980 0.004960 0.265043
H22   H     H_    0.757285 0.938645 0.179353 0.268724
O15   O     O_3   0.330717 0.382583 0.775637 -0.624882
C39   C     C_3   0.300166 0.313611 0.906243 0.081584
H23   H     H_    0.273086 0.222543 0.858312 0.157980
H24   H     H_    0.273633 0.397677 0.973065 0.151929
C40   C     C_3   0.343103 0.246400 0.029607 -0.279500
H25   H     H_    0.368543 0.156304 0.968668 0.209145
H26   H     H_    0.372899 0.334782 0.068968 0.267161
C41   C     C_3   0.313532 0.182095 0.182963 -0.940830
H27   H     H_    0.288455 0.270567 0.247124 0.283766
H28   H     H_    0.346080 0.135648 0.269832 0.259217
H29   H     H_    0.284320 0.091396 0.148422 0.261667
O16   O     O_3   0.658784 0.709079 0.713142 -0.628429
C42   C     C_3   0.678448 0.726103 0.876864 0.070622
H30   H     H_    0.703470 0.830725 0.883221 0.159989
H31   H     H_    0.705379 0.629304 0.920634 0.137521
C43   C     C_3   0.626585 0.737765 0.992015 -0.258113
H32   H     H_    0.593995 0.815385 0.937322 0.233242
H33   H     H_    0.607418 0.625344 0.006045 0.234533
C44   C     C_3   0.642909 0.794881 0.161954 -0.937299
H34   H     H_    0.678687 0.726982 0.214570 0.267661
H35   H     H_    0.605674 0.788966 0.247008 0.281368
H36   H     H_    0.655735 0.913307 0.150941 0.252348

loop_
_geom_bond_atom_site_label_1
_geom_bond_atom_site_label_2
_geom_bond_distance
_ccdc_geom_bond_type
H8    C32   1.082338 S    
C35   H14   1.110850 S    
C34   H12   1.109923 S    
C42   H30   1.112440 S    
C9    C11   1.421496 A    
C5    C11   1.469088 S    
C21   C22   1.404890 A    
H5    C29   1.081772 S    
O15   C39   1.412543 S    
C19   C21   1.409871 A    
C38   H20   1.110989 S    
C3    C29   1.392693 A    
C20   C26   1.403176 A    
O5    Zn1   1.999451 S    
C37   H19   1.110992 S    
O7    C6    1.274617 A    
C33   C34   1.531704 S    
C14   N2    1.368858 A    
C4    C30   1.395003 A    
C18   C22   1.407743 A    
C8    C30   1.396839 A    
C4    N1    1.425888 S    
C40   C41   1.526800 S    
C35   H15   1.110409 S    
C43   C44   1.522851 S    
C33   H10   1.115428 S    
C44   H34   1.109555 S    
C37   C38   1.527485 S    
C43   H33   1.110451 S    
O3    Zn1   1.947884 S    
O14   C36   1.419092 S    
C6    C12   1.457031 S    
C3    C31   1.393967 A    
H6    C30   1.082215 S    
C38   H21   1.110410 S    
C35   H13   1.110692 S    
H1    C23   1.083187 S    
C34   C35   1.524491 S    
O13   C33   1.418878 S    
C42   H31   1.116777 S    
H2    C24   1.082997 S    
O8    C5    1.281197 A    
C9    C31   1.406411 A    
C7    C29   1.398245 A    
C40   H26   1.111938 S    
C7    C11   1.415740 A    
O1    Zn1   1.956549 S    
C37   H18   1.111664 S    
O7    Zn1   1.995798 S    
O2    Zn2   1.956548 S    
O8    Zn2   1.995801 S    
C9    O15   1.402547 S    
O1    C1    1.260985 A    
C36   H17   1.117565 S    
C40   H25   1.111506 S    
C15   C17   1.393018 A    
C33   H9    1.111180 S    
C17   C23   1.403611 A    
C18   C24   1.404897 A    
H7    C31   1.080349 S    
C27   C28   1.163933 T    
C41   H29   1.107499 S    
C43   H32   1.112184 S    
O6    Zn2   1.999449 S    
C10   O16   1.392219 S    
Zn1   N4    1.967772 S    
C44   H35   1.108836 S    
C41   H28   1.110632 S    
C1    C27   1.363698 S    
C42   C43   1.528930 S    
C39   H24   1.110006 S    
C2    C28   1.363538 S    
C8    O14   1.389587 S    
C13   N1    1.367843 A    
O2    C2    1.260826 A    
H3    C25   1.083104 S    
C3    N2    1.427963 S    
C24   C25   1.393718 A    
C38   H22   1.109377 S    
O5    C5    1.276423 A    
C15   O11   1.350766 S    
C16   C18   1.397797 A    
C4    C32   1.394194 A    
Zn2   N3    1.967772 S    
C36   C37   1.533043 S    
N3    N4    1.189807 T    
C39   C40   1.529868 S    
C19   C25   1.404156 A    
C10   C12   1.412627 A    
C36   H16   1.109149 S    
O3    C2    1.257175 A    
C10   C32   1.403488 A    
C20   C22   1.408862 A    
O16   C42   1.413353 S    
C15   N1    1.369481 A    
C13   C19   1.399462 A    
C16   N2    1.370084 A    
C14   C20   1.394919 A    
C17   C21   1.407444 A    
C23   C26   1.390106 A    
H4    C26   1.082985 S    
C34   H11   1.110642 S    
O4    Zn2   1.947885 S    
C44   H36   1.106320 S    
C41   H27   1.108730 S    
C39   H23   1.113379 S    
O6    C6    1.276290 A    
C16   O12   1.350003 S    
C7    O13   1.393055 S    
C13   O9    1.349526 S    
O4    C1    1.257097 A    
C14   O10   1.350350 S    
C8    C12   1.405745 A    
