data_mof_unit_18829.cif
_audit_creation_date              2012-12-10T17:35:01-0500
_audit_creation_method            fapswitch 2.2
_symmetry_space_group_name_H-M    P1
_symmetry_Int_Tables_number       1
_space_group_crystal_system       triclinic
_cell_length_a                    12.36953
_cell_length_b                    13.224116
_cell_length_c                    13.840337
_cell_angle_alpha                 106.072747
_cell_angle_beta                  73.98799
_cell_angle_gamma                 117.001961
_cell_volume                      1908.27231464

loop_
_atom_site_label
_atom_site_type_symbol
_atom_type_description
_atom_site_fract_x
_atom_site_fract_y
_atom_site_fract_z
_atom_type_partial_charge
C1    C     C_R   0.144358 0.714001 0.510140 0.791497
C2    C     C_1   0.971245 0.499678 0.790804 -0.167426
C3    C     C_R   0.737081 0.971563 0.370865 0.370775
C4    C     C_R   0.776067 0.163813 0.467352 -0.118154
C5    C     C_R   0.180069 0.920486 0.578805 0.444938
C6    C     C_R   0.261500 0.034989 0.602729 -0.234740
C7    C     C_R   0.387032 0.069135 0.568339 -0.241188
C8    C     C_R   0.436065 0.989664 0.505961 0.114385
C9    C     C_R   0.353030 0.875512 0.473680 0.033490
C10   C     C_R   0.564876 0.020586 0.473168 0.060811
C11   C     C_R   0.608949 0.940306 0.403159 0.085341
C12   C     C_R   0.983657 0.503307 0.686266 0.799144
C13   C     C_R   0.524290 0.832691 0.364149 -0.203387
C14   C     C_R   0.398922 0.802209 0.396572 -0.182034
C15   C     C_R   0.651410 0.129859 0.507703 -0.195154
C16   C     C_R   0.819560 0.083874 0.401468 -0.240037
C17   C     C_R   0.225997 0.838239 0.518121 -0.211731
C18   C     C_R   0.654376 0.691656 0.650239 -0.280820
C19   C     C_R   0.256937 0.360599 0.355796 -0.005391
C20   C     C_R   0.368883 0.354734 0.307485 -0.330978
C21   C     C_R   0.473909 0.423857 0.351806 0.555950
C22   C     C_R   0.462309 0.485031 0.453610 -0.109927
C23   C     C_R   0.856387 0.286301 0.485971 0.840624
C24   C     C_R   0.351116 0.501217 0.492491 0.165795
C25   C     C_R   0.559352 0.539654 0.513705 -0.151414
C26   C     C_R   0.556738 0.631653 0.594976 0.039505
C27   C     C_R   0.454304 0.659560 0.623584 0.401132
C28   C     C_R   0.350661 0.589937 0.576542 -0.247627
C29   C     C_R   0.653886 0.501565 0.501995 0.569372
C30   C     C_R   0.750451 0.657105 0.629050 -0.032584
C31   C     C_R   0.016229 0.496574 0.313789 0.840763
C32   C     C_1   0.030021 0.502045 0.209639 -0.168512
C33   C     C_2   0.058646 0.520897 0.017968 0.494782
C34   C     C_2   0.956018 0.488679 0.981463 -0.236068
C35   C     C_1   0.962561 0.494967 0.878113 0.053535
C36   C     C_1   0.042884 0.509698 0.122484 -0.141176
Cu1   Cu    Cu3+1 0.899780 0.525060 0.522890 1.001375
Cu2   Cu    Cu3+1 0.100220 0.474940 0.477110 0.924811
H1    H     H_    0.865519 0.454448 0.028452 0.127443
H2    H     H_    0.338787 0.721370 0.357642 0.173749
H3    H     H_    0.825819 0.704322 0.671202 0.180926
H4    H     H_    0.655465 0.763645 0.711446 0.189478
H5    H     H_    0.177844 0.312358 0.317931 0.154923
H6    H     H_    0.376057 0.302877 0.232205 0.164140
H7    H     H_    0.273275 0.611323 0.604782 0.206671
H8    H     H_    0.917116 0.109446 0.371415 0.185015
H9    H     H_    0.553818 0.771731 0.306588 0.180866
H10   H     H_    0.624792 0.192402 0.564603 0.164082
H11   H     H_    0.442205 0.159359 0.590619 0.171994
H12   H     H_    0.227089 0.097715 0.651122 0.157234
N1    N     N_R   0.748810 0.563010 0.557590 -0.215262
N2    N     N_R   0.250540 0.437620 0.443020 -0.186809
O1    O     O_R   0.025040 0.682470 0.528790 -0.541475
O2    O     O_R   0.194310 0.640150 0.490130 -0.608633
O3    O     O_R   0.903380 0.524130 0.659910 -0.574411
O4    O     O_R   0.072660 0.481800 0.621240 -0.588632
O5    O     O_R   0.805690 0.359850 0.509870 -0.523120
O6    O     O_R   0.974960 0.317530 0.471210 -0.597226
O7    O     O_R   0.927340 0.518200 0.378760 -0.538091
O8    O     O_R   0.096620 0.475870 0.340090 -0.597227
O9    O     O_3   0.462331 0.761614 0.690989 -0.616978
C37   C     C_3   0.362176 0.745299 0.773672 0.040666
H13   H     H_    0.401473 0.779131 0.844923 0.171584
H14   H     H_    0.297234 0.653478 0.776611 0.161606
C38   C     C_3   0.292597 0.815286 0.771945 -0.336292
H15   H     H_    0.359201 0.905036 0.763585 0.238069
H16   H     H_    0.244101 0.776720 0.705539 0.204219
C39   C     C_3   0.198725 0.818899 0.869606 -0.857671
H17   H     H_    0.131135 0.730401 0.880073 0.276773
H18   H     H_    0.148456 0.868244 0.864727 0.259719
H19   H     H_    0.245841 0.861770 0.936831 0.252386
Cl1   Cl    Cl    0.633579 0.362015 0.433409 -0.582202
O10   O     O_3   0.587512 0.437050 0.291281 -0.573279
C40   C     C_3   0.640617 0.540292 0.251349 0.092382
H20   H     H_    0.741977 0.575316 0.246614 0.201164
H21   H     H_    0.611199 0.609081 0.300794 0.141036
C41   C     C_3   0.613021 0.514618 0.143650 -0.410647
H22   H     H_    0.637770 0.442557 0.096800 0.235419
H23   H     H_    0.512983 0.488038 0.147973 0.207429
C42   C     C_3   0.685341 0.619649 0.091268 -0.836804
H24   H     H_    0.785979 0.647747 0.085199 0.276591
H25   H     H_    0.659018 0.691630 0.134827 0.287552
H26   H     H_    0.664238 0.597287 0.013155 0.242189
O11   O     O_3   0.173514 0.567926 0.955973 -0.624770
C43   C     C_3   0.274216 0.581923 0.995983 0.050370
H27   H     H_    0.349295 0.579857 0.930215 0.156669
H28   H     H_    0.253057 0.509420 0.034056 0.143976
C44   C     C_3   0.322278 0.699147 0.066616 -0.346311
H29   H     H_    0.347434 0.769193 0.024452 0.216963
H30   H     H_    0.249843 0.705343 0.133366 0.222919
C45   C     C_3   0.435143 0.717276 0.105162 -0.921542
H31   H     H_    0.411276 0.649822 0.150019 0.253076
H32   H     H_    0.468527 0.803052 0.155069 0.272082
H33   H     H_    0.510371 0.714058 0.039946 0.260361
Cl2   Cl    Cl    0.798979 0.874735 0.289700 -0.719066
O12   O     O_3   0.057142 0.887495 0.623762 -0.612356
C46   C     C_3   0.998543 0.930439 0.580384 0.062895
H34   H     H_    0.935118 0.856509 0.532916 0.188002
H35   H     H_    0.062476 0.994555 0.529734 0.136108
C47   C     C_3   0.923896 0.986266 0.666226 -0.360725
H36   H     H_    0.860876 0.924306 0.718176 0.221953
H37   H     H_    0.987689 0.063001 0.711285 0.218610
C48   C     C_3   0.848339 0.023448 0.624240 -0.860678
H38   H     H_    0.910467 0.088918 0.575274 0.258853
H39   H     H_    0.794064 0.062132 0.688417 0.254845
H40   H     H_    0.783562 0.948011 0.578962 0.277541

loop_
_geom_bond_atom_site_label_1
_geom_bond_atom_site_label_2
_ccdc_geom_bond_type
C2    C35   T    
C24   N2    A    
C23   O6    A    
C30   N1    A    
O10   C40   S    
C19   C20   A    
C18   C26   A    
C9    C14   A    
C2    C12   S    
C5    O12   S    
C46   H34   S    
C7    C8    A    
C41   H22   S    
C26   C27   A    
Cu1   Cu2   S    
C40   H21   S    
C32   C36   T    
C10   C15   A    
C18   H4    S    
C5    C6    A    
Cu1   N1    S    
C43   C44   S    
C5    C17   A    
C21   O10   S    
C33   C36   S    
C34   C35   S    
C31   O7    A    
C1    O1    A    
C37   H14   S    
C27   O9    S    
C20   H6    S    
Cu2   O6    S    
C19   N2    A    
C8    C9    A    
C38   H16   S    
C40   C41   S    
C30   H3    S    
C18   C30   A    
C29   Cl1   S    
Cu1   O1    S    
C44   H29   S    
C43   H28   S    
C21   C22   A    
C15   H10   S    
C42   H26   S    
C46   H35   S    
C19   H5    S    
C41   H23   S    
C25   C29   A    
C28   H7    S    
C40   H20   S    
C34   H1    S    
O11   C43   S    
C7    H11   S    
C42   H25   S    
C16   H8    S    
C45   H31   S    
C13   H9    S    
C4    C23   S    
C39   H17   S    
C25   C26   A    
C43   H27   S    
C22   C25   A    
C47   C48   S    
C31   O8    A    
C4    C16   A    
C1    O2    A    
C37   H13   S    
C45   H32   S    
C31   C32   S    
Cu2   O2    S    
C44   C45   S    
C38   C39   S    
O12   C46   S    
C47   H37   S    
C33   C34   D    
C48   H39   S    
Cu1   O7    S    
C6    H12   S    
C12   O4    A    
Cu2   O8    S    
C9    C17   A    
C44   H30   S    
C22   C24   A    
C48   H38   S    
C46   C47   S    
C29   N1    A    
C41   C42   S    
C23   O5    A    
C37   C38   S    
C24   C28   A    
C42   H24   S    
C6    C7    A    
C1    C17   S    
C4    C15   A    
C45   H33   S    
C11   C13   A    
C39   H19   S    
Cu2   N2    S    
C47   H36   S    
C48   H40   S    
O9    C37   S    
C33   O11   S    
C12   O3    A    
C3    C11   A    
C10   C11   A    
C14   H2    S    
Cu1   O3    S    
Cu2   O4    S    
C20   C21   A    
C8    C10   A    
C38   H15   S    
C27   C28   A    
C39   H18   S    
C3    Cl2   S    
C13   C14   A    
Cu1   O5    S    
C3    C16   A    
