data_mof_unit_8091.cif
_audit_creation_date              2013-03-05T16:13:32-0500
_audit_creation_method            fapswitch 2.2
_symmetry_space_group_name_H-M    P1
_symmetry_Int_Tables_number       1
_space_group_crystal_system       triclinic
_cell_length_a                    10.653636
_cell_length_b                    9.928879
_cell_length_c                    10.699722
_cell_angle_alpha                 88.337749
_cell_angle_beta                  90.529386
_cell_angle_gamma                 87.35811
_cell_volume                      1130.06016691

loop_
_atom_site_label
_atom_site_type_symbol
_atom_site_description
_atom_site_fract_x
_atom_site_fract_y
_atom_site_fract_z
_atom_type_partial_charge
O1    O     O_R   0.316770 0.614620 0.499990 -0.586381
O2    O     O_R   0.683230 0.614620 0.500010 -0.571884
O3    O     O_R   0.316800 0.385290 0.500000 -0.605551
O4    O     O_R   0.683200 0.385290 0.500000 -0.577720
C1    C     C_R   0.259891 0.503255 0.508084 0.873511
C2    C     C_R   0.739665 0.497459 0.493212 0.978958
O5    O     O_R   0.500000 0.614690 0.316780 -0.562038
O6    O     O_R   0.500000 0.614690 0.683220 -0.595669
O7    O     O_R   0.500020 0.385360 0.316780 -0.572028
O8    O     O_R   0.499980 0.385360 0.683220 -0.607364
C3    C     C_R   0.501536 0.501419 0.260728 0.964813
C4    C     C_R   0.501042 0.498419 0.739712 0.906252
Zn1   Zn    Zn3+2 0.500000 0.653120 0.500000 1.095833
Zn2   Zn    Zn3+2 0.500000 0.346880 0.500000 1.090347
C5    C     C_R   0.440731 0.600253 0.060300 0.134486
C6    C     C_R   0.442974 0.600800 0.932574 0.124821
C7    C     C_R   0.512536 0.504060 0.129417 -0.229059
C8    C     C_R   0.507701 0.497336 0.872177 -0.274063
C9    C     C_R   0.592152 0.409010 0.069947 0.221763
C10   C     C_R   0.586390 0.403278 0.939942 0.197864
C11   C     C_3   0.306736 0.643244 0.919782 -0.149196
C12   C     C_3   0.301703 0.636094 0.062214 -0.082853
H1    H     H_    0.250561 0.568299 0.871133 0.192861
H2    H     H_    0.277572 0.734308 0.104452 0.275264
C13   C     C_R   0.067893 0.396153 0.563792 -0.126703
C14   C     C_R   0.939699 0.392660 0.555797 -0.093164
H3    H     H_    0.121116 0.312159 0.608598 0.207008
H4    H     H_    0.893521 0.312327 0.604376 0.244610
C15   C     C_R   0.872816 0.492897 0.485391 -0.155015
C16   C     C_R   0.125933 0.510820 0.519277 -0.199200
C17   C     C_R   0.934038 0.600476 0.427135 0.231861
C18   C     C_R   0.054065 0.623931 0.471170 0.214093
C19   C     C_R   0.593201 0.064308 0.559927 0.251412
C20   C     C_R   0.413874 0.078109 0.430325 0.239178
C21   C     C_R   0.585110 0.921537 0.570598 0.226485
C22   C     C_R   0.420338 0.934748 0.423392 0.274005
N1    N     N_R   0.500000 0.857200 0.500000 -0.227683
N2    N     N_R   0.500000 0.142810 0.500000 -0.224929
N3    N     N_R   0.675144 0.316657 0.140653 0.256566
O9    O     O_R   0.670175 0.187204 0.127220 -0.224962
O10   O     O_R   0.755774 0.361945 0.219229 -0.328161
N4    N     N_R   0.656837 0.299823 0.878250 0.248326
O11   O     O_R   0.777030 0.310484 0.863328 -0.318845
O12   O     O_R   0.607294 0.183698 0.865133 -0.279475
C23   C     C_3   0.288569 0.786810 0.864302 -0.628635
H5    H     H_    0.321932 0.789773 0.766484 0.268955
H6    H     H_    0.187352 0.818689 0.865408 0.276387
H7    H     H_    0.342459 0.859477 0.918023 0.265658
C24   C     C_3   0.221873 0.522805 0.113654 -0.743300
H8    H     H_    0.231907 0.514838 0.216997 0.237609
H9    H     H_    0.121428 0.546467 0.090054 0.288233
H10   H     H_    0.250825 0.424180 0.073673 0.264641
N5    N     N_R   0.882183 0.676169 0.319167 0.254918
O13   O     O_R   0.771220 0.653492 0.275144 -0.331347
O14   O     O_R   0.957102 0.741366 0.246212 -0.278441
N6    N     N_R   0.087412 0.760408 0.495731 0.272226
O15   O     O_R   0.157198 0.782454 0.592647 -0.388429
O16   O     O_R   0.020291 0.862664 0.448540 -0.194639
N7    N     N_R   0.712602 0.119066 0.581936 0.238650
O17   O     O_R   0.766992 0.100560 0.690659 -0.251489
O18   O     O_R   0.783419 0.137071 0.485016 -0.290717
N8    N     N_R   0.325947 0.154849 0.352180 0.260299
O19   O     O_R   0.355187 0.182562 0.236832 -0.322993
O20   O     O_R   0.208391 0.163019 0.384040 -0.300729
N9    N     N_R   0.674556 0.843987 0.646436 0.265375
O21   O     O_R   0.790065 0.828266 0.609256 -0.289390
O22   O     O_R   0.649163 0.819107 0.763244 -0.313484
N10   N     N_R   0.363539 0.874921 0.319039 0.233485
O23   O     O_R   0.241931 0.873894 0.310568 -0.299899
O24   O     O_R   0.429084 0.866260 0.217443 -0.351321

loop_
_geom_bond_atom_site_label_1
_geom_bond_atom_site_label_2
_geom_bond_distance
_ccdc_geom_bond_type
C16   C18   1.411513 A    
O7    Zn2   1.986382 S    
C22   N10   1.422965 S    
C5    C7    1.387624 A    
C6    C11   1.496526 S    
C13   H3    1.083989 S    
C9    C10   1.394737 A    
Zn1   N1    2.026286 S    
C17   C18   1.390698 A    
N9    O22   1.300286 A    
C20   N8    1.428256 S    
O6    C4    1.287024 A    
C24   H10   1.111726 S    
N8    O19   1.300498 A    
N5    O14   1.302013 A    
N7    O17   1.299281 A    
C19   N7    1.426473 S    
C6    C8    1.389200 A    
C20   N2    1.371081 A    
C23   H5    1.108454 S    
C17   N5    1.450568 S    
O5    C3    1.289347 A    
C10   N4    1.425321 S    
O7    C3    1.284383 A    
O2    C2    1.288885 A    
O3    Zn2   1.971329 S    
N4    O12   1.300692 A    
C14   C15   1.395334 A    
C12   C24   1.533763 S    
O1    C1    1.286276 A    
C9    N3    1.437898 S    
N10   O24   1.300229 A    
C22   N1    1.369412 A    
C19   C21   1.425481 A    
C20   C22   1.426021 A    
N6    O16   1.301454 A    
C1    C16   1.431959 S    
C11   C23   1.531376 S    
C11   H1    1.113817 S    
O4    Zn2   2.005834 S    
O8    C4    1.290739 A    
C12   H2    1.107187 S    
N7    O18   1.301041 A    
O4    C2    1.290500 A    
Zn2   N2    2.026187 S    
N4    O11   1.300633 A    
C21   N9    1.428702 S    
C7    C9    1.409259 A    
C5    C6    1.366920 A    
N3    O9    1.300910 A    
O6    Zn1   1.986297 S    
O3    C1    1.299350 A    
O5    Zn1   2.008027 S    
C2    C15   1.420495 S    
O1    Zn1   2.006359 S    
N6    O15   1.299956 A    
N3    O10   1.300429 A    
C8    C10   1.406400 A    
C15   C17   1.409947 A    
N9    O21   1.300745 A    
O8    Zn2   2.008135 S    
C23   H6    1.110004 S    
C4    C8    1.418166 S    
C13   C16   1.394384 A    
C24   H8    1.110094 S    
O2    Zn1   1.971773 S    
C3    C7    1.410534 S    
N8    O20   1.300553 A    
C23   H7    1.112081 S    
C21   N1    1.367318 A    
C13   C14   1.369714 A    
C11   C12   1.525131 S    
C14   H4    1.079457 S    
C18   N6    1.447340 S    
C5    C12   1.507733 S    
C19   N2    1.375668 A    
N5    O13   1.300178 A    
N10   O23   1.298428 A    
C24   H9    1.110163 S    
