data_mof_unit_23255.cif
_audit_creation_date              2012-12-11T17:36:22-0500
_audit_creation_method            fapswitch 2.2
_symmetry_space_group_name_H-M    P1
_symmetry_Int_Tables_number       1
_space_group_crystal_system       triclinic
_cell_length_a                    25.813451
_cell_length_b                    6.938034
_cell_length_c                    21.716179
_cell_angle_alpha                 89.999204
_cell_angle_beta                  96.217025
_cell_angle_gamma                 89.999805
_cell_volume                      3866.37705915

loop_
_atom_site_label
_atom_site_type_symbol
_atom_type_description
_atom_site_fract_x
_atom_site_fract_y
_atom_site_fract_z
_atom_type_partial_charge
O1    O     O_R   0.208650 0.594520 0.175450 -0.542313
O2    O     O_R   0.791350 0.405480 0.824550 -0.546039
O3    O     O_R   0.291350 0.094520 0.324550 -0.542313
O4    O     O_R   0.708650 0.905480 0.675450 -0.546039
O5    O     O_R   0.192980 0.260780 0.300160 -0.541137
O6    O     O_R   0.807020 0.739220 0.699840 -0.543011
O7    O     O_R   0.307020 0.760780 0.199840 -0.541137
O8    O     O_R   0.692980 0.239220 0.800160 -0.543013
C1    C     C_R   0.178015 0.433659 0.317367 0.711987
C2    C     C_R   0.821979 0.566562 0.682892 0.721593
C3    C     C_R   0.321984 0.933660 0.182632 0.711974
C4    C     C_R   0.678020 0.066561 0.817108 0.721587
O9    O     O_R   0.202550 0.264660 0.174420 -0.541767
O10   O     O_R   0.797450 0.735340 0.825580 -0.531027
O11   O     O_R   0.297450 0.764660 0.325580 -0.541759
O12   O     O_R   0.702550 0.235340 0.674420 -0.531024
O13   O     O_R   0.300990 0.096480 0.197920 -0.501673
O14   O     O_R   0.699010 0.903520 0.802080 -0.506982
O15   O     O_R   0.199010 0.596480 0.302080 -0.501664
O16   O     O_R   0.800990 0.403520 0.697920 -0.506974
C5    C     C_R   0.191506 0.432977 0.150842 0.752838
C6    C     C_R   0.808689 0.567071 0.849054 0.730836
C7    C     C_R   0.308495 0.932975 0.349157 0.752847
C8    C     C_R   0.691311 0.067073 0.650946 0.730849
O17   O     O_3   0.282290 0.427760 0.257860 -0.365641
O18   O     O_3   0.717710 0.572240 0.742140 -0.359922
O19   O     O_3   0.217710 0.927760 0.242140 -0.365641
O20   O     O_3   0.782290 0.072240 0.757860 -0.359917
V1    V     V_3+5 0.244010 0.152080 0.248540 1.459344
V2    V     V_3+5 0.755990 0.847920 0.751460 1.471242
V3    V     V_3+5 0.255990 0.652080 0.251460 1.459352
V4    V     V_3+5 0.744010 0.347920 0.748540 1.471243
C9    C     C_R   0.658609 0.064072 0.590608 -0.084066
C10   C     C_R   0.341931 0.937032 0.408861 -0.087492
C11   C     C_R   0.841391 0.564062 0.909392 -0.084054
C12   C     C_R   0.158071 0.437040 0.091138 -0.087480
C13   C     C_R   0.644691 0.158673 0.482610 -0.230313
C14   C     C_R   0.354467 0.869395 0.518918 -0.234125
C15   C     C_R   0.855305 0.658627 0.017392 -0.230312
C16   C     C_R   0.145536 0.369447 0.981079 -0.234135
C17   C     C_R   0.677887 0.141962 0.537659 0.294848
C18   C     C_R   0.321644 0.879208 0.463411 0.276327
C19   C     C_R   0.822110 0.641928 0.962343 0.294846
C20   C     C_R   0.178360 0.379246 0.036587 0.276332
C21   C     C_R   0.606103 0.006498 0.587539 -0.291411
C22   C     C_R   0.395144 0.983757 0.410599 -0.294032
C23   C     C_R   0.893898 0.506503 0.912460 -0.291410
C24   C     C_R   0.104855 0.483746 0.089402 -0.294027
C25   C     C_R   0.571303 0.030091 0.532485 0.091905
C26   C     C_R   0.429399 0.970806 0.466545 0.094410
C27   C     C_R   0.928697 0.530083 0.967515 0.091905
C28   C     C_R   0.070601 0.470810 0.033454 0.094409
C29   C     C_R   0.592168 0.104083 0.479581 0.100969
C30   C     C_R   0.407796 0.910525 0.520682 0.104408
C31   C     C_R   0.907830 0.604048 0.020421 0.100969
C32   C     C_R   0.092206 0.410560 0.979316 0.104411
C33   C     C_R   0.516483 0.987656 0.528370 0.069915
C34   C     C_R   0.484214 0.013174 0.470678 0.067726
C35   C     C_R   0.983517 0.487662 0.971630 0.069916
C36   C     C_R   0.015785 0.513163 0.029322 0.067726
C37   C     C_R   0.507712 0.082712 0.419339 -0.191424
C38   C     C_R   0.492607 0.925163 0.580320 -0.190769
C39   C     C_R   0.992286 0.582673 0.080664 -0.191424
C40   C     C_R   0.007396 0.425199 0.919677 -0.190771
C41   C     C_R   0.560374 0.127734 0.423960 -0.187176
C42   C     C_R   0.439471 0.889290 0.576483 -0.191361
C43   C     C_R   0.939624 0.627684 0.076043 -0.187176
C44   C     C_R   0.060532 0.389340 0.923514 -0.191362
H1    H     H_    0.576338 0.183844 0.383398 0.121632
H2    H     H_    0.422989 0.842807 0.617879 0.118110
H3    H     H_    0.923657 0.683773 0.116606 0.121632
H4    H     H_    0.077016 0.342881 0.882117 0.118109
H5    H     H_    0.408694 0.023255 0.367115 0.101749
H6    H     H_    0.593386 0.949899 0.629449 0.101132
H7    H     H_    0.091305 0.523221 0.132886 0.101746
H8    H     H_    0.906616 0.449922 0.870549 0.101130
H9    H     H_    0.659904 0.218270 0.442042 0.114791
H10   H     H_    0.338260 0.824854 0.560707 0.116223
H11   H     H_    0.840092 0.718205 0.057962 0.114790
H12   H     H_    0.161744 0.324931 0.939288 0.116222
H13   H     H_    0.486209 0.108247 0.374802 0.117450
H14   H     H_    0.513777 0.904862 0.625338 0.113879
H15   H     H_    0.013788 0.608194 0.125202 0.117450
H16   H     H_    0.986226 0.404913 0.874659 0.113880
C45   C     C_R   0.431074 0.800544 0.084247 -0.181371
C46   C     C_R   0.584008 0.187771 0.935051 -0.222745
C47   C     C_R   0.068922 0.300542 0.415748 -0.181375
C48   C     C_R   0.915989 0.687776 0.564946 -0.222745
H17   H     H_    0.451285 0.673108 0.071822 0.181709
H18   H     H_    0.577428 0.306962 0.965490 0.147697
H19   H     H_    0.048710 0.173108 0.428173 0.181691
H20   H     H_    0.922569 0.806970 0.534506 0.147700
C49   C     C_R   0.389973 0.785336 0.121273 -0.246142
C50   C     C_R   0.622384 0.205153 0.894477 -0.237055
C51   C     C_R   0.110024 0.285334 0.378724 -0.246112
C52   C     C_R   0.877614 0.705158 0.605520 -0.237057
H21   H     H_    0.377226 0.644842 0.133570 0.227365
H22   H     H_    0.644382 0.337678 0.894519 0.165215
H23   H     H_    0.122772 0.144840 0.366430 0.227373
H24   H     H_    0.855617 0.837684 0.605479 0.165215
C53   C     C_R   0.365833 0.950054 0.142460 -0.231008
C54   C     C_R   0.633544 0.051587 0.855919 -0.167507
C55   C     C_R   0.134165 0.450052 0.357537 -0.231041
C56   C     C_R   0.866455 0.551590 0.644079 -0.167509
C57   C     C_R   0.384325 0.132405 0.124594 0.449315
C58   C     C_R   0.602741 0.881221 0.856274 0.366870
C59   C     C_R   0.115671 0.632404 0.375400 0.449315
C60   C     C_R   0.897258 0.381221 0.643724 0.366860
C61   C     C_R   0.420182 0.145592 0.079990 0.232460
C62   C     C_R   0.563913 0.863647 0.897536 0.240475
C63   C     C_R   0.079812 0.645590 0.420000 0.232450
C64   C     C_R   0.936085 0.363647 0.602460 0.240470
C65   C     C_R   0.445378 0.978813 0.061652 -0.022575
C66   C     C_R   0.555127 0.017636 0.937603 0.037739
C67   C     C_R   0.054616 0.478811 0.438339 -0.022572
C68   C     C_R   0.944870 0.517640 0.562392 0.037740
C69   C     C_1   0.484815 0.989004 0.018645 -0.037206
C70   C     C_1   0.517163 0.001748 0.982253 0.010939
C71   C     C_1   0.015179 0.489005 0.481347 -0.037202
C72   C     C_1   0.982832 0.501752 0.517741 0.010939
N1    N     N_2   0.267914 0.832834 0.462808 -0.524046
H25   H     H_    0.250842 0.900027 0.497878 0.243391
C73   C     C_3   0.257059 0.628191 0.460910 -0.510993
H26   H     H_    0.275338 0.557051 0.503720 0.174666
H27   H     H_    0.271992 0.560843 0.419946 0.210886
H28   H     H_    0.214330 0.604777 0.457635 0.189877
N2    N     N_2   0.729858 0.213688 0.540098 -0.528666
H29   H     H_    0.736297 0.316153 0.507335 0.251556
C74   C     C_3   0.771634 0.074410 0.551456 -0.536035
H30   H     H_    0.793288 0.062632 0.510101 0.181641
H31   H     H_    0.757012 0.928609 0.562000 0.184697
H32   H     H_    0.798932 0.123900 0.591288 0.224941
N3    N     N_2   0.232091 0.332893 0.037187 -0.524061
H33   H     H_    0.249159 0.400099 0.002116 0.243390
C75   C     C_3   0.242951 0.128254 0.039083 -0.511038
H34   H     H_    0.224651 0.057104 0.996288 0.174690
H35   H     H_    0.228046 0.060917 0.080067 0.210909
H36   H     H_    0.285680 0.104856 0.042324 0.189868
N4    N     N_2   0.770138 0.713643 0.959906 -0.528674
H37   H     H_    0.763696 0.816076 0.992675 0.251559
C76   C     C_3   0.728364 0.574370 0.948528 -0.536027
H38   H     H_    0.706688 0.562622 0.989865 0.181638
H39   H     H_    0.742991 0.428557 0.938006 0.184693
H40   H     H_    0.701085 0.623842 0.908675 0.224957
O21   O     O_3   0.367851 0.299757 0.150691 -0.538568
C77   C     C_3   0.401402 0.335747 0.205355 -0.209791
H41   H     H_    0.441520 0.369839 0.194364 0.121674
H42   H     H_    0.402339 0.212830 0.238472 0.100069
H43   H     H_    0.386749 0.462834 0.229146 0.157239
O22   O     O_3   0.611787 0.726641 0.818566 -0.555716
C78   C     C_3   0.586215 0.760847 0.758819 -0.196715
H44   H     H_    0.601206 0.892593 0.737699 0.094288
H45   H     H_    0.543394 0.772692 0.759535 0.112516
H46   H     H_    0.593744 0.637201 0.728649 0.156652
O23   O     O_3   0.132148 0.799757 0.349306 -0.538556
C79   C     C_3   0.098600 0.835759 0.294640 -0.209780
H47   H     H_    0.058481 0.869852 0.305628 0.121661
H48   H     H_    0.097664 0.712848 0.261523 0.100068
H49   H     H_    0.113255 0.962849 0.270852 0.157242
O24   O     O_3   0.888211 0.226639 0.681431 -0.555713
C80   C     C_3   0.913786 0.260835 0.741178 -0.196706
H50   H     H_    0.898799 0.392587 0.762298 0.094281
H51   H     H_    0.956607 0.272660 0.740460 0.112518
H52   H     H_    0.906254 0.137192 0.771349 0.156653
N5    N     N_2   0.429469 0.327300 0.053049 -0.518442
H53   H     H_    0.466675 0.346024 0.040935 0.253227
C81   C     C_3   0.389832 0.381709 0.003815 -0.551411
H54   H     H_    0.399576 0.523514 0.984388 0.194803
H55   H     H_    0.351337 0.394135 0.021899 0.228174
H56   H     H_    0.387533 0.273276 0.965923 0.184146
N6    N     N_2   0.536038 0.686898 0.901145 -0.515248
H57   H     H_    0.555467 0.566980 0.887681 0.288788
C82   C     C_3   0.482121 0.689774 0.874511 -0.560359
H58   H     H_    0.463444 0.550373 0.884142 0.197842
H59   H     H_    0.479587 0.710039 0.823628 0.184369
H60   H     H_    0.460019 0.806441 0.894778 0.204729
N7    N     N_2   0.070523 0.827298 0.446936 -0.518422
H61   H     H_    0.033308 0.846042 0.459020 0.253208
C83   C     C_3   0.110137 0.881642 0.496204 -0.551366
H62   H     H_    0.100407 0.023502 0.515602 0.194815
H63   H     H_    0.148652 0.893928 0.478164 0.228107
H64   H     H_    0.112384 0.773252 0.534107 0.184141
N8    N     N_2   0.963958 0.186895 0.598850 -0.515246
H65   H     H_    0.944529 0.066978 0.612315 0.288788
C84   C     C_3   0.017876 0.189762 0.625480 -0.560360
H66   H     H_    0.036549 0.050351 0.615853 0.197839
H67   H     H_    0.020413 0.210044 0.676362 0.184368
H68   H     H_    0.039978 0.306414 0.605207 0.204729

loop_
_geom_bond_atom_site_label_1
_geom_bond_atom_site_label_2
_ccdc_geom_bond_type
O17   V3    S    
C75   H36   S    
N6    H57   S    
C48   C52   A    
O1    C5    A    
N5    H53   S    
C58   O22   S    
C47   H19   S    
O19   V1    S    
C9    C21   A    
C17   N2    S    
O3    C7    A    
C10   C18   A    
C56   C60   A    
C11   C23   A    
C80   H50   S    
C84   H66   S    
C25   C33   A    
C73   H26   S    
C81   H55   S    
C5    C12   S    
C82   H58   S    
O7    C3    A    
C6    C11   S    
N6    C82   S    
C35   C40   A    
C26   C30   A    
C36   C39   A    
C40   C44   A    
O9    V1    S    
C79   H47   S    
C23   H8    S    
C14   C18   A    
C2    C56   S    
C76   H39   S    
C58   C62   A    
O4    C8    A    
C51   H23   S    
C73   H27   S    
C43   H3    S    
C50   H22   S    
O1    V3    S    
O13   V1    S    
O2    V4    S    
C78   H46   S    
O3    V1    S    
C40   H16   S    
C46   C50   A    
C45   C49   A    
C1    O15   A    
C15   C31   A    
C48   H20   S    
C2    O16   A    
C16   C32   A    
C47   C51   A    
O2    C6    A    
C78   H44   S    
C16   H12   S    
C19   N4    S    
C10   C22   A    
C21   C25   A    
C64   N8    S    
C11   C19   A    
C62   C66   A    
C16   C20   A    
C47   C67   A    
C61   C65   A    
C74   H32   S    
C13   C29   A    
C62   N6    S    
C34   C37   A    
O11   C7    A    
C38   H14   S    
O15   V3    S    
C35   C36   A    
O12   C8    A    
C53   C57   A    
C24   H7    S    
N5    C81   S    
C76   H38   S    
O10   V2    S    
C80   H51   S    
C51   C55   A    
O21   C77   S    
C81   H56   S    
C77   H42   S    
C82   H59   S    
O17   V1    S    
C39   C43   A    
O7    V3    S    
C38   C42   A    
O19   V3    S    
C26   C34   A    
C75   H34   S    
C44   H4    S    
C46   H18   S    
C76   H40   S    
C49   C53   A    
C81   H54   S    
C45   H17   S    
O18   V4    S    
C84   H68   S    
C15   C19   A    
C14   H10   S    
N7    C83   S    
C32   C44   A    
C13   H9    S    
C68   C72   S    
C39   H15   S    
C21   H6    S    
O8    V4    S    
C48   C68   A    
N8    H65   S    
N2    C74   S    
C4    C54   S    
C37   C41   A    
C77   H43   S    
C31   C43   A    
C14   C30   A    
O20   V4    S    
O8    C4    A    
C7    C10   S    
C57   O21   S    
O9    C5    A    
C3    C53   S    
C71   C72   T    
N1    H25   S    
C66   C70   S    
C61   N5    S    
C65   C69   S    
O6    V2    S    
O18   V2    S    
C67   C71   S    
C52   C56   A    
N3    H33   S    
C12   C20   A    
C27   C35   A    
C33   C38   A    
N2    H29   S    
O5    V1    S    
C49   H21   S    
C64   C68   A    
C80   H52   S    
C29   C41   A    
C63   N7    S    
C77   H41   S    
O16   V4    S    
C82   H60   S    
C20   N3    S    
C75   H35   S    
C57   C61   A    
C3    O13   A    
C59   C63   A    
C79   H49   S    
O5    C1    A    
C73   H28   S    
O6    C2    A    
C23   C27   A    
N4    H37   S    
O11   V3    S    
C60   O24   S    
O12   V4    S    
C22   C26   A    
C8    C9    S    
C46   C66   A    
C55   C59   A    
C9    C17   A    
O24   C80   S    
C83   H64   S    
C45   C65   A    
C74   H30   S    
O20   V2    S    
C37   H13   S    
C69   C70   T    
N4    C76   S    
O10   C6    A    
C33   C34   A    
C42   H2    S    
C41   H1    S    
C52   H24   S    
C79   H48   S    
C1    C55   S    
C12   C24   A    
C27   C31   A    
C78   H45   S    
C13   C17   A    
O4    V2    S    
N1    C73   S    
C25   C29   A    
C84   H67   S    
O14   V2    S    
C83   H62   S    
C60   C64   A    
C24   C28   A    
C50   C54   A    
N8    C84   S    
C28   C36   A    
N7    H61   S    
C54   C58   A    
C4    O14   A    
O23   C79   S    
N3    C75   S    
O22   C78   S    
C63   C67   A    
C83   H63   S    
C30   C42   A    
C22   H5    S    
C59   O23   S    
C28   C32   A    
C18   N1    S    
C15   H11   S    
C74   H31   S    
