data_mof_unit_68489.cif
_audit_creation_date              2012-12-10T16:47:29-0500
_audit_creation_method            fapswitch 2.2
_symmetry_space_group_name_H-M    P1
_symmetry_Int_Tables_number       1
_space_group_crystal_system       triclinic
_cell_length_a                    10.630618
_cell_length_b                    8.68331
_cell_length_c                    7.565091
_cell_angle_alpha                 103.469256
_cell_angle_beta                  95.204647
_cell_angle_gamma                 94.66462
_cell_volume                      672.523341904

loop_
_atom_site_label
_atom_site_type_symbol
_atom_type_description
_atom_site_fract_x
_atom_site_fract_y
_atom_site_fract_z
_atom_type_partial_charge
C1    C     C_R   0.495943 0.199796 0.452826 0.902992
C2    C     C_R   0.504057 0.800204 0.547174 0.902834
C3    C     C_R   0.260079 0.499650 0.500827 0.846051
C4    C     C_R   0.739920 0.500346 0.499170 0.846402
C5    C     C_3   0.053315 0.541781 0.673251 -0.004270
C6    C     C_3   0.946682 0.458220 0.326734 -0.004358
C7    C     C_3   0.954950 0.395103 0.592221 -0.347328
C8    C     C_3   0.045047 0.604895 0.407756 -0.347650
C9    C     C_3   0.876305 0.500890 0.497223 -0.038640
C10   C     C_3   0.123691 0.499105 0.502761 -0.039454
C11   C     C_3   0.973608 0.646176 0.579249 0.007109
C12   C     C_3   0.026388 0.353828 0.420730 0.006655
C13   C     C_2   0.494125 0.031096 0.427281 -0.312504
C14   C     C_2   0.505877 0.968904 0.572719 -0.312576
Cu1   Cu    Cu3+1 0.514140 0.517380 0.684380 1.029173
Cu2   Cu    Cu3+1 0.485860 0.482620 0.315620 1.029477
H1    H     H_    0.916412 0.309667 0.667628 0.183115
H2    H     H_    0.083587 0.690327 0.332346 0.183729
H3    H     H_    0.483139 0.957884 0.287941 0.192875
H4    H     H_    0.516864 0.042116 0.712059 0.193014
N1    N     N_2   0.464560 0.456420 0.038510 -0.200689
N2    N     N_2   0.535440 0.543580 0.961490 -0.200814
O1    O     O_R   0.509190 0.286130 0.619780 -0.636791
O2    O     O_R   0.490810 0.713870 0.380220 -0.636963
O3    O     O_R   0.485310 0.256770 0.308360 -0.522749
O4    O     O_R   0.514690 0.743230 0.691640 -0.523105
O5    O     O_R   0.328790 0.514640 0.655680 -0.634503
O6    O     O_R   0.671210 0.485360 0.344320 -0.633467
O7    O     O_R   0.304910 0.485280 0.344260 -0.534884
O8    O     O_R   0.695090 0.514720 0.655740 -0.534864
C15   C     C_2   0.112868 0.585823 0.867991 0.356080
H5    H     H_    0.113627 0.496694 0.947323 0.076813
O9    O     O_2   0.164988 0.719773 0.935724 -0.527330
C16   C     C_2   0.887168 0.414003 0.131977 0.356367
H6    H     H_    0.888314 0.502305 0.051531 0.076921
O10   O     O_2   0.832957 0.280944 0.065469 -0.526959
C17   C     C_2   0.947420 0.812453 0.665740 0.406969
H7    H     H_    0.026123 0.903820 0.720119 0.115541
O11   O     O_2   0.838664 0.846364 0.674520 -0.525972
C18   C     C_2   0.052543 0.187560 0.334155 0.405864
H8    H     H_    0.973823 0.096243 0.279648 0.115691
O12   O     O_2   0.161290 0.153603 0.325431 -0.525608
C19   C     C_2   0.368825 0.337185 0.935485 0.618577
H9    H     H_    0.346859 0.312443 0.790981 0.071928
O13   O     O_2   0.305953 0.256644 0.014595 -0.522151
C20   C     C_2   0.631214 0.662765 0.064508 0.619630
H10   H     H_    0.653144 0.687550 0.209024 0.071806
O14   O     O_2   0.694152 0.743220 0.985387 -0.521983

loop_
_geom_bond_atom_site_label_1
_geom_bond_atom_site_label_2
_ccdc_geom_bond_type
Cu2   O6    S    
C19   H9    S    
C15   O9    D    
C11   C17   S    
C12   C18   S    
Cu2   N1    S    
C14   H4    S    
C8    H2    S    
C19   O13   D    
Cu2   O2    S    
Cu1   O5    S    
C15   H5    S    
C6    C9    S    
Cu1   O1    S    
Cu2   O7    S    
C5    C10   S    
C2    O4    A    
C3    C10   S    
N1    C19   S    
C13   C14   D    
C1    O3    A    
C9    C11   S    
C3    O7    A    
C17   H7    S    
C10   C12   S    
C8    C11   S    
C6    C12   S    
C3    O5    A    
C18   H8    S    
N2    C20   S    
C1    O1    A    
C16   O10   D    
Cu1   N2    S    
C5    C11   S    
C2    O2    A    
C7    C12   S    
C2    C14   S    
C20   O14   D    
C1    C13   S    
C13   H3    S    
Cu1   Cu2   S    
C7    C9    S    
Cu1   O8    S    
C17   O11   D    
C16   H6    S    
Cu2   O3    S    
C5    C7    S    
C20   H10   S    
Cu1   O4    S    
C6    C8    S    
C4    O6    A    
C4    C9    S    
N1    N2    D    
C8    C10   S    
C4    O8    A    
C6    C16   S    
C18   O12   D    
C5    C15   S    
C7    H1    S    
