data_mof_unit_44488.cif
_audit_creation_date              2012-12-10T17:33:46-0500
_audit_creation_method            fapswitch 2.2
_symmetry_space_group_name_H-M    P1
_symmetry_Int_Tables_number       1
_space_group_crystal_system       triclinic
_cell_length_a                    11.679637
_cell_length_b                    12.442334
_cell_length_c                    13.075682
_cell_angle_alpha                 117.55439
_cell_angle_beta                  76.060754
_cell_angle_gamma                 101.339992
_cell_volume                      1627.00554285

loop_
_atom_site_label
_atom_site_type_symbol
_atom_type_description
_atom_site_fract_x
_atom_site_fract_y
_atom_site_fract_z
_atom_type_partial_charge
C1    C     C_R   0.521262 0.854579 0.285294 0.906756
C2    C     C_R   0.441544 0.233974 0.839804 -0.240506
C3    C     C_R   0.658574 0.787891 0.091106 0.077293
C4    C     C_R   0.676853 0.714725 0.970281 -0.172090
C5    C     C_R   0.601309 0.609456 0.919423 0.213569
C6    C     C_R   0.507370 0.574858 0.994308 0.044652
C7    C     C_R   0.469026 0.666631 0.107491 -0.119274
C8    C     C_R   0.448849 0.454778 0.963218 -0.111579
C9    C     C_R   0.336176 0.438040 0.028660 -0.174046
C10   C     C_R   0.280418 0.541906 0.116804 0.065818
C11   C     C_R   0.351304 0.652306 0.163104 0.559912
C12   C     C_R   0.715701 0.999920 0.499458 0.840451
C13   C     C_R   0.503516 0.350361 0.876294 0.563397
C14   C     C_R   0.334962 0.216662 0.912320 -0.074455
C15   C     C_R   0.547831 0.771499 0.159099 -0.090799
C16   C     C_R   0.710269 0.355018 0.349603 0.558693
C17   C     C_R   0.334499 0.756327 0.641140 0.714674
C18   C     C_R   0.307359 0.670712 0.685271 -0.403421
C19   C     C_R   0.376838 0.575394 0.641760 0.646963
C20   C     C_R   0.469787 0.558284 0.544934 -0.132684
C21   C     C_R   0.501930 0.655392 0.509543 -0.103709
C22   C     C_R   0.534500 0.451724 0.484480 -0.252366
C23   C     C_R   0.477148 0.146045 0.715290 0.856984
C24   C     C_R   0.641400 0.453957 0.405491 -0.407229
C25   C     C_R   0.675670 0.551936 0.378114 0.639417
C26   C     C_R   0.604804 0.645469 0.422243 0.550280
C27   C     C_R   0.496380 0.339908 0.493424 0.753399
C28   C     C_R   0.671447 0.252597 0.368234 0.580918
C29   C     C_R   0.284392 0.999688 0.499914 0.858482
C30   C     C_1   0.837732 0.999639 0.498496 -0.102983
C31   C     C_1   0.940322 0.999033 0.498161 0.032319
C32   C     C_1   0.060080 0.998557 0.498457 0.033825
C33   C     C_1   0.162569 0.998716 0.499083 -0.086331
C34   C     C_R   0.286541 0.318526 0.008786 0.600622
Cu1   Cu    Cu3+1 0.526510 0.098270 0.475420 1.074362
Cu2   Cu    Cu3+1 0.473490 0.901730 0.524580 1.068005
H1    H     H_    0.233119 0.679955 0.755896 0.196083
H2    H     H_    0.752267 0.739467 0.915774 0.153781
N1    N     N_R   0.566700 0.246290 0.438210 -0.335317
N2    N     N_R   0.434010 0.754320 0.561170 -0.215981
O1    O     O_R   0.533340 0.972510 0.318140 -0.580356
O2    O     O_R   0.488570 0.806530 0.359650 -0.475699
O3    O     O_R   0.685190 0.083000 0.479260 -0.535044
O4    O     O_R   0.640410 0.917020 0.520770 -0.531399
O5    O     O_R   0.511430 0.193470 0.640350 -0.530322
O6    O     O_R   0.466660 0.027490 0.681860 -0.587382
O7    O     O_R   0.359590 0.082980 0.479230 -0.522645
O8    O     O_R   0.314810 0.917000 0.520740 -0.499780
C35   C     C_3   0.268906 0.093298 0.892103 -0.295542
C36   C     C_3   0.160734 0.072466 0.836357 -0.630850
H3    H     H_    0.189154 0.070719 0.748357 0.232920
H4    H     H_    0.109298 0.984543 0.827936 0.262847
H5    H     H_    0.101516 0.145986 0.891574 0.256968
H6    H     H_    0.327088 0.019603 0.839814 0.244998
H7    H     H_    0.238771 0.087297 0.976842 0.240448
F1    F     F_    0.775419 0.554013 0.299404 -0.583495
F2    F     F_    0.814720 0.356089 0.276428 -0.549493
F3    F     F_    0.386366 0.318082 0.547256 -0.580491
F4    F     F_    0.260829 0.843172 0.680463 -0.683543
F5    F     F_    0.358018 0.509479 0.703607 -0.635279
F6    F     F_    0.641579 0.719737 0.370238 -0.636689
C37   C     C_3   0.146876 0.540600 0.160521 -0.210317
C38   C     C_3   0.091781 0.625200 0.134276 -0.771530
H8    H     H_    0.121364 0.722326 0.185864 0.286950
H9    H     H_    0.115263 0.602593 0.039483 0.246444
H10   H     H_    0.993734 0.613127 0.157658 0.285963
H11   H     H_    0.098809 0.450093 0.117204 0.272984
H12   H     H_    0.128229 0.567938 0.256289 0.251055
F7    F     F_    0.195974 0.298828 0.087594 -0.665025
F8    F     F_    0.619893 0.358461 0.829411 -0.672814
C39   C     C_3   0.759931 0.880174 0.142415 -0.325975
C40   C     C_3   0.868127 0.817435 0.124560 -0.786345
H13   H     H_    0.843849 0.752526 0.164529 0.289881
H14   H     H_    0.904115 0.767653 0.029995 0.247585
H15   H     H_    0.938697 0.886771 0.167453 0.256417
H16   H     H_    0.784525 0.943331 0.100465 0.241201
H17   H     H_    0.736657 0.935361 0.237652 0.255380
C41   C     C_3   0.607836 0.554121 0.787391 -0.317560
C42   C     C_3   0.731476 0.519400 0.717482 -0.703741
H18   H     H_    0.789747 0.601424 0.717393 0.215990
H19   H     H_    0.774004 0.476089 0.754306 0.307667
H20   H     H_    0.724458 0.454962 0.625176 0.228764
H21   H     H_    0.541748 0.474267 0.755990 0.269189
H22   H     H_    0.583463 0.622627 0.766258 0.182942
F9    F     F_    0.301520 0.747920 0.257570 -0.700493
F10   F     F_    0.738783 0.158136 0.314889 -0.632667

loop_
_geom_bond_atom_site_label_1
_geom_bond_atom_site_label_2
_ccdc_geom_bond_type
C16   C28   A    
C21   C26   A    
C38   H9    S    
C8    C13   A    
C23   O5    A    
Cu2   O2    S    
Cu1   Cu2   S    
C25   F1    S    
Cu1   O7    S    
C7    C11   A    
C37   H11   S    
C29   O7    A    
C26   F6    S    
C12   O3    A    
C5    C6    A    
C14   C35   S    
C13   F8    S    
C35   H6    S    
C29   C33   S    
C18   C19   A    
C2    C13   A    
C41   H21   S    
C19   C20   A    
C27   N1    A    
C8    C9    A    
C36   H4    S    
Cu2   O6    S    
C1    C15   S    
Cu1   O3    S    
C9    C10   A    
C7    C15   A    
C38   H10   S    
C16   C24   A    
C23   O6    A    
C10   C37   S    
C40   H15   S    
Cu1   O1    S    
C17   C18   A    
C36   H5    S    
C29   O8    A    
Cu2   N2    S    
C24   C25   A    
C40   H14   S    
C42   H19   S    
C41   C42   S    
C4    C5    A    
C6    C8    A    
C28   N1    A    
C25   C26   A    
C35   H7    S    
C42   H18   S    
C17   N2    A    
C3    C39   S    
C37   C38   S    
C31   C32   S    
C36   H3    S    
C34   F7    S    
C17   F4    S    
C1    O1    A    
C20   C22   A    
C22   C27   A    
C28   F10   S    
C9    C34   A    
C22   C24   A    
Cu2   O4    S    
C3    C4    A    
Cu1   O5    S    
C39   H16   S    
C39   H17   S    
C3    C15   A    
C12   C30   S    
C18   H1    S    
C4    H2    S    
C40   H13   S    
C27   F3    S    
C14   C34   A    
C42   H20   S    
C6    C7    A    
C19   F5    S    
C37   H12   S    
C32   C33   T    
C39   C40   S    
C12   O4    A    
C30   C31   T    
C21   N2    A    
C11   F9    S    
Cu1   N1    S    
Cu2   O8    S    
C16   F2    S    
C2    C14   A    
C10   C11   A    
C38   H8    S    
C41   H22   S    
C1    O2    A    
C20   C21   A    
C35   C36   S    
C2    C23   S    
C5    C41   S    
