data_mof_unit_60412.cif
_audit_creation_date              2012-10-26T18:42:20-0400
_audit_creation_method            fapswitch 2.2
_symmetry_space_group_name_H-M    P1
_symmetry_Int_Tables_number       1
_space_group_crystal_system       triclinic
_cell_length_a                    15.878051
_cell_length_b                    19.462487
_cell_length_c                    18.139458
_cell_angle_alpha                 89.409888
_cell_angle_beta                  90.041433
_cell_angle_gamma                 89.781441
_cell_volume                      5605.23097891

loop_
_atom_site_label
_atom_site_type_symbol
_atom_type_description
_atom_site_fract_x
_atom_site_fract_y
_atom_site_fract_z
_atom_type_partial_charge
C1    C     C_R   0.501743 0.367562 0.500448 0.572457
C2    C     C_R   0.464476 0.257009 0.443089 -0.156374
C3    C     C_R   0.496453 0.707926 0.498748 0.026772
C4    C     C_R   0.503164 0.292057 0.501198 0.026149
C5    C     C_R   0.482137 0.963748 0.565108 -0.097416
C6    C     C_R   0.516396 0.036249 0.434663 -0.096789
C7    C     C_R   0.482379 0.035294 0.564966 -0.101711
C8    C     C_R   0.516155 0.964700 0.434805 -0.101798
C9    C     C_R   0.499580 0.072086 0.499759 0.030585
C10   C     C_R   0.499013 0.927909 0.500025 0.030662
C11   C     C_R   0.558716 0.462034 0.720915 0.149772
C12   C     C_R   0.498193 0.632432 0.499546 0.572321
C13   C     C_R   0.559324 0.462583 0.279976 0.126303
C14   C     C_R   0.559839 0.458957 0.798448 0.237996
C15   C     C_R   0.561569 0.460778 0.202451 0.231355
C16   C     C_R   0.339635 0.500056 0.499947 0.557890
C17   C     C_R   0.660364 0.499937 0.500052 0.559624
C18   C     C_R   0.499185 0.497312 0.838623 -0.024827
C19   C     C_R   0.501362 0.499699 0.161383 -0.025480
C20   C     C_R   0.440121 0.536614 0.798523 -0.165774
C21   C     C_R   0.440417 0.536923 0.200602 -0.158749
C22   C     C_R   0.441412 0.537143 0.721144 0.037763
C23   C     C_R   0.458428 0.817385 0.442306 -0.068915
C24   C     C_R   0.440819 0.536432 0.277971 0.062184
C25   C     C_R   0.564510 0.529283 0.959148 -0.073811
C26   C     C_R   0.432612 0.472820 0.040821 -0.069426
C27   C     C_R   0.566949 0.532082 0.036558 0.251204
C28   C     C_R   0.430218 0.469902 0.963382 0.257420
C29   C     C_R   0.500593 0.502333 0.078585 -0.054167
C30   C     C_R   0.497414 0.498410 0.921392 -0.053768
C31   C     C_3   0.972280 0.444657 0.538134 -0.106669
C32   C     C_3   0.027715 0.555293 0.461850 -0.110856
C33   C     C_3   0.028353 0.442047 0.468021 -0.113722
C34   C     C_R   0.540674 0.182440 0.557543 -0.068255
C35   C     C_3   0.971643 0.557903 0.531963 -0.113623
C36   C     C_1   0.249986 0.500076 0.499818 0.020136
C37   C     C_1   0.750012 0.499899 0.500178 0.026235
C38   C     C_3   0.027928 0.502590 0.568838 0.264613
C39   C     C_3   0.972066 0.497359 0.431146 0.262839
C40   C     C_3   0.082868 0.500014 0.499621 0.009445
C41   C     C_3   0.917128 0.499936 0.500364 0.010124
C42   C     C_1   0.174486 0.500062 0.499682 0.014103
C43   C     C_1   0.825510 0.499898 0.500309 0.018585
C44   C     C_R   0.457104 0.745783 0.441334 0.237318
C45   C     C_R   0.497987 0.852264 0.499898 -0.012065
C46   C     C_R   0.542363 0.254034 0.558560 0.235426
C47   C     C_R   0.500898 0.147725 0.499952 -0.012307
C48   C     C_R   0.535856 0.814644 0.557375 -0.125285
C49   C     C_R   0.463180 0.185498 0.442517 -0.123123
C50   C     C_R   0.534917 0.743129 0.556854 -0.160446
Cl1   Cl    Cl    0.933675 0.493850 0.339025 -0.521439
Cl2   Cl    Cl    0.066307 0.506096 0.660962 -0.533862
Cl3   Cl    Cl    0.401177 0.706643 0.369202 -0.603520
Cl4   Cl    Cl    0.598574 0.292914 0.630666 -0.571696
Cu1   Cu    Cu3+1 0.499980 0.500000 0.573360 1.002128
Cu2   Cu    Cu3+1 0.500020 0.500000 0.426640 1.004061
H1    H     H_    0.052460 0.394886 0.441208 0.151568
H2    H     H_    0.381508 0.450026 0.072066 0.163690
H3    H     H_    0.948688 0.399680 0.569963 0.161731
H4    H     H_    0.051305 0.600270 0.430021 0.157793
H5    H     H_    0.427015 0.845918 0.398598 0.152522
H6    H     H_    0.571990 0.153780 0.601210 0.154098
H7    H     H_    0.567293 0.840561 0.602150 0.130920
H8    H     H_    0.431598 0.159708 0.397736 0.131609
H9    H     H_    0.565519 0.715249 0.601469 0.141012
H10   H     H_    0.433976 0.285012 0.398508 0.142423
H11   H     H_    0.467497 0.936435 0.615789 0.120148
H12   H     H_    0.947536 0.605064 0.558776 0.150907
H13   H     H_    0.531066 0.063563 0.383990 0.122458
H14   H     H_    0.468096 0.061918 0.615610 0.123485
H15   H     H_    0.530474 0.938078 0.384169 0.123131
H16   H     H_    0.608274 0.413194 0.884930 0.342855
H17   H     H_    0.612126 0.417385 0.116567 0.350721
H18   H     H_    0.625452 0.569942 0.121597 0.353981
H19   H     H_    0.371651 0.431581 0.878533 0.347255
H20   H     H_    0.604845 0.433049 0.690234 0.201822
H21   H     H_    0.605051 0.433079 0.311366 0.166831
H22   H     H_    0.393201 0.566842 0.827090 0.147034
H23   H     H_    0.393101 0.566806 0.171392 0.142017
H24   H     H_    0.395425 0.567496 0.691040 0.152925
H25   H     H_    0.393598 0.565427 0.307339 0.191212
H26   H     H_    0.615740 0.551884 0.927902 0.175151
N1    N     N_R   0.499990 0.500020 0.683620 -0.268159
N2    N     N_R   0.500010 0.499980 0.316380 -0.267954
O1    O     O_R   0.499960 0.400180 0.561980 -0.449633
O2    O     O_3   0.622493 0.420162 0.170197 -0.666157
O3    O     O_3   0.635062 0.564542 0.068117 -0.648414
O4    O     O_3   0.362077 0.437358 0.931952 -0.661301
O5    O     O_R   0.500040 0.599820 0.438020 -0.443534
O6    O     O_R   0.500000 0.400190 0.438070 -0.523341
O7    O     O_R   0.500000 0.599810 0.561930 -0.521436
O8    O     O_R   0.379060 0.499990 0.561940 -0.493736
O9    O     O_R   0.620940 0.500010 0.438060 -0.497568
O10   O     O_R   0.379100 0.500000 0.438040 -0.501556
O11   O     O_R   0.620900 0.500000 0.561960 -0.505004
O12   O     O_3   0.619897 0.417383 0.831541 -0.661099

loop_
_geom_bond_atom_site_label_1
_geom_bond_atom_site_label_2
_ccdc_geom_bond_type
C6    H13   S    
C39   Cl1   S    
Cu1   Cu2   S    
Cu1   O1    S    
C1    O6    A    
C23   C45   A    
C27   C29   A    
C14   C18   A    
C12   O7    A    
C36   C42   T    
C5    H11   S    
C7    H14   S    
C39   C41   S    
C4    C46   A    
Cu2   O10   S    
C13   N2    A    
C33   C39   S    
C19   C21   A    
C11   H20   S    
C11   C14   A    
C38   Cl2   S    
C34   H6    S    
C32   C39   S    
C31   H3    S    
Cu1   O7    S    
C3    C12   S    
C15   C19   A    
C44   Cl3   S    
C28   O4    S    
C31   C33   S    
C34   C46   A    
H18   O3    S    
C40   C42   S    
C49   H8    S    
C41   C43   S    
C46   Cl4   S    
C6    C9    A    
C14   O12   S    
C3    C50   A    
Cu2   N2    S    
C1    O1    A    
Cu2   O9    S    
C13   H21   S    
C3    C44   A    
C33   C40   S    
C32   C35   S    
C12   O5    A    
C35   C38   S    
Cu2   O6    S    
Cu1   O11   S    
C5    C7    A    
C48   H7    S    
C6    C8    A    
C11   N1    A    
C23   C44   A    
C37   C43   T    
C2    C4    A    
C24   H25   S    
Cu1   O8    S    
C2    C49   A    
C21   H23   S    
C10   C45   S    
C17   C37   S    
C27   O3    S    
C26   H2    S    
C15   O2    S    
C17   O11   A    
Cu2   O5    S    
C20   C22   A    
C16   O8    A    
C13   C15   A    
C18   C30   S    
C17   O9    A    
C32   H4    S    
Cu1   N1    S    
C19   C29   S    
C45   C48   A    
C25   C30   A    
C7    C9    A    
C8    H15   S    
C33   H1    S    
C31   C41   S    
C26   C28   A    
C2    H10   S    
C9    C47   S    
C25   C27   A    
C16   O10   A    
C31   C38   S    
C20   H22   S    
C1    C4    S    
C22   N1    A    
C28   C30   A    
C24   N2    A    
C22   H24   S    
C5    C10   A    
C47   C49   A    
C16   C36   S    
C38   C40   S    
C25   H26   S    
C35   H12   S    
C48   C50   A    
C18   C20   A    
C32   C40   S    
C35   C41   S    
C50   H9    S    
H17   O2    S    
H16   O12   S    
H19   O4    S    
C23   H5    S    
C26   C29   A    
C8    C10   A    
C21   C24   A    
C34   C47   A    
