data_mof_unit_38059.cif
_audit_creation_date              2012-12-11T14:40:14-0500
_audit_creation_method            fapswitch 2.2
_symmetry_space_group_name_H-M    P1
_symmetry_Int_Tables_number       1
_space_group_crystal_system       triclinic
_cell_length_a                    19.67328
_cell_length_b                    10.840166
_cell_length_c                    19.4354
_cell_angle_alpha                 89.957519
_cell_angle_beta                  97.603865
_cell_angle_gamma                 89.669133
_cell_volume                      4108.30463172

loop_
_atom_site_label
_atom_site_type_symbol
_atom_type_description
_atom_site_fract_x
_atom_site_fract_y
_atom_site_fract_z
_atom_type_partial_charge
C1    C     C_R   0.707253 0.000424 0.366330 0.546083
C2    C     C_R   0.292383 0.000391 0.633404 0.556428
C3    C     C_R   0.207252 0.500425 0.366330 0.546088
C4    C     C_R   0.792381 0.500388 0.633403 0.556423
C5    C     C_3   0.690966 0.395512 0.488997 -0.134400
C6    C     C_3   0.270602 0.338055 0.512157 -0.115438
C7    C     C_3   0.190972 0.895517 0.488996 -0.134401
C8    C     C_3   0.770617 0.838064 0.512156 -0.115436
C9    C     C_3   0.742443 0.381339 0.437001 0.060432
C10   C     C_3   0.246783 0.415828 0.570423 0.059399
C11   C     C_3   0.242449 0.881356 0.436999 0.060432
C12   C     C_3   0.746785 0.915820 0.570421 0.059401
C13   C     C_3   0.771281 0.510618 0.453418 -0.114761
C14   C     C_3   0.271679 0.533991 0.539865 -0.138109
C15   C     C_3   0.271281 0.010637 0.453418 -0.114773
C16   C     C_3   0.771668 0.033996 0.539868 -0.138122
C17   C     C_3   0.825078 0.452429 0.509579 -0.128513
C18   C     C_3   0.199216 0.549840 0.497810 -0.153278
C19   C     C_3   0.325081 0.952451 0.509578 -0.128522
C20   C     C_3   0.699205 0.049822 0.497809 -0.153276
C21   C     C_3   0.795956 0.323040 0.492107 -0.113587
C22   C     C_3   0.174882 0.430418 0.529972 -0.112598
C23   C     C_3   0.295964 0.823060 0.492104 -0.113585
C24   C     C_3   0.674884 0.930385 0.529966 -0.112592
C25   C     C_3   0.744549 0.337555 0.544837 -0.111365
C26   C     C_3   0.198546 0.352984 0.471060 -0.107268
C27   C     C_3   0.244558 0.837561 0.544834 -0.111364
C28   C     C_3   0.698561 0.852968 0.471055 -0.107273
C29   C     C_3   0.773867 0.465748 0.561749 0.051174
C30   C     C_3   0.222904 0.471743 0.439700 0.052657
C31   C     C_3   0.273870 0.965758 0.561749 0.051173
C32   C     C_3   0.722906 0.971742 0.439699 0.052657
C33   C     C_3   0.509170 0.262922 0.976722 0.282210
C34   C     C_3   0.460911 0.281799 0.030848 0.278591
C35   C     C_3   0.009172 0.762918 0.976722 0.282209
C36   C     C_3   0.960913 0.781800 0.030847 0.278584
C37   C     C_3   0.544344 0.152458 0.015916 -0.143171
C38   C     C_3   0.407350 0.193964 0.992878 -0.178021
C39   C     C_3   0.044343 0.652452 0.015917 -0.143164
C40   C     C_3   0.907350 0.693967 0.992877 -0.178019
C41   C     C_3   0.495699 0.171908 0.071258 0.033999
C42   C     C_3   0.456383 0.175436 0.937807 0.018828
C43   C     C_3   0.995698 0.671908 0.071258 0.033998
C44   C     C_3   0.956384 0.675435 0.937807 0.018828
C45   C     C_R   0.534973 0.180023 0.337922 0.532001
C46   C     C_R   0.465233 0.179724 0.662227 0.552916
C47   C     C_R   0.034973 0.680023 0.337922 0.532003
C48   C     C_R   0.965233 0.679724 0.662227 0.552917
C49   C     C_3   0.442939 0.082522 0.034074 -0.171797
C50   C     C_3   0.490869 0.063773 0.977383 -0.148835
C51   C     C_3   0.942936 0.582523 0.034074 -0.171798
C52   C     C_3   0.990867 0.563770 0.977384 -0.148835
C53   C     C_1   0.784621 0.479251 0.915816 -0.021739
C54   C     C_1   0.235149 0.426494 0.094906 -0.005225
C55   C     C_1   0.284625 0.979262 0.915818 -0.021752
C56   C     C_1   0.735149 0.926493 0.094906 -0.005224
C57   C     C_1   0.762668 0.443345 0.044038 -0.070917
C58   C     C_1   0.248535 0.410707 0.963844 -0.061624
C59   C     C_1   0.262673 0.943360 0.044043 -0.070908
C60   C     C_1   0.748536 0.910707 0.963844 -0.061625
C61   C     C_1   0.775277 0.464399 0.975253 -0.062980
C62   C     C_1   0.242180 0.417125 0.034763 -0.047115
C63   C     C_1   0.275281 0.964414 0.975257 -0.062978
C64   C     C_1   0.742181 0.917125 0.034763 -0.047115
C65   C     C_1   0.750230 0.415365 0.101005 -0.028953
C66   C     C_1   0.255085 0.397615 0.903789 -0.019500
C67   C     C_1   0.250234 0.915376 0.101011 -0.028950
C68   C     C_1   0.755085 0.897616 0.903789 -0.019503
C69   C     C_R   0.728714 0.324470 0.369370 0.528604
C70   C     C_R   0.259266 0.367443 0.639981 0.541706
C71   C     C_R   0.228718 0.824483 0.369370 0.528608
C72   C     C_R   0.759267 0.867440 0.639980 0.541707
C73   C     C_R   0.721528 0.952790 0.163514 0.556051
C74   C     C_R   0.295880 0.999185 0.845331 0.541282
C75   C     C_R   0.221527 0.452791 0.163514 0.556052
C76   C     C_R   0.795878 0.499181 0.845332 0.541278
C77   C     C_R   0.527399 0.178917 0.142567 0.565971
C78   C     C_R   0.436236 0.182949 0.863111 0.552173
C79   C     C_R   0.027399 0.678917 0.142567 0.565969
C80   C     C_R   0.936236 0.682948 0.863111 0.552176
C81   C     C_R   0.736893 0.363727 0.165648 0.551773
C82   C     C_R   0.263677 0.361388 0.835129 0.531464
C83   C     C_R   0.236895 0.863734 0.165651 0.551773
C84   C     C_R   0.763677 0.861388 0.835129 0.531464
C85   C     C_1   0.486528 0.171554 0.595115 -0.016603
C86   C     C_1   0.514169 0.171991 0.405239 -0.012767
C87   C     C_1   0.986528 0.671554 0.595114 -0.016604
C88   C     C_1   0.014169 0.671991 0.405239 -0.012764
C89   C     C_1   0.504494 0.168330 0.464882 -0.061003
C90   C     C_1   0.496501 0.168146 0.535553 -0.064265
C91   C     C_1   0.004494 0.668330 0.464882 -0.060999
C92   C     C_1   0.996501 0.668145 0.535553 -0.064265
C93   C     C_3   0.720182 0.525274 0.507238 -0.125102
C94   C     C_3   0.295015 0.457069 0.480122 -0.105516
C95   C     C_3   0.220182 0.025281 0.507239 -0.125098
C96   C     C_3   0.795017 0.957093 0.480125 -0.105520
Cr1   Cr    Cr6+3 0.765830 0.160660 0.268180 1.021759
Cr2   Cr    Cr6+3 0.234170 0.160660 0.731820 1.020133
Cr3   Cr    Cr6+3 0.265830 0.660660 0.268180 1.021759
Cr4   Cr    Cr6+3 0.734170 0.660660 0.731820 1.020131
Cr5   Cr    Cr6+3 0.612110 0.009150 0.248770 1.019486
Cr6   Cr    Cr6+3 0.387890 0.009150 0.751230 1.017938
Cr7   Cr    Cr6+3 0.112110 0.509150 0.248770 1.019487
Cr8   Cr    Cr6+3 0.887890 0.509150 0.751230 1.017939
Cr9   Cr    Cr6+3 0.615930 0.324050 0.248450 1.035507
Cr10  Cr    Cr6+3 0.384070 0.324050 0.751550 1.031497
Cr11  Cr    Cr6+3 0.115930 0.824050 0.248450 1.035506
Cr12  Cr    Cr6+3 0.884070 0.824050 0.751550 1.031497
H1    H     H_    0.635823 0.371124 0.478715 0.120180
H2    H     H_    0.301142 0.251618 0.520241 0.102397
H3    H     H_    0.135830 0.871121 0.478713 0.120178
H4    H     H_    0.801165 0.751635 0.520238 0.102398
H5    H     H_    0.689068 0.607272 0.517091 0.125255
H6    H     H_    0.343960 0.468034 0.458205 0.131051
H7    H     H_    0.189064 0.107274 0.517092 0.125259
H8    H     H_    0.843962 0.968083 0.458211 0.131050
H9    H     H_    0.781349 0.580270 0.414157 0.128380
H10   H     H_    0.303618 0.601428 0.572290 0.119466
H11   H     H_    0.281347 0.080292 0.414158 0.128379
H12   H     H_    0.803598 0.101439 0.572296 0.119466
H13   H     H_    0.380219 0.976715 0.519837 0.120752
H14   H     H_    0.668066 0.135231 0.488963 0.099087
H15   H     H_    0.880216 0.476688 0.519836 0.120752
H16   H     H_    0.168086 0.635260 0.488962 0.099081
H17   H     H_    0.827658 0.240912 0.483552 0.126385
H18   H     H_    0.126015 0.419763 0.552094 0.130223
H19   H     H_    0.327670 0.740938 0.483546 0.126393
H20   H     H_    0.626016 0.919705 0.552084 0.130227
H21   H     H_    0.732841 0.271320 0.585135 0.132851
H22   H     H_    0.168385 0.279485 0.441550 0.131813
H23   H     H_    0.232855 0.771319 0.585131 0.132855
H24   H     H_    0.668412 0.779461 0.441541 0.131813
H25   H     H_    0.600451 0.135276 0.027013 0.110878
H26   H     H_    0.351372 0.211164 0.981580 0.108782
H27   H     H_    0.100451 0.635268 0.027014 0.110883
H28   H     H_    0.851373 0.711168 0.981578 0.108781
H29   H     H_    0.417030 0.008495 0.060074 0.139145
H30   H     H_    0.502506 0.974165 0.953775 0.145141
H31   H     H_    0.917026 0.508499 0.060074 0.139144
H32   H     H_    0.002503 0.474161 0.953777 0.145139
O1    O     O_R   0.783230 0.287800 0.346510 -0.516347
O2    O     O_R   0.216770 0.287800 0.653490 -0.526708
O3    O     O_R   0.283230 0.787800 0.346510 -0.516354
O4    O     O_R   0.716770 0.787800 0.653490 -0.526710
O5    O     O_R   0.554500 0.081650 0.170370 -0.507099
O6    O     O_R   0.445500 0.081650 0.829630 -0.511883
O7    O     O_R   0.054500 0.581650 0.170370 -0.507099
O8    O     O_R   0.945500 0.581650 0.829630 -0.511880
O9    O     O_R   0.545430 0.285140 0.163100 -0.477177
O10   O     O_R   0.454570 0.285140 0.836900 -0.443359
O11   O     O_R   0.045430 0.785140 0.163100 -0.477177
O12   O     O_R   0.954570 0.785140 0.836900 -0.443363
O13   O     O_R   0.677850 0.374730 0.185500 -0.495965
O14   O     O_R   0.322150 0.374730 0.814500 -0.520071
O15   O     O_R   0.177850 0.874730 0.185500 -0.495968
O16   O     O_R   0.822150 0.874730 0.814500 -0.520072
O17   O     O_3   0.664630 0.164620 0.255130 -0.290683
O18   O     O_3   0.335370 0.164620 0.744870 -0.321677
O19   O     O_3   0.164630 0.664620 0.255130 -0.290677
O20   O     O_3   0.835370 0.664620 0.744870 -0.321671
O21   O     O_R   0.760130 0.037060 0.338610 -0.510145
O22   O     O_R   0.239870 0.037060 0.661390 -0.485974
O23   O     O_R   0.260130 0.537060 0.338610 -0.510141
O24   O     O_R   0.739870 0.537060 0.661390 -0.485975
O25   O     O_R   0.666620 0.921370 0.332440 -0.510204
O26   O     O_R   0.333380 0.921370 0.667560 -0.506211
O27   O     O_R   0.166620 0.421370 0.332440 -0.510206
O28   O     O_R   0.833380 0.421370 0.667560 -0.506210
O29   O     O_R   0.557170 0.082420 0.312350 -0.512264
O30   O     O_R   0.442830 0.082420 0.687650 -0.509773
O31   O     O_R   0.057170 0.582420 0.312350 -0.512265
O32   O     O_R   0.942830 0.582420 0.687650 -0.509772
O33   O     O_R   0.548310 0.285980 0.316250 -0.512084
O34   O     O_R   0.451690 0.285980 0.683750 -0.494919
O35   O     O_R   0.048310 0.785980 0.316250 -0.512082
O36   O     O_R   0.951690 0.785980 0.683750 -0.494918
O37   O     O_R   0.680520 0.375500 0.327470 -0.495485
O38   O     O_R   0.319480 0.375500 0.672530 -0.499299
O39   O     O_R   0.180520 0.875500 0.327470 -0.495489
O40   O     O_R   0.819480 0.875500 0.672530 -0.499298
O41   O     O_R   0.780350 0.286970 0.193350 -0.504464
O42   O     O_R   0.219650 0.286970 0.806650 -0.511925
O43   O     O_R   0.280350 0.786970 0.193350 -0.504467
O44   O     O_R   0.719650 0.786970 0.806650 -0.511924
O45   O     O_R   0.757460 0.036290 0.196640 -0.491594
O46   O     O_R   0.242540 0.036290 0.803360 -0.481095
O47   O     O_R   0.257460 0.536290 0.196640 -0.491593
O48   O     O_R   0.742540 0.536290 0.803360 -0.481096
O49   O     O_R   0.663740 0.920540 0.179290 -0.502448
O50   O     O_R   0.336260 0.920540 0.820710 -0.498375
O51   O     O_R   0.163740 0.420540 0.179290 -0.502450
O52   O     O_R   0.836260 0.420540 0.820710 -0.498378
O53   O     O_3   0.540689 0.356671 0.941977 -0.539596
C97   C     C_3   0.593021 0.412752 0.987454 -0.018177
H33   H     H_    0.639185 0.352509 0.992674 0.148428
H34   H     H_    0.577886 0.429851 0.039898 0.165196
C98   C     C_3   0.609822 0.536709 0.956898 -0.353770
H35   H     H_    0.562927 0.594674 0.946326 0.146124
H36   H     H_    0.647556 0.587010 0.993952 0.116158
H37   H     H_    0.631322 0.522390 0.907467 0.185717
O54   O     O_3   0.446707 0.391757 0.065498 -0.546832
C99   C     C_3   0.423287 0.484237 0.016912 -0.001735
H38   H     H_    0.380990 0.450800 0.978346 0.142322
H39   H     H_    0.465166 0.516252 0.988748 0.166990
C100  C     C_3   0.398412 0.594997 0.054883 -0.360729
H40   H     H_    0.441861 0.635570 0.089699 0.157472
H41   H     H_    0.376883 0.666090 0.016793 0.108834
H42   H     H_    0.358180 0.566850 0.086535 0.183436
O55   O     O_3   0.040696 0.856662 0.941977 -0.539590
C101  C     C_3   0.093021 0.912751 0.987460 -0.018174
H43   H     H_    0.139186 0.852509 0.992692 0.148423
H44   H     H_    0.077877 0.929858 0.039899 0.165202
C102  C     C_3   0.109827 0.036703 0.956902 -0.353769
H45   H     H_    0.062929 0.094660 0.946309 0.146138
H46   H     H_    0.147548 0.087017 0.993965 0.116155
H47   H     H_    0.131345 0.022375 0.907481 0.185713
O56   O     O_3   0.946709 0.891760 0.065496 -0.546835
C103  C     C_3   0.923288 0.984237 0.016908 -0.001738
H48   H     H_    0.880992 0.950799 0.978342 0.142323
H49   H     H_    0.965168 0.016251 0.988743 0.166980
C104  C     C_3   0.898413 0.094999 0.054878 -0.360728
H50   H     H_    0.941862 0.135574 0.089693 0.157473
H51   H     H_    0.876884 0.166090 0.016786 0.108834
H52   H     H_    0.858180 0.066853 0.086529 0.183434

loop_
_geom_bond_atom_site_label_1
_geom_bond_atom_site_label_2
_ccdc_geom_bond_type
C58   C62   S    
C97   H34   S    
C67   C83   S    
Cr10  O10   S    
C49   H29   S    
C3    C30   S    
C17   C29   S    
O54   C99   S    
C14   C18   S    
C35   C39   S    
C35   C36   S    
C8    C96   S    
C81   O41   A    
C44   C80   S    
C19   C31   S    
Cr6   O18   S    
Cr3   O47   S    
C94   H6    S    
C3    O27   A    
C38   C49   S    
C39   H27   S    
C102  H45   S    
C10   C22   S    
C15   C19   S    
C40   H28   S    
Cr5   O5    S    
C99   H39   S    
C33   C42   S    
C79   O11   A    
C16   C20   S    
Cr4   O48   S    
C9    C69   S    
C38   C42   S    
C104  H52   S    
Cr3   O19   S    
C16   H12   S    
C101  H43   S    
C15   C95   S    
C73   O49   A    
Cr5   O17   S    
C11   C71   S    
C13   H9    S    
C22   H18   S    
C97   C98   S    
C83   O15   A    
Cr1   O45   S    
C34   O54   S    
C69   O1    A    
Cr8   O52   S    
C7    C27   S    
Cr12  O40   S    
C80   O12   A    
C46   O34   A    
C71   O39   A    
C57   C61   S    
C98   H36   S    
C81   O13   A    
C7    C11   S    
C9    C13   S    
C59   C67   T    
Cr12  O12   S    
C55   C74   S    
C11   C15   S    
C17   H15   S    
Cr9   O17   S    
Cr2   O18   S    
C95   H7    S    
Cr10  O14   S    
C99   C100  S    
C55   C63   T    
C4    O24   A    
Cr5   O29   S    
C18   C30   S    
C23   C27   S    
C2    O26   A    
C40   C44   S    
C20   H14   S    
C4    C29   S    
C76   O48   A    
C3    O23   A    
Cr8   O32   S    
C46   C85   S    
C69   O37   A    
C44   C52   S    
C102  H46   S    
C97   H33   S    
C12   C72   S    
C33   O53   S    
Cr6   O26   S    
Cr9   O33   S    
C87   C92   T    
Cr2   O2    S    
Cr7   O31   S    
C6    H2    S    
C2    O22   A    
C98   H35   S    
C34   C41   S    
C53   C61   T    
Cr8   O20   S    
C28   C32   S    
C41   C49   S    
C73   O45   A    
Cr2   O22   S    
C58   C66   T    
C33   C34   S    
C100  H41   S    
C25   C29   S    
C70   O2    A    
C16   C96   S    
C99   H38   S    
C27   C31   S    
C51   C52   S    
C68   C84   S    
C12   C16   S    
C84   O44   A    
C21   C25   S    
C10   C14   S    
C77   O9    A    
C91   C92   S    
C29   C93   S    
C19   C23   S    
C70   O38   A    
C39   C43   S    
C54   C62   T    
C6    C94   S    
O56   C103  S    
Cr10  O18   S    
C1    C32   S    
C33   C37   S    
C27   H23   S    
C4    O28   A    
C82   O14   A    
C13   C93   S    
C2    C31   S    
C28   H24   S    
Cr1   O17   S    
Cr2   O42   S    
C98   H37   S    
C75   O51   A    
C5    C9    S    
C104  H50   S    
C76   O52   A    
C45   O33   A    
Cr8   O28   S    
Cr4   O20   S    
C47   O31   A    
Cr12  O16   S    
C88   C91   T    
C36   C40   S    
C8    C12   S    
Cr9   O13   S    
Cr11  O19   S    
C74   O50   A    
C56   C64   T    
O55   C101  S    
Cr10  O34   S    
C48   C87   S    
C83   O43   A    
Cr4   O24   S    
C78   O10   A    
C93   H5    S    
Cr7   O27   S    
Cr5   O25   S    
C35   C44   S    
Cr1   O1    S    
C14   C94   S    
C42   C50   S    
Cr3   O23   S    
C10   C70   S    
C101  H44   S    
Cr9   O37   S    
C32   C96   S    
C104  H51   S    
C14   H10   S    
Cr1   O21   S    
Cr4   O4    S    
C8    C28   S    
C49   C50   S    
C5    C25   S    
C53   C76   S    
Cr7   O51   S    
C72   O40   A    
C21   H17   S    
C40   C51   S    
C77   O5    A    
Cr9   O9    S    
C48   O32   A    
C103  C104  S    
C23   H19   S    
C20   C32   S    
C100  H42   S    
Cr3   O3    S    
C72   O4    A    
C100  H40   S    
C19   H13   S    
C56   C73   S    
C9    C21   S    
Cr11  O39   S    
C1    O25   A    
C34   C38   S    
C59   C63   S    
C75   O47   A    
C24   C28   S    
C57   C65   T    
C86   C89   T    
C26   H22   S    
C36   O56   S    
C6    C10   S    
C5    C93   S    
C85   C90   T    
C50   H30   S    
Cr1   O41   S    
C102  H47   S    
Cr12  O20   S    
C7    H3    S    
C101  C102  S    
C7    C95   S    
C82   O42   A    
Cr5   O49   S    
C42   C78   S    
C13   C17   S    
C103  H49   S    
C60   C64   S    
C47   C88   S    
C20   C24   S    
C18   C22   S    
C45   C86   S    
C35   O55   S    
Cr11  O11   S    
Cr8   O8    S    
C30   C94   S    
Cr6   O6    S    
C66   C82   S    
C41   C77   S    
C37   C50   S    
C84   O16   A    
Cr7   O19   S    
C103  H48   S    
C6    C26   S    
C71   O3    A    
Cr11  O35   S    
Cr6   O30   S    
C43   C51   S    
C26   C30   S    
C31   C95   S    
Cr12  O36   S    
C11   C23   S    
Cr6   O50   S    
C8    H4    S    
C15   H11   S    
C79   O7    A    
C37   H25   S    
C38   H26   S    
C37   C41   S    
C12   C24   S    
Cr4   O44   S    
C17   C21   S    
C78   O6    A    
C47   O35   A    
C1    O21   A    
C54   C75   S    
C52   H32   S    
C46   O30   A    
C80   O8    A    
C60   C68   T    
Cr2   O46   S    
O53   C97   S    
C22   C26   S    
C24   H20   S    
C65   C81   S    
C96   H8    S    
C36   C43   S    
Cr3   O43   S    
C5    H1    S    
C74   O46   A    
C89   C90   S    
C43   C79   S    
Cr10  O38   S    
Cr11  O15   S    
C45   O29   A    
C39   C52   S    
C18   H16   S    
Cr7   O7    S    
C48   O36   A    
C25   H21   S    
C51   H31   S    
