data_mof_unit_14266.cif
_audit_creation_date              2012-12-10T20:31:55-0500
_audit_creation_method            fapswitch 2.2
_symmetry_space_group_name_H-M    P1
_symmetry_Int_Tables_number       1
_space_group_crystal_system       triclinic
_cell_length_a                    9.891162
_cell_length_b                    10.694209
_cell_length_c                    15.5993
_cell_angle_alpha                 90.171981
_cell_angle_beta                  67.629003
_cell_angle_gamma                 89.64565
_cell_volume                      1525.82451832

loop_
_atom_site_label
_atom_site_type_symbol
_atom_type_description
_atom_site_fract_x
_atom_site_fract_y
_atom_site_fract_z
_atom_type_partial_charge
C1    C     C_R   0.501461 0.740018 0.497003 0.945517
C2    C     C_R   0.726868 0.540155 0.034429 0.150042
C3    C     C_R   0.590661 0.484126 0.085806 0.091569
C4    C     C_R   0.408334 0.499309 0.675713 0.958836
C5    C     C_R   0.827193 0.564990 0.076144 -0.177178
C6    C     C_R   0.788060 0.544903 0.170730 -0.196850
C7    C     C_R   0.554143 0.465256 0.180411 -0.236369
C8    C     C_R   0.392477 0.937272 0.475606 -0.050364
C9    C     C_R   0.510407 0.871379 0.481899 -0.093895
C10   C     C_R   0.640567 0.934342 0.469852 -0.174818
C11   C     C_R   0.641103 0.063646 0.470046 -0.158760
C12   C     C_R   0.415586 0.480371 0.911134 -0.020224
C13   C     C_R   0.511399 0.128637 0.482527 -0.130583
C14   C     C_R   0.392880 0.065060 0.476748 -0.058425
C15   C     C_3   0.233621 0.074893 0.535557 0.422384
C16   C     C_R   0.502049 0.260042 0.497281 0.870842
C17   C     C_3   0.232063 0.932887 0.533227 0.786337
C18   C     C_R   0.899549 0.589901 0.547422 0.174410
C19   C     C_R   0.961694 0.419979 0.444995 -0.091447
C20   C     C_R   0.105888 0.420709 0.444412 -0.016322
C21   C     C_R   0.040109 0.586852 0.550158 0.255019
C22   C     C_3   0.978491 0.604908 0.652983 0.125268
C23   C     C_R   0.297159 0.398151 0.954835 0.090071
C24   C     C_3   0.828544 0.614380 0.648284 -0.487957
C25   C     C_R   0.591553 0.498964 0.324329 0.855854
C26   C     C_R   0.351232 0.481399 0.775746 -0.147883
C27   C     C_R   0.648632 0.499912 0.223417 -0.051325
C28   C     C_R   0.207498 0.359417 0.908713 -0.198306
C29   C     C_R   0.239826 0.395457 0.817584 -0.231990
C30   C     C_R   0.427910 0.532863 0.825826 0.523093
C31   C     C_R   0.519621 0.501845 0.952304 0.075331
C32   C     C_R   0.491331 0.455814 0.042667 0.064789
C33   C     C_R   0.367314 0.379922 0.086003 -0.207561
C34   C     C_R   0.273181 0.350803 0.042217 -0.180847
C35   C     C_R   0.656246 0.558539 0.903594 -0.110322
C36   C     C_R   0.759201 0.574305 0.943075 -0.203266
Cl1   Cl    Cl    0.129441 0.868291 0.471329 -0.589501
Cl2   Cl    Cl    0.993004 0.468027 0.714176 -0.635078
F1    F     F_    0.156435 0.130587 0.487974 -0.631833
F2    F     F_    0.201000 0.880050 0.619504 -0.696979
F3    F     F_    0.507978 0.636852 0.791586 -0.698527
H1    H     H_    0.182757 0.288336 0.076214 0.151936
H2    H     H_    0.754084 0.537283 0.683796 0.267479
H3    H     H_    0.779953 0.709867 0.663377 0.231485
H4    H     H_    0.863018 0.570870 0.203291 0.165113
H5    H     H_    0.863137 0.616807 0.902547 0.188017
H6    H     H_    0.119585 0.293879 0.940575 0.171226
H7    H     H_    0.182792 0.351595 0.778743 0.231188
H8    H     H_    0.344816 0.334590 0.151567 0.147088
H9    H     H_    0.690579 0.586681 0.833018 0.227071
H10   H     H_    0.932978 0.605071 0.036558 0.156461
H11   H     H_    0.738151 0.884930 0.467012 0.199298
H12   H     H_    0.738929 0.111525 0.467184 0.194675
H13   H     H_    0.210564 0.116346 0.605237 0.099214
H14   H     H_    0.933765 0.353455 0.402108 0.148297
H15   H     H_    0.186727 0.355330 0.400571 0.176148
H16   H     H_    0.447368 0.432244 0.223744 0.152283
H17   H     H_    0.014536 0.692671 0.675745 0.203940
N1    N     N_R   0.856900 0.500860 0.500610 -0.108937
N2    N     N_R   0.142540 0.500820 0.500610 -0.098290
O1    O     O_R   0.385310 0.683210 0.499990 -0.574370
O2    O     O_R   0.614650 0.683240 0.500000 -0.625094
O3    O     O_R   0.319830 0.499970 0.632240 -0.568312
O4    O     O_R   0.549170 0.500000 0.632250 -0.598236
O5    O     O_R   0.385350 0.316760 0.500000 -0.590486
O6    O     O_R   0.614690 0.316790 0.500010 -0.625465
O7    O     O_R   0.450830 0.500000 0.367750 -0.625465
O8    O     O_R   0.680170 0.500030 0.367760 -0.627791
Zn1   Zn    Zn3+2 0.346870 0.499980 0.499990 1.039604
Zn2   Zn    Zn3+2 0.653130 0.500020 0.500010 0.979175

loop_
_geom_bond_atom_site_label_1
_geom_bond_atom_site_label_2
_ccdc_geom_bond_type
C22   H17   S    
C4    C26   S    
C30   F3    S    
C36   H5    S    
C6    H4    S    
O4    Zn2   S    
C20   N2    A    
C18   C21   A    
C9    C10   A    
C4    O4    A    
C6    C27   A    
C34   H1    S    
C20   H15   S    
C23   C34   A    
C10   H11   S    
C1    O2    A    
C35   H9    S    
C12   C30   A    
C2    C3    A    
C8    C9    A    
C1    C9    S    
C3    C32   A    
C28   H6    S    
C17   Cl1   S    
C13   C14   A    
C32   C33   A    
C8    C17   S    
C11   C13   A    
C12   C23   A    
C15   F1    S    
O6    Zn2   S    
C25   O8    A    
N2    Zn1   S    
C21   N2    A    
C18   C24   S    
C31   C35   A    
C4    O3    A    
C28   C29   A    
C25   O7    A    
C33   C34   A    
C26   C30   A    
C3    C7    A    
C12   C31   A    
C5    C6    A    
C24   H3    S    
O5    Zn1   S    
C13   C16   S    
C2    C5    A    
C16   O6    A    
C10   C11   A    
N1    Zn2   S    
O1    Zn1   S    
C22   Cl2   S    
C15   H13   S    
O3    Zn1   S    
C18   N1    A    
C7    C27   A    
O2    Zn2   S    
C26   C29   A    
O8    Zn2   S    
C22   C24   S    
C2    C36   A    
C15   C17   S    
C24   H2    S    
C19   H14   S    
C14   C15   S    
C5    H10   S    
C8    C14   A    
C16   O5    A    
C29   H7    S    
C19   N1    A    
C21   C22   S    
C25   C27   S    
C35   C36   A    
C7    H16   S    
C31   C32   A    
C23   C28   A    
C19   C20   A    
C1    O1    A    
C33   H8    S    
O7    Zn1   S    
C17   F2    S    
C11   H12   S    
