data_mof_unit_30899.cif
_audit_creation_date              2012-12-10T17:35:50-0500
_audit_creation_method            fapswitch 2.2
_symmetry_space_group_name_H-M    P1
_symmetry_Int_Tables_number       1
_space_group_crystal_system       triclinic
_cell_length_a                    10.556047
_cell_length_b                    12.14481
_cell_length_c                    12.759607
_cell_angle_alpha                 95.629839
_cell_angle_beta                  92.165568
_cell_angle_gamma                 85.809398
_cell_volume                      1622.78139463

loop_
_atom_site_label
_atom_site_type_symbol
_atom_type_description
_atom_site_fract_x
_atom_site_fract_y
_atom_site_fract_z
_atom_type_partial_charge
C1    C     C_R   0.495494 0.523913 0.700147 0.884369
C2    C     C_R   0.633713 0.161773 0.557793 -0.043230
C3    C     C_R   0.568207 0.858286 0.526895 0.264857
C4    C     C_R   0.431792 0.141714 0.473105 0.264861
C5    C     C_R   0.558486 0.975539 0.519005 -0.020603
C6    C     C_R   0.441514 0.024461 0.480994 -0.020606
C7    C     C_R   0.741599 0.499463 0.499811 0.902282
C8    C     C_R   0.258401 0.500536 0.500189 0.902281
C9    C     C_3   0.969805 0.394670 0.491894 0.114276
C10   C     C_3   0.030195 0.605329 0.508105 0.114274
C11   C     C_3   0.050293 0.449810 0.581998 0.009662
C12   C     C_R   0.504504 0.476087 0.299853 0.884363
C13   C     C_3   0.949707 0.550189 0.418001 0.009660
C14   C     C_3   0.124483 0.501919 0.500402 -0.092967
C15   C     C_3   0.875517 0.498080 0.499598 -0.092968
C16   C     C_3   0.043075 0.446967 0.410340 0.021068
C17   C     C_3   0.956925 0.553032 0.589659 0.021067
C18   C     C_R   0.514353 0.458606 0.187717 -0.089381
C19   C     C_R   0.485650 0.541398 0.812283 -0.089385
C20   C     C_R   0.369371 0.606951 0.968068 0.110073
C21   C     C_R   0.630657 0.393079 0.031939 0.110074
C22   C     C_R   0.386812 0.610503 0.860146 0.156369
C23   C     C_R   0.567737 0.473754 0.869404 -0.321008
C24   C     C_R   0.613204 0.389513 0.139857 0.156367
C25   C     C_3   0.702053 0.316827 0.204451 -0.836506
C26   C     C_3   0.297962 0.683191 0.795554 -0.836503
C27   C     C_3   0.334244 0.190434 0.398409 -0.780951
C28   C     C_3   0.665756 0.809566 0.601591 -0.780952
C29   C     C_3   0.202252 0.994522 0.441734 -0.934045
C30   C     C_3   0.797748 0.005478 0.558262 -0.934048
C31   C     C_R   0.432271 0.526257 0.130597 -0.321004
C32   C     C_R   0.550337 0.466670 0.975198 0.071549
C33   C     C_R   0.449680 0.533347 0.024805 0.071548
C34   C     C_R   0.340772 0.953635 0.450312 0.129909
C35   C     C_R   0.659228 0.046365 0.549686 0.129906
C36   C     C_R   0.366287 0.838226 0.442207 -0.043231
H1    H     H_    0.357134 0.576529 0.171631 0.150604
H2    H     H_    0.911817 0.263010 0.557644 0.171948
H3    H     H_    0.982652 0.770227 0.536577 0.193137
H4    H     H_    0.088184 0.736989 0.442355 0.171946
H5    H     H_    0.014921 0.364766 0.266037 0.195138
H6    H     H_    0.137296 0.446419 0.274465 0.166616
H7    H     H_    0.985079 0.635233 0.733963 0.195136
H8    H     H_    0.862703 0.553581 0.725534 0.166615
H9    H     H_    0.781205 0.273334 0.158828 0.248599
H10   H     H_    0.745485 0.367877 0.271380 0.223380
H11   H     H_    0.648205 0.252489 0.235407 0.255549
H12   H     H_    0.642871 0.423478 0.828369 0.150606
H13   H     H_    0.218828 0.726704 0.841184 0.248601
H14   H     H_    0.351815 0.747513 0.764577 0.255557
H15   H     H_    0.254506 0.632137 0.728640 0.223372
H16   H     H_    0.205535 0.627410 0.048942 0.173883
H17   H     H_    0.308635 0.728853 0.079396 0.189186
H18   H     H_    0.794504 0.372688 0.951083 0.173888
H19   H     H_    0.691467 0.271197 0.920618 0.189177
H20   H     H_    0.366395 0.262893 0.365944 0.278020
H21   H     H_    0.320384 0.131922 0.327311 0.205925
H22   H     H_    0.243610 0.215038 0.437978 0.244498
H23   H     H_    0.706732 0.215888 0.586488 0.148851
H24   H     H_    0.633602 0.737111 0.634060 0.278016
H25   H     H_    0.756388 0.784957 0.562020 0.244500
H26   H     H_    0.679622 0.868081 0.672686 0.205928
H27   H     H_    0.180089 0.063324 0.503483 0.251663
H28   H     H_    0.176392 0.018886 0.361856 0.246793
H29   H     H_    0.139126 0.928823 0.456250 0.235890
H30   H     H_    0.819908 0.936670 0.496519 0.251664
H31   H     H_    0.860873 0.071174 0.543734 0.235894
H32   H     H_    0.823612 0.981123 0.638143 0.246793
H33   H     H_    0.293268 0.784111 0.413511 0.148850
H34   H     H_    0.033181 0.372260 0.714063 0.172570
H35   H     H_    0.155869 0.453014 0.718581 0.182857
H36   H     H_    0.966817 0.627744 0.285939 0.172570
H37   H     H_    0.844135 0.546983 0.281416 0.182863
H38   H     H_    0.017347 0.229772 0.463422 0.193136
N1    N     N_R   0.523490 0.207800 0.519350 -0.122723
N2    N     N_3   0.730808 0.323042 0.981658 -0.473932
N3    N     N_R   0.476510 0.792200 0.480650 -0.122724
N4    N     N_3   0.107369 0.394468 0.670280 -0.441872
N5    N     N_3   0.892630 0.605530 0.329719 -0.441873
N6    N     N_3   0.935521 0.280158 0.482550 -0.436283
N7    N     N_3   0.064478 0.719841 0.517450 -0.436280
N8    N     N_3   0.092757 0.388910 0.313584 -0.462195
N9    N     N_3   0.907243 0.611089 0.686416 -0.462195
N10   N     N_3   0.269258 0.677026 0.018360 -0.473925
O1    O     O_R   0.506270 0.421700 0.658830 -0.609828
O2    O     O_R   0.493730 0.578300 0.341170 -0.609829
O3    O     O_R   0.491200 0.609310 0.646410 -0.635364
O4    O     O_R   0.508800 0.390690 0.353590 -0.635361
O5    O     O_R   0.693580 0.406210 0.506230 -0.629357
O6    O     O_R   0.306420 0.593790 0.493770 -0.629356
O7    O     O_R   0.678510 0.593830 0.493810 -0.604773
O8    O     O_R   0.321490 0.406170 0.506190 -0.604777
Zn1   Zn    Zn3+2 0.510060 0.374730 0.508290 0.935504
Zn2   Zn    Zn3+2 0.489940 0.625270 0.491710 0.935502

loop_
_geom_bond_atom_site_label_1
_geom_bond_atom_site_label_2
_ccdc_geom_bond_type
C2    C35   A    
C1    O3    A    
C13   N5    S    
H34   N4    S    
H7    N9    S    
H6    N8    S    
H8    N9    S    
C29   H27   S    
C21   N2    S    
C30   C35   S    
H17   N10   S    
C18   C24   A    
C3    C28   S    
C9    C16   S    
H36   N5    S    
C36   N3    A    
C26   H14   S    
C5    C6    A    
C11   C14   S    
C10   C17   S    
C7    O5    A    
O3    Zn2   S    
N3    Zn2   S    
H16   N10   S    
C4    N1    A    
O2    Zn2   S    
O1    Zn1   S    
C31   C33   A    
C8    O8    A    
C14   C16   S    
C25   H11   S    
C30   H31   S    
C28   H25   S    
C7    C15   S    
C29   H28   S    
H38   N6    S    
O6    Zn2   S    
C28   H24   S    
C1    O1    A    
C21   C32   A    
C1    C19   S    
C12   O4    A    
C19   C22   A    
C24   C25   S    
H3    N7    S    
C4    C6    A    
C27   H21   S    
C26   H13   S    
C27   H20   S    
C29   C34   S    
C10   C13   S    
C31   H1    S    
C17   N9    S    
C9    N6    S    
C19   C23   A    
C11   N4    S    
C7    O7    A    
C16   N8    S    
H37   N5    S    
C9    C11   S    
C30   H30   S    
C29   H29   S    
C20   C33   A    
C20   C22   A    
C13   C15   S    
C10   C14   S    
H18   N2    S    
C21   C24   A    
C8    O6    A    
H19   N2    S    
C3    N3    A    
C25   H9    S    
C4    C27   S    
C36   H33   S    
N1    Zn1   S    
C15   C17   S    
O4    Zn1   S    
C11   C17   S    
C8    C14   S    
C23   H12   S    
C2    H23   S    
H4    N7    S    
C3    C5    A    
C27   H22   S    
C10   N7    S    
C12   O2    A    
C23   C32   A    
C20   N10   S    
C9    C15   S    
C26   H15   S    
C32   C33   A    
O7    Zn2   S    
H2    N6    S    
H5    N8    S    
C5    C35   A    
O8    Zn1   S    
C34   C36   A    
O5    Zn1   S    
C6    C34   A    
C22   C26   S    
C13   C16   S    
C12   C18   S    
C18   C31   A    
C25   H10   S    
H35   N4    S    
C30   H32   S    
C2    N1    A    
C28   H26   S    
