data_mof_unit_63474.cif
_audit_creation_date              2012-10-26T17:37:00-0400
_audit_creation_method            fapswitch 2.2
_symmetry_space_group_name_H-M    P1
_symmetry_Int_Tables_number       1
_space_group_crystal_system       triclinic
_cell_length_a                    18.765256
_cell_length_b                    18.724206
_cell_length_c                    18.81092
_cell_angle_alpha                 109.391308
_cell_angle_beta                  109.717314
_cell_angle_gamma                 109.195635
_cell_volume                      5094.76498225

loop_
_atom_site_label
_atom_site_type_symbol
_atom_type_description
_atom_site_fract_x
_atom_site_fract_y
_atom_site_fract_z
_atom_type_partial_charge
C1    C     C_R   0.381112 0.380908 0.500191 0.548431
C2    C     C_R   0.313839 0.314172 0.500569 0.011359
C3    C     C_R   0.319500 0.579136 0.320737 -0.133241
C4    C     C_R   0.617210 0.497729 0.619380 0.558560
C5    C     C_R   0.255871 0.579113 0.255618 -0.132943
C6    C     C_R   0.184061 0.499910 0.184147 0.025275
C7    C     C_R   0.176874 0.420733 0.177257 -0.133123
C8    C     C_R   0.242058 0.420768 0.240852 -0.131350
C9    C     C_R   0.313104 0.499968 0.313091 0.026674
C10   C     C_R   0.770956 0.749609 0.582040 0.007637
C11   C     C_R   0.833438 0.811363 0.578024 -0.155823
C12   C     C_3   0.808561 0.498761 0.808873 0.031717
C13   C     C_R   0.814932 0.814011 0.500738 0.012037
C14   C     C_R   0.733962 0.752916 0.425427 -0.138963
C15   C     C_R   0.672055 0.688818 0.427247 -0.158336
C16   C     C_R   0.621188 0.619047 0.502655 0.585052
C17   C     C_R   0.689384 0.686890 0.504910 0.037569
C18   C     C_R   0.997777 0.381050 0.878978 0.544480
C19   C     C_R   0.877880 0.499626 0.877502 0.545521
C20   C     C_R   0.995565 0.619109 0.114162 0.551891
C21   C     C_R   0.116831 0.499918 0.116832 0.546510
C22   C     C_R   0.000491 0.880932 0.381672 0.548406
C23   C     C_3   0.848053 0.567654 0.784529 -0.251128
C24   C     C_R   0.118573 0.119699 0.500925 0.554594
C25   C     C_R   0.999159 0.118736 0.618274 0.557320
C26   C     C_R   0.881144 0.880615 0.499608 0.553490
C27   C     C_R   0.075488 0.312185 0.828306 -0.140733
C28   C     C_R   0.380418 0.500014 0.380399 0.542359
C29   C     C_R   0.075472 0.247048 0.765235 -0.125922
C30   C     C_R   0.998570 0.185488 0.685184 0.033131
C31   C     C_R   0.921280 0.188373 0.669383 -0.134528
C32   C     C_R   0.920738 0.251826 0.733619 -0.141159
C33   C     C_R   0.998007 0.314116 0.812685 0.026351
C34   C     C_3   0.747781 0.518255 0.841505 -0.203801
C35   C     C_R   0.991026 0.757727 0.173410 -0.030925
C36   C     C_R   0.991648 0.820321 0.239687 -0.134285
C37   C     C_R   0.000982 0.815096 0.314372 0.011059
C38   C     C_R   0.008544 0.746283 0.323080 -0.138376
C39   C     C_R   0.004973 0.681696 0.256136 -0.145174
C40   C     C_3   0.684377 0.408384 0.652763 -0.211333
C41   C     C_R   0.996704 0.687029 0.181422 0.018635
C42   C     C_3   0.753288 0.407795 0.725761 -0.230155
C43   C     C_3   0.775412 0.570013 0.717663 -0.260613
C44   C     C_3   0.673227 0.515146 0.769729 -0.079352
C45   C     C_R   0.263936 0.336191 0.535448 -0.133813
C46   C     C_3   0.684990 0.496795 0.688106 0.043527
C47   C     C_R   0.147721 0.299690 0.573051 0.022953
C48   C     C_R   0.189005 0.358111 0.662581 -0.106478
C49   C     C_R   0.142489 0.386773 0.697939 -0.112145
C50   C     C_R   0.054543 0.357209 0.644287 -0.094970
C51   C     C_R   0.013106 0.299296 0.555087 -0.104662
C52   C     C_R   0.059627 0.271119 0.519335 -0.064211
C53   C     C_2   0.796209 0.753591 0.667671 0.190466
C54   C     C_R   0.981869 0.767941 0.096717 0.038069
C55   C     C_R   0.901992 0.754161 0.038100 -0.112981
C56   C     C_R   0.198480 0.273157 0.535322 -0.029938
C57   C     C_R   0.895060 0.772092 0.970335 -0.126363
C58   C     C_R   0.967976 0.804583 0.961168 -0.113855
C59   C     C_R   0.047794 0.818771 0.019500 -0.113014
C60   C     C_R   0.055045 0.801319 0.087603 -0.057524
C61   C     C_2   0.583817 0.451610 0.747833 0.196842
C62   C     C_R   0.184761 0.187397 0.501486 0.028407
C63   C     C_R   0.235553 0.165804 0.468061 -0.138936
C64   C     C_R   0.299289 0.228673 0.466765 -0.125676
Cu1   Cu    Cu3+1 0.500370 0.438230 0.438520 0.923670
Cu2   Cu    Cu3+1 0.499630 0.561770 0.561480 0.972287
Cu3   Cu    Cu3+1 0.935490 0.438190 0.997300 0.937304
Cu4   Cu    Cu3+1 0.059110 0.561720 0.997220 0.909831
Cu5   Cu    Cu3+1 0.937870 0.999900 0.437760 0.915272
Cu6   Cu    Cu3+1 0.062130 0.999920 0.562070 0.936645
H1    H     H_    0.699478 0.398549 0.599042 0.123621
H2    H     H_    0.121737 0.359167 0.122025 0.122941
H3    H     H_    0.618811 0.352680 0.624968 0.169177
H4    H     H_    0.236393 0.359218 0.234560 0.122827
H5    H     H_    0.896292 0.859399 0.636294 0.115814
H6    H     H_    0.719203 0.753909 0.365014 0.132304
H7    H     H_    0.609807 0.641283 0.368186 0.119798
H8    H     H_    0.135431 0.360328 0.889533 0.114477
H9    H     H_    0.135799 0.246008 0.778052 0.129305
H10   H     H_    0.861324 0.140991 0.607980 0.126019
H11   H     H_    0.860668 0.253351 0.721269 0.110745
H12   H     H_    0.786219 0.583914 0.900433 0.093073
H13   H     H_    0.720061 0.357318 0.739722 0.162610
H14   H     H_    0.986267 0.874226 0.233635 0.129689
H15   H     H_    0.015248 0.741595 0.380624 0.127576
H16   H     H_    0.010032 0.628126 0.263146 0.125338
H17   H     H_    0.795994 0.389759 0.703614 0.095919
H18   H     H_    0.784906 0.562877 0.660880 0.126487
H19   H     H_    0.888134 0.551622 0.756705 0.132382
H20   H     H_    0.679384 0.580965 0.796861 0.095207
H21   H     H_    0.721378 0.471246 0.862075 0.176953
H22   H     H_    0.257182 0.381609 0.704786 0.112742
H23   H     H_    0.780282 0.634599 0.748361 0.170295
H24   H     H_    0.174520 0.431657 0.767007 0.115654
H25   H     H_    0.018507 0.379062 0.671868 0.117618
H26   H     H_    0.945090 0.276716 0.513544 0.103966
H27   H     H_    0.027341 0.228008 0.449799 0.124004
H28   H     H_    0.864808 0.785912 0.715679 0.084561
H29   H     H_    0.845424 0.730330 0.045438 0.106193
H30   H     H_    0.833212 0.760895 0.924996 0.121463
H31   H     H_    0.962475 0.818330 0.908618 0.111175
H32   H     H_    0.104293 0.844240 0.012541 0.101107
H33   H     H_    0.117816 0.815004 0.133924 0.115883
H34   H     H_    0.891761 0.633177 0.843495 0.150238
H35   H     H_    0.534724 0.471313 0.741589 0.118327
H36   H     H_    0.274808 0.402247 0.561579 0.134287
H37   H     H_    0.225159 0.099946 0.442201 0.114951
H38   H     H_    0.337735 0.210695 0.440269 0.134679
H39   H     H_    0.374381 0.640708 0.376207 0.122514
H40   H     H_    0.261800 0.640663 0.261640 0.121510
O1    O     O_R   0.410130 0.357660 0.448070 -0.516395
O2    O     O_R   0.053050 0.909790 0.462730 -0.509518
O3    O     O_R   0.037720 0.090080 0.447430 -0.520049
O4    O     O_R   0.409500 0.461990 0.551910 -0.525937
O5    O     O_R   0.142660 0.090100 0.552410 -0.501114
O6    O     O_R   0.946950 0.090030 0.537090 -0.512927
O7    O     O_R   0.051890 0.090040 0.642060 -0.513351
O8    O     O_R   0.857350 0.909730 0.447410 -0.512023
O9    O     O_R   0.962280 0.909740 0.552390 -0.515089
O10   O     O_R   0.590970 0.447820 0.538740 -0.522579
O11   O     O_R   0.590340 0.552140 0.642570 -0.497011
O12   O     O_R   0.049990 0.461930 0.907530 -0.515337
O13   O     O_R   0.590500 0.538010 0.448090 -0.521752
O14   O     O_R   0.589870 0.642340 0.551930 -0.449013
O15   O     O_R   0.409660 0.447860 0.357430 -0.512953
O16   O     O_R   0.409030 0.552180 0.461260 -0.514880
O17   O     O_R   0.945590 0.357610 0.907590 -0.505497
O18   O     O_2   0.742413 0.725332 0.687839 -0.506955
O19   O     O_2   0.564887 0.377691 0.734557 -0.523517
O20   O     O_R   0.854450 0.447820 0.906640 -0.516259
O21   O     O_R   0.958850 0.552130 0.906580 -0.513305
O22   O     O_R   0.944620 0.537990 0.086990 -0.508327
O23   O     O_R   0.049020 0.642300 0.086930 -0.513058
O24   O     O_R   0.035760 0.447780 0.087940 -0.508611
O25   O     O_R   0.140150 0.552090 0.087880 -0.511787
O26   O     O_R   0.948110 0.909780 0.357760 -0.513687

loop_
_geom_bond_atom_site_label_1
_geom_bond_atom_site_label_2
_ccdc_geom_bond_type
Cu5   O6    S    
C40   H1    S    
C27   C29   A    
C11   C13   A    
C52   H27   S    
Cu3   O22   S    
C28   O15   A    
C27   H8    S    
C20   C41   S    
C7    C8    A    
C39   C41   A    
C54   C60   A    
C27   C33   A    
C40   C46   S    
C32   H11   S    
C12   C23   S    
Cu5   O3    S    
C37   C38   A    
C43   H18   S    
Cu4   O23   S    
C16   O13   A    
C36   H14   S    
C5    C6    A    
C53   H28   S    
C50   H25   S    
C5    H40   S    
Cu6   O7    S    
Cu5   O8    S    
C23   C43   S    
C40   H3    S    
C1    C2    S    
C10   C53   S    
C34   H21   S    
Cu1   O1    S    
C12   C42   S    
C47   C48   A    
C45   C56   A    
C44   C46   S    
C16   C17   S    
C23   H19   S    
C49   H24   S    
C60   H33   S    
C61   H35   S    
C61   O19   D    
C51   H26   S    
C19   O20   A    
C40   C42   S    
C15   H7    S    
C59   C60   A    
C13   C14   A    
C35   C54   S    
C20   O22   A    
C43   C46   S    
C2    C64   A    
C64   H38   S    
Cu4   O25   S    
C2    C45   A    
C19   O21   A    
C38   C39   A    
C38   H15   S    
Cu3   Cu4   S    
C31   H10   S    
Cu3   O24   S    
C34   C44   S    
C26   O9    A    
C25   O6    A    
Cu4   O12   S    
C7    H2    S    
C8    C9    A    
C4    C46   S    
C58   C59   A    
C57   H30   S    
C51   C52   A    
C22   O26   A    
C35   C36   A    
C14   H6    S    
Cu4   O21   S    
C62   C63   A    
C3    C9    A    
C53   O18   D    
Cu3   O17   S    
C18   O17   A    
C23   H34   S    
C29   H9    S    
Cu6   O9    S    
C8    H4    S    
C50   C51   A    
Cu2   O11   S    
C58   H31   S    
C6    C21   S    
C47   C52   A    
Cu6   O2    S    
C18   O12   A    
C48   C49   A    
C49   C50   A    
Cu5   O26   S    
C22   O2    A    
C55   C57   A    
C20   O23   A    
C56   C62   A    
C13   C26   S    
Cu3   O20   S    
C1    O4    A    
C63   H37   S    
C10   C17   A    
C21   O24   A    
C44   H20   S    
C45   H36   S    
C25   C30   S    
C15   C17   A    
C54   C55   A    
C36   C37   A    
C24   C62   S    
Cu2   O4    S    
C59   H32   S    
C31   C32   A    
C42   H13   S    
C26   O8    A    
Cu6   O5    S    
C3    C5    A    
C25   O7    A    
C6    C7    A    
C44   C61   S    
C28   O16   A    
C32   C33   A    
C16   O14   A    
C11   H5    S    
C1    O1    A    
C22   C37   S    
C57   C58   A    
C30   C31   A    
C3    H39   S    
C12   C19   S    
C43   H23   S    
Cu1   O10   S    
C4    O11   A    
Cu2   O14   S    
Cu1   O13   S    
Cu5   Cu6   S    
C35   C41   A    
C18   C33   S    
C10   C11   A    
C29   C30   A    
C63   C64   A    
Cu2   O16   S    
C24   O3    A    
C24   O5    A    
Cu1   Cu2   S    
C48   H22   S    
C55   H29   S    
C14   C15   A    
C4    O10   A    
C42   H17   S    
C34   H12   S    
C39   H16   S    
C12   C34   S    
C21   O25   A    
C9    C28   S    
Cu1   O15   S    
C47   C56   S    
