data_mof_unit_56279.cif
_audit_creation_date              2012-10-26T18:54:57-0400
_audit_creation_method            fapswitch 2.2
_symmetry_space_group_name_H-M    P1
_symmetry_Int_Tables_number       1
_space_group_crystal_system       triclinic
_cell_length_a                    10.954318
_cell_length_b                    9.545222
_cell_length_c                    10.785817
_cell_angle_alpha                 89.421571
_cell_angle_beta                  91.168157
_cell_angle_gamma                 89.963446
_cell_volume                      1127.48784626

loop_
_atom_site_label
_atom_site_type_symbol
_atom_type_description
_atom_site_fract_x
_atom_site_fract_y
_atom_site_fract_z
_atom_type_partial_charge
C1    C     C_R   0.262188 0.499654 0.503574 0.558964
C2    C     C_R   0.439342 0.596713 0.934202 -0.020363
C3    C     C_R   0.511352 0.504397 0.129959 0.033004
C4    C     C_R   0.511717 0.502065 0.871351 0.036130
C5    C     C_R   0.600193 0.424504 0.069755 0.067009
C6    C     C_R   0.601752 0.425211 0.938474 0.079413
C7    C     C_3   0.305092 0.622827 0.924236 -0.279029
C8    C     C_3   0.305205 0.624337 0.065121 -0.273456
C9    C     C_R   0.062610 0.370611 0.511085 0.033184
C10   C     C_R   0.936042 0.371044 0.501237 0.076998
C11   C     C_R   0.871626 0.499101 0.495893 -0.013605
C12   C     C_R   0.737734 0.499825 0.497355 0.596118
C13   C     C_R   0.128115 0.498644 0.506989 -0.038753
C14   C     C_R   0.936241 0.626842 0.491736 0.210434
C15   C     C_R   0.063467 0.626821 0.504205 0.219377
C16   C     C_3   0.884304 0.804509 0.357069 0.010930
C17   C     C_3   0.777058 0.901455 0.327476 -0.362932
C18   C     C_3   0.112868 0.810580 0.629739 0.016793
C19   C     C_3   0.220572 0.906669 0.656883 -0.362768
C20   C     C_R   0.438868 0.074526 0.408756 0.188071
C21   C     C_R   0.560686 0.072144 0.591445 0.191889
C22   C     C_R   0.439306 0.925876 0.409393 -0.003451
C23   C     C_R   0.560955 0.923465 0.590199 0.009449
C24   C     C_R   0.501349 0.500826 0.262664 0.577725
C25   C     C_R   0.503145 0.499775 0.737649 0.572900
C26   C     C_R   0.439490 0.598295 0.061396 -0.023366
Cu1   Cu    Cu3+1 0.500000 0.640660 0.500000 0.949248
Cu2   Cu    Cu3+1 0.500000 0.359340 0.500000 1.012691
H1    H     H_    0.283774 0.726726 0.881827 0.132078
H2    H     H_    0.779071 0.399331 0.896497 0.214485
H3    H     H_    0.169962 0.212010 0.450580 0.264937
H4    H     H_    0.175129 0.237600 0.609366 0.249279
H5    H     H_    0.903778 0.187745 0.413686 0.242029
H6    H     H_    0.897259 0.177654 0.570362 0.242096
H7    H     H_    0.882675 0.719355 0.286726 0.108719
H8    H     H_    0.970262 0.865291 0.348120 0.166989
H9    H     H_    0.769094 0.982091 0.400264 0.171104
H10   H     H_    0.790294 0.954245 0.236532 0.078255
H11   H     H_    0.691160 0.839992 0.322722 0.184517
H12   H     H_    0.254351 0.535291 0.106741 0.133413
H13   H     H_    0.111462 0.728933 0.704664 0.099644
H14   H     H_    0.027587 0.873476 0.633081 0.174318
H15   H     H_    0.230954 0.983663 0.580181 0.173628
H16   H     H_    0.205955 0.963619 0.744608 0.080212
H17   H     H_    0.305599 0.843980 0.666736 0.180437
H18   H     H_    0.285655 0.106784 0.305346 0.183916
H19   H     H_    0.416491 0.123541 0.228101 0.211283
H20   H     H_    0.705071 0.180168 0.655560 0.261110
H21   H     H_    0.646025 0.072120 0.761374 0.174364
H22   H     H_    0.253990 0.533141 0.883519 0.125697
H23   H     H_    0.283793 0.728947 0.103562 0.134080
H24   H     H_    0.390337 0.869891 0.337219 0.128518
H25   H     H_    0.610126 0.865034 0.661723 0.130817
H26   H     H_    0.676124 0.237850 0.119639 0.225148
H27   H     H_    0.774854 0.375173 0.119223 0.216580
H28   H     H_    0.698241 0.249191 0.905708 0.228735
N1    N     N_R   0.500000 0.852070 0.500000 -0.268997
N2    N     N_R   0.500000 0.147940 0.500000 -0.172487
N3    N     N_3   0.686737 0.343482 0.141986 -0.617842
N4    N     N_3   0.695308 0.352806 0.873874 -0.613598
N5    N     N_3   0.120429 0.236792 0.528803 -0.648935
N6    N     N_3   0.873695 0.239047 0.492659 -0.593244
N7    N     N_3   0.374178 0.147191 0.311377 -0.571577
N8    N     N_3   0.623101 0.142840 0.689956 -0.555923
O1    O     O_R   0.319640 0.618740 0.499990 -0.455491
O2    O     O_3   0.124856 0.753489 0.510000 -0.540296
O3    O     O_R   0.680360 0.618740 0.500010 -0.463837
O4    O     O_R   0.319620 0.381170 0.499990 -0.509420
O5    O     O_R   0.680380 0.381170 0.500010 -0.462885
O6    O     O_R   0.499990 0.618810 0.319660 -0.532302
O7    O     O_R   0.500010 0.618810 0.680340 -0.532077
O8    O     O_R   0.499960 0.381240 0.319650 -0.445145
O9    O     O_R   0.500040 0.381240 0.680350 -0.452138
O10   O     O_3   0.874726 0.753307 0.480042 -0.542796

loop_
_geom_bond_atom_site_label_1
_geom_bond_atom_site_label_2
_ccdc_geom_bond_type
C1    C13   S    
C2    C4    A    
C11   C12   S    
C19   H17   S    
Cu1   O1    S    
H27   N3    S    
C18   O2    S    
C8    C26   S    
C9    C10   A    
H3    N5    S    
C1    O1    A    
Cu2   O5    S    
H18   N7    S    
C12   O5    A    
C21   N2    A    
H28   N4    S    
C22   N1    A    
C13   C15   A    
C4    C25   S    
C24   O6    A    
C7    C8    S    
C2    C26   A    
H21   N8    S    
C17   H9    S    
C12   O3    A    
C16   H8    S    
Cu1   N1    S    
C8    H23   S    
C3    C24   S    
Cu2   O8    S    
Cu1   O6    S    
C20   N7    S    
C25   O7    A    
Cu2   O9    S    
C14   O10   S    
C4    C6    A    
Cu2   O4    S    
C25   O9    A    
C19   H15   S    
H4    N5    S    
C23   H25   S    
Cu2   N2    S    
C17   H10   S    
C21   C23   A    
C16   H7    S    
H19   N7    S    
C5    C6    A    
C11   C14   A    
C9    N5    S    
H20   N8    S    
Cu1   O3    S    
C10   C11   A    
C5    N3    S    
C20   N2    A    
C7    H1    S    
C16   O10   S    
C16   C17   S    
C6    N4    S    
H6    N6    S    
C1    O4    A    
Cu1   O7    S    
C19   H16   S    
C24   O8    A    
C22   H24   S    
C18   C19   S    
C17   H11   S    
C18   H13   S    
Cu1   Cu2   S    
C23   N1    A    
C9    C13   A    
C14   C15   A    
C10   N6    S    
C21   N8    S    
C8    H12   S    
C18   H14   S    
H26   N3    S    
C15   O2    S    
C3    C26   A    
C2    C7    S    
C7    H22   S    
C20   C22   A    
H5    N6    S    
C3    C5    A    
H2    N4    S    
