data_mof_unit_53861.cif
_audit_creation_date              2013-03-05T15:41:51-0500
_audit_creation_method            fapswitch 2.2
_symmetry_space_group_name_H-M    P1
_symmetry_Int_Tables_number       1
_space_group_crystal_system       triclinic
_cell_length_a                    7.788474
_cell_length_b                    8.567809
_cell_length_c                    10.510311
_cell_angle_alpha                 91.277929
_cell_angle_beta                  85.090056
_cell_angle_gamma                 93.827399
_cell_volume                      697.125456781

loop_
_atom_site_label
_atom_site_type_symbol
_atom_site_description
_atom_site_fract_x
_atom_site_fract_y
_atom_site_fract_z
_atom_type_partial_charge
O1    O     O_R   0.389250 0.738570 0.508410 -0.622740
O2    O     O_R   0.610750 0.261430 0.491590 -0.622736
O3    O     O_R   0.678390 0.711620 0.486450 -0.610661
O4    O     O_R   0.321610 0.288380 0.513550 -0.610673
C1    C     C_R   0.545845 0.794713 0.496612 0.992996
C2    C     C_R   0.454155 0.205287 0.503389 0.993033
O5    O     O_R   0.355460 0.513510 0.697030 -0.622774
O6    O     O_R   0.644540 0.486490 0.302970 -0.622763
O7    O     O_R   0.644600 0.486560 0.675070 -0.611405
O8    O     O_R   0.355400 0.513440 0.324930 -0.611440
C3    C     C_R   0.500948 0.501480 0.742262 0.962604
C4    C     C_R   0.499052 0.498524 0.257738 0.962640
Zn1   Zn    Zn3+2 0.306940 0.517990 0.514670 1.003471
Zn2   Zn    Zn3+2 0.693060 0.482010 0.485330 1.003487
N1    N     N_2   0.950320 0.457950 0.465730 -0.170692
N2    N     N_2   0.049680 0.542050 0.534270 -0.170689
C5    C     C_3   0.335676 0.505598 0.968183 -0.230778
C6    C     C_3   0.664324 0.494413 0.031819 -0.230748
C7    C     C_3   0.430909 0.631134 0.050442 -0.258240
C8    C     C_3   0.569087 0.368875 0.949560 -0.258194
H1    H     H_    0.377298 0.738447 0.094491 0.208071
H2    H     H_    0.622701 0.261561 0.905510 0.208056
H3    H     H_    0.201571 0.507700 0.940142 0.195491
H4    H     H_    0.798430 0.492310 0.059856 0.195472
C9    C     C_3   0.498981 0.498011 0.123233 -0.141379
C10   C     C_3   0.501017 0.501994 0.876768 -0.141385
C11   C     C_3   0.406519 0.375547 0.042338 0.360834
C12   C     C_3   0.593479 0.624465 0.957666 0.360823
H5    H     H_    0.013675 0.382017 0.403785 0.221623
H6    H     H_    0.986325 0.617983 0.596214 0.221655
C13   C     C_2   0.569890 0.958341 0.494851 -0.313416
C14   C     C_2   0.430110 0.041659 0.505151 -0.313402
H7    H     H_    0.701818 0.009678 0.485192 0.190857
H8    H     H_    0.298181 0.990322 0.514811 0.190855
N3    N     N_R   0.303081 0.236770 0.088144 0.211579
O9    O     O_R   0.228330 0.143850 0.007103 -0.350998
O10   O     O_R   0.288945 0.202071 0.208536 -0.414506
N4    N     N_R   0.696899 0.763256 0.911866 0.211580
O11   O     O_R   0.771418 0.856297 0.992931 -0.350999
O12   O     O_R   0.711272 0.797825 0.791444 -0.414507

loop_
_geom_bond_atom_site_label_1
_geom_bond_atom_site_label_2
_geom_bond_distance
_ccdc_geom_bond_type
C2    C14   1.402265 S    
O7    Zn2   1.997640 S    
C13   H7    1.087827 S    
C8    C11   1.533993 S    
O3    Zn2   1.977885 S    
C9    C11   1.518742 S    
C10   C12   1.518794 S    
C13   C14   1.336657 D    
C12   N4    1.458030 S    
C4    C9    1.413642 S    
O6    C4    1.276958 A    
C11   N3    1.458020 S    
N4    O12   1.300087 A    
O2    C2    1.277781 A    
O5    C3    1.276951 A    
C7    C12   1.533987 S    
O7    C3    1.283223 A    
C5    H3    1.110651 S    
C6    C9    1.540976 S    
C8    C10   1.535025 S    
O1    C1    1.277781 A    
C5    C10   1.540968 S    
O8    C4    1.283218 A    
C7    H1    1.110513 S    
C8    H2    1.110529 S    
N1    H5    1.029360 S    
C6    C8    1.554462 S    
N4    O11   1.300319 A    
O2    Zn2   1.955391 S    
C6    H4    1.110648 S    
C1    C13   1.402265 S    
O1    Zn1   1.955391 S    
C7    C9    1.535054 S    
N2    H6    1.029359 S    
N1    N2    1.278607 D    
C5    C11   1.532277 S    
O5    Zn1   1.986724 S    
C6    C12   1.532273 S    
O4    C2    1.288324 A    
Zn1   N2    2.020442 S    
O4    Zn1   1.977885 S    
Zn2   N1    2.020442 S    
C5    C7    1.554436 S    
O6    Zn2   1.986722 S    
C3    C10   1.413657 S    
N3    O10   1.300079 A    
N3    O9    1.300388 A    
O3    C1    1.288324 A    
O8    Zn1   1.997640 S    
C14   H8    1.087827 S    
