data_mof_unit_67654.cif
_audit_creation_date              2012-10-26T20:16:41-0400
_audit_creation_method            fapswitch 2.2
_symmetry_space_group_name_H-M    P1
_symmetry_Int_Tables_number       1
_space_group_crystal_system       triclinic
_cell_length_a                    11.098764
_cell_length_b                    11.081072
_cell_length_c                    10.211024
_cell_angle_alpha                 98.547753
_cell_angle_beta                  99.6944
_cell_angle_gamma                 92.427255
_cell_volume                      1221.20395261

loop_
_atom_site_label
_atom_site_type_symbol
_atom_type_description
_atom_site_fract_x
_atom_site_fract_y
_atom_site_fract_z
_atom_type_partial_charge
Br1   Br    Br    0.789549 0.074935 0.343493 -0.499767
Br2   Br    Br    0.217252 0.980077 0.669437 -0.460911
Br3   Br    Br    0.803689 0.120746 0.023323 -0.658790
Br4   Br    Br    0.191764 0.925504 0.979802 -0.638694
Br5   Br    Br    0.370623 0.365179 0.826885 -0.425947
Br6   Br    Br    0.617249 0.643867 0.168564 -0.437737
Br7   Br    Br    0.904399 0.655876 0.341216 -0.406523
Br8   Br    Br    0.190790 0.670931 0.746005 -0.369060
C1    C     C_R   0.501362 0.263261 0.499628 0.540404
C2    C     C_R   0.569404 0.888614 0.833226 -0.091692
C3    C     C_R   0.530343 0.087106 0.254742 0.027827
C4    C     C_R   0.469094 0.920289 0.745440 0.031798
C5    C     C_R   0.646558 0.098945 0.219131 0.246922
C6    C     C_R   0.354718 0.931007 0.786525 0.264579
C7    C     C_R   0.656701 0.133766 0.094620 0.193667
C8    C     C_R   0.341295 0.903659 0.913251 0.229764
C9    C     C_R   0.553973 0.167178 0.012964 -0.121533
C10   C     C_R   0.439815 0.863461 0.995569 -0.115913
C11   C     C_R   0.515825 0.920083 0.386397 -0.122471
C12   C     C_R   0.499248 0.737303 0.500363 0.548238
C13   C     C_R   0.490323 0.082399 0.613883 -0.114152
C14   C     C_R   0.500709 0.872659 0.502541 -0.003275
C15   C     C_R   0.502597 0.128996 0.497437 0.007292
C16   C     C_R   0.262436 0.498715 0.499452 0.565518
C17   C     C_R   0.737237 0.501131 0.501579 0.569560
C18   C     C_R   0.488486 0.956911 0.618053 -0.007601
C19   C     C_R   0.515077 0.045899 0.381766 -0.005295
C20   C     C_2   0.507625 0.510177 0.077603 0.235757
C21   C     C_2   0.490600 0.490137 0.921145 0.261358
C22   C     C_R   0.132412 0.435590 0.050412 0.281682
C23   C     C_R   0.872587 0.503475 0.506456 -0.009674
C24   C     C_R   0.868192 0.609090 0.963180 0.296225
C25   C     C_R   0.096986 0.482327 0.172625 -0.122724
C26   C     C_R   0.898937 0.549264 0.843289 -0.126311
C27   C     C_R   0.066276 0.404702 0.258355 0.031458
C28   C     C_R   0.920549 0.615065 0.743109 0.059474
C29   C     C_R   0.069034 0.278278 0.223821 0.272822
C30   C     C_R   0.910654 0.742020 0.758634 0.296292
C31   C     C_R   0.090062 0.230577 0.095381 -0.131190
C32   C     C_R   0.891009 0.803138 0.882198 -0.133069
C33   C     C_R   0.115583 0.308804 0.005378 0.262910
C34   C     C_R   0.127304 0.500736 0.500949 -0.009230
C35   C     C_R   0.874168 0.738051 0.986178 0.276521
C36   C     C_R   0.917390 0.496059 0.387265 0.191776
C37   C     C_R   0.085186 0.556659 0.616393 0.232233
C38   C     C_3   0.024754 0.194456 0.804051 -0.040736
C39   C     C_3   0.967252 0.869611 0.172200 0.003736
C40   C     C_3   0.240934 0.619122 0.046982 -0.072875
C41   C     C_3   0.796037 0.424897 0.020145 -0.077330
C42   C     C_3   0.140799 0.143357 0.360581 -0.092163
C43   C     C_3   0.837225 0.870512 0.613357 -0.056245
C44   C     C_R   0.959158 0.550017 0.623357 0.013128
C45   C     C_R   0.036169 0.458335 0.386921 0.003928
C46   C     C_R   0.439336 0.158354 0.050288 -0.141624
C47   C     C_R   0.554296 0.859161 0.957220 -0.133123
C48   C     C_R   0.427125 0.116899 0.169646 -0.095270
Cu1   Cu    Cu3+1 0.521120 0.521140 0.639640 1.031686
Cu2   Cu    Cu3+1 0.478880 0.478860 0.360360 1.011105
H1    H     H_    0.530282 0.859100 0.298985 0.174712
H2    H     H_    0.428134 0.841020 0.091880 0.132448
H3    H     H_    0.358491 0.178240 0.984348 0.207814
H4    H     H_    0.632498 0.837354 0.025165 0.218351
H5    H     H_    0.337615 0.109623 0.196924 0.138102
H6    H     H_    0.659019 0.886972 0.805261 0.126943
H7    H     H_    0.029044 0.183373 0.695195 0.192334
H8    H     H_    0.939835 0.240892 0.817751 0.099708
H9    H     H_    0.019417 0.101580 0.832015 0.193986
H10   H     H_    0.961939 0.901003 0.279011 0.219749
H11   H     H_    0.979479 0.952273 0.125572 0.183837
H12   H     H_    0.477830 0.144002 0.702092 0.169348
H13   H     H_    0.048853 0.814712 0.172431 0.120869
H14   H     H_    0.289149 0.608444 0.148771 0.128022
H15   H     H_    0.175212 0.690867 0.055511 0.163210
H16   H     H_    0.313123 0.649760 0.994964 0.196742
H17   H     H_    0.873303 0.367286 0.007801 0.139907
H18   H     H_    0.727795 0.412321 0.925455 0.118902
H19   H     H_    0.750667 0.393260 0.098938 0.207152
H20   H     H_    0.221779 0.209028 0.402152 0.125818
H21   H     H_    0.162627 0.070791 0.282589 0.111089
H22   H     H_    0.118596 0.098058 0.443890 0.206738
H23   H     H_    0.617806 0.619385 0.900957 0.222595
H24   H     H_    0.750708 0.810947 0.588624 0.118799
H25   H     H_    0.852759 0.901713 0.519299 0.226107
H26   H     H_    0.828697 0.953112 0.686584 0.108067
H27   H     H_    0.380113 0.382809 0.099212 0.228492
H28   H     H_    0.096980 0.579833 0.204273 0.158638
H29   H     H_    0.906976 0.451646 0.826143 0.120279
H30   H     H_    0.082759 0.133144 0.064816 0.186985
H31   H     H_    0.892532 0.901617 0.898710 0.174111
H32   H     H_    0.563043 0.196133 0.918688 0.149784
N1    N     N_2   0.447120 0.447110 0.150550 -0.354596
N2    N     N_2   0.552880 0.552890 0.849450 -0.347631
O1    O     O_R   0.517830 0.337490 0.617920 -0.479085
O2    O     O_3   0.857876 0.799740 0.109207 -0.480454
O3    O     O_3   0.179206 0.510123 0.970396 -0.495677
O4    O     O_3   0.840006 0.547890 0.064422 -0.492741
O5    O     O_3   0.037205 0.202451 0.310057 -0.511184
O6    O     O_3   0.938375 0.806193 0.659889 -0.482513
O7    O     O_R   0.482170 0.662510 0.382080 -0.475415
O8    O     O_R   0.482150 0.301790 0.382070 -0.513808
O9    O     O_R   0.517850 0.698210 0.617930 -0.504238
O10   O     O_R   0.337480 0.517860 0.617920 -0.399211
O11   O     O_R   0.662520 0.482140 0.382080 -0.424424
O12   O     O_R   0.301810 0.482160 0.382070 -0.542358
O13   O     O_R   0.698190 0.517840 0.617930 -0.541693
O14   O     O_3   0.131723 0.263146 0.876224 -0.491348

loop_
_geom_bond_atom_site_label_1
_geom_bond_atom_site_label_2
_ccdc_geom_bond_type
C17   C23   S    
Cu1   O13   S    
C13   C18   A    
Cu1   N2    S    
C1    O1    A    
C27   C45   S    
C16   C34   S    
C23   C44   A    
C30   O6    S    
C42   H21   S    
C29   O5    S    
H27   N1    S    
C17   O13   A    
C31   C33   A    
Cu1   O10   S    
C20   C21   S    
C27   C29   A    
C38   H8    S    
C34   C45   A    
C47   H4    S    
C35   O2    S    
Br8   C37   S    
C39   H11   S    
C1    C15   S    
H23   N2    S    
C36   C45   A    
C39   O2    S    
C32   C35   A    
Br6   C20   S    
C41   H17   S    
C22   C33   A    
C15   C19   A    
C32   H31   S    
C11   C19   A    
Cu2   N1    S    
C16   O10   A    
C28   C44   S    
C43   O6    S    
Cu1   O1    S    
C31   H30   S    
C40   H14   S    
C42   H20   S    
Br5   C21   S    
C46   C48   A    
C48   H5    S    
C33   O14   S    
Cu2   O7    S    
C40   H16   S    
C11   C14   A    
Cu2   O8    S    
C38   H7    S    
C23   C36   A    
C40   O3    S    
C17   O11   A    
C12   O9    A    
C37   C44   A    
C11   H1    S    
C4    C18   S    
C16   O12   A    
C34   C37   A    
C24   C26   A    
Br4   C8    S    
C25   H28   S    
C22   O3    S    
C3    C19   S    
C41   H18   S    
Br7   C36   S    
C2    C47   A    
C43   H24   S    
C39   H13   S    
C2    C4    A    
C10   C47   A    
C10   H2    S    
C24   O4    S    
C4    C6    A    
C1    O8    A    
C5    C7    A    
C6    C8    A    
Cu2   O12   S    
C43   H25   S    
C39   H10   S    
Br3   C7    S    
C7    C9    A    
C42   O5    S    
C22   C25   A    
C40   H15   S    
C2    H6    S    
C9    H32   S    
C12   C14   S    
C42   H22   S    
C46   H3    S    
C43   H26   S    
Cu1   O9    S    
C13   H12   S    
C13   C15   A    
C38   H9    S    
C29   C31   A    
C30   C32   A    
C3    C5    A    
Cu1   Cu2   S    
C12   O7    A    
C38   O14   S    
C28   C30   A    
C25   C27   A    
C24   C35   A    
C41   H19   S    
C20   N1    D    
C26   C28   A    
C26   H29   S    
C41   O4    S    
Br2   C6    S    
Br1   C5    S    
C8    C10   A    
C14   C18   A    
Cu2   O11   S    
C9    C46   A    
C21   N2    D    
C3    C48   A    
