data_mof_unit_5876.cif
_audit_creation_date              2012-12-10T19:03:04-0500
_audit_creation_method            fapswitch 2.2
_symmetry_space_group_name_H-M    P1
_symmetry_Int_Tables_number       1
_space_group_crystal_system       triclinic
_cell_length_a                    10.855901
_cell_length_b                    10.937222
_cell_length_c                    9.583417
_cell_angle_alpha                 89.08251
_cell_angle_beta                  89.478402
_cell_angle_gamma                 91.47522
_cell_volume                      1137.29715423

loop_
_atom_site_label
_atom_site_type_symbol
_atom_type_description
_atom_site_fract_x
_atom_site_fract_y
_atom_site_fract_z
_atom_type_partial_charge
C1    C     C_R   0.503226 0.262389 0.499858 0.833908
C2    C     C_3   0.876678 0.495348 0.496847 -0.035545
C3    C     C_3   0.928671 0.616421 0.426538 -0.042022
C4    C     C_3   0.926615 0.382267 0.416789 0.090338
C5    C     C_R   0.516683 0.059454 0.617999 -0.036744
C6    C     C_R   0.513341 0.129050 0.495479 -0.131756
C7    C     C_R   0.523223 0.066315 0.367001 0.133167
C8    C     C_R   0.502787 0.938341 0.366538 0.370013
C9    C     C_R   0.505425 0.870495 0.494547 -0.139452
C10   C     C_R   0.525056 0.934280 0.618211 -0.080136
C11   C     C_3   0.467638 0.923510 0.761822 0.322582
C12   C     C_R   0.259647 0.499594 0.499970 0.860800
C13   C     C_3   0.443614 0.060247 0.750444 -0.081967
C14   C     C_R   0.564523 0.588600 0.071348 0.249240
C15   C     C_R   0.426498 0.421049 0.075983 0.412661
C16   C     C_R   0.423556 0.424448 0.927488 0.173451
C17   C     C_R   0.565746 0.587171 0.924212 0.188629
C18   C     C_3   0.701042 0.611132 0.916074 -0.530947
C19   C     C_3   0.700331 0.614286 0.074269 0.175457
C20   C     C_R   0.498473 0.737353 0.498606 0.894020
C21   C     C_R   0.739366 0.495368 0.499378 0.873934
C22   C     C_3   0.067090 0.469737 0.647835 -0.057740
C23   C     C_3   0.926316 0.485534 0.648606 -0.509846
C24   C     C_3   0.072150 0.630315 0.449568 0.350802
C25   C     C_3   0.069225 0.398463 0.395974 -0.062386
C26   C     C_3   0.120864 0.500045 0.497431 -0.002618
Cu1   Cu    Cu3+1 0.499990 0.499980 0.640670 1.012514
Cu2   Cu    Cu3+1 0.500010 0.500020 0.359330 1.082956
H1    H     H_    0.107056 0.535282 0.723792 0.247938
H2    H     H_    0.911764 0.607436 0.312915 0.203733
H3    H     H_    0.537970 0.902132 0.841712 0.116191
H4    H     H_    0.486071 0.116072 0.834016 0.137417
H5    H     H_    0.750836 0.531423 0.876131 0.186939
H6    H     H_    0.724660 0.700141 0.863536 0.234265
H7    H     H_    0.753094 0.539860 0.122732 0.180060
H8    H     H_    0.879693 0.407600 0.705751 0.190187
H9    H     H_    0.904802 0.569138 0.707257 0.216095
H10   H     H_    0.112162 0.310125 0.423967 0.173877
H11   H     H_    0.908066 0.299904 0.483813 0.136618
N1    N     N_R   0.500800 0.500930 0.147930 -0.250918
N2    N     N_R   0.500800 0.500890 0.852020 -0.196725
O1    O     O_R   0.500000 0.319640 0.618810 -0.588579
O2    O     O_R   0.500010 0.319680 0.381230 -0.505474
O3    O     O_R   0.317690 0.499960 0.618790 -0.532219
O4    O     O_R   0.317700 0.500000 0.381210 -0.530235
O5    O     O_R   0.499990 0.680320 0.618770 -0.554398
O6    O     O_R   0.500000 0.680360 0.381190 -0.528933
O7    O     O_R   0.682300 0.500000 0.618790 -0.617501
O8    O     O_R   0.682310 0.500040 0.381210 -0.542847
Cl1   Cl    Cl    0.848173 0.341083 0.258681 -0.713927
N3    N     N_3   0.131451 0.673623 0.318511 -0.553757
H12   H     H_    0.222263 0.702250 0.337660 0.282560
H13   H     H_    0.087199 0.751830 0.282792 0.261995
N4    N     N_3   0.551468 0.132532 0.238841 -0.468167
H14   H     H_    0.638604 0.173584 0.250618 0.261925
H15   H     H_    0.561655 0.074987 0.154092 0.269597
Cl2   Cl    Cl    0.452340 0.871604 0.208412 -0.547860
Cl3   Cl    Cl    0.332987 0.826479 0.781322 -0.458323
N5    N     N_3   0.313657 0.083735 0.722432 -0.471478
H16   H     H_    0.265240 0.080519 0.817264 0.269800
H17   H     H_    0.305663 0.171322 0.679121 0.244949
Cl4   Cl    Cl    0.336692 0.307767 0.163899 -0.604293
N6    N     N_3   0.098640 0.346709 0.698113 -0.599329
H18   H     H_    0.066885 0.336792 0.801167 0.235756
H19   H     H_    0.051403 0.278529 0.644047 0.226433
N7    N     N_3   0.336686 0.349844 0.856487 -0.501649
H20   H     H_    0.250518 0.375178 0.893168 0.239634
H21   H     H_    0.349186 0.260624 0.891192 0.219570
Cl5   Cl    Cl    0.737447 0.762419 0.139418 -0.572735
Cl6   Cl    Cl    0.108289 0.743799 0.579119 -0.596340
N8    N     N_3   0.859575 0.724004 0.469069 -0.552783
H22   H     H_    0.862357 0.735470 0.576929 0.258601
H23   H     H_    0.897909 0.802441 0.420242 0.286223
N9    N     N_3   0.103496 0.425096 0.249535 -0.470728
H24   H     H_    0.045800 0.488873 0.204013 0.268164
H25   H     H_    0.091372 0.344968 0.192623 0.297357

loop_
_geom_bond_atom_site_label_1
_geom_bond_atom_site_label_2
_ccdc_geom_bond_type
Cu1   O7    S    
N7    H21   S    
N6    H19   S    
Cu2   O6    S    
C22   H1    S    
C13   H4    S    
C2    C4    S    
C21   O8    A    
C4    C25   S    
C24   Cl6   S    
C7    C8    A    
N9    H25   S    
C24   C26   S    
C18   C19   S    
C5    C6    A    
C8    Cl2   S    
Cu2   N1    S    
C15   C16   A    
C25   N9    S    
C22   N6    S    
Cu1   O3    S    
C1    O2    A    
C8    C9    A    
C11   Cl3   S    
C9    C10   A    
C5    C13   S    
C21   O7    A    
C24   N3    S    
N7    H20   S    
C11   H3    S    
N5    H16   S    
C14   C17   A    
C3    C24   S    
N4    H15   S    
Cu2   O4    S    
N5    H17   S    
N9    H24   S    
C1    C6    S    
N8    H23   S    
C25   C26   S    
C23   H9    S    
N3    H12   S    
C12   C26   S    
N3    H13   S    
C3    H2    S    
C3    N8    S    
C25   H10   S    
Cu2   O8    S    
Cu1   N2    S    
C9    C20   S    
C4    H11   S    
C2    C21   S    
C17   C18   S    
C18   H6    S    
Cu1   O5    S    
C19   Cl5   S    
C16   N7    S    
Cu1   Cu2   S    
N4    H14   S    
C14   C19   S    
C12   O4    A    
C6    C7    A    
C13   N5    S    
Cu2   O2    S    
C2    C3    S    
N8    H22   S    
C12   O3    A    
C19   H7    S    
C11   C13   S    
Cu1   O1    S    
C15   Cl4   S    
C18   H5    S    
C17   N2    A    
C15   N1    A    
C20   O6    A    
C10   C11   S    
C14   N1    A    
N6    H18   S    
C1    O1    A    
C5    C10   A    
C23   H8    S    
C22   C26   S    
C4    Cl1   S    
C2    C23   S    
C22   C23   S    
C7    N4    S    
C16   N2    A    
C20   O5    A    
