data_mof_unit_28594.cif
_audit_creation_date              2012-12-11T16:43:09-0500
_audit_creation_method            fapswitch 2.2
_symmetry_space_group_name_H-M    P1
_symmetry_Int_Tables_number       1
_space_group_crystal_system       triclinic
_cell_length_a                    6.922764
_cell_length_b                    23.243444
_cell_length_c                    25.826553
_cell_angle_alpha                 104.616997
_cell_angle_beta                  90.244329
_cell_angle_gamma                 90.7513
_cell_volume                      4020.75014238

loop_
_atom_site_label
_atom_site_type_symbol
_atom_type_description
_atom_site_fract_x
_atom_site_fract_y
_atom_site_fract_z
_atom_type_partial_charge
O1    O     O_R   0.505750 0.453350 0.547660 -0.516080
O2    O     O_R   0.170990 0.432220 0.437590 -0.520407
O3    O     O_R   0.005600 0.546650 0.452340 -0.545469
C1    C     C_R   0.339048 0.415514 0.417517 0.743386
O4    O     O_R   0.175720 0.446240 0.546340 -0.517182
O5    O     O_R   0.010370 0.560770 0.561860 -0.543740
C2    C     C_R   0.344162 0.434236 0.563102 0.790828
O6    O     O_R   0.500990 0.439230 0.438140 -0.551607
O7    O     O_3   0.340820 0.537560 0.504970 -0.383422
V1    V     V_3+5 0.064050 0.493030 0.499080 1.540889
O8    O     O_R   0.680940 0.567780 0.562410 -0.544599
C3    C     C_R   0.851022 0.584488 0.582503 0.726699
O9    O     O_R   0.676210 0.553760 0.453660 -0.527797
C4    C     C_R   0.845425 0.565956 0.437533 0.750318
V2    V     V_3+5 0.564640 0.506970 0.500920 1.514846
O10   O     O_3   0.837740 0.462440 0.495030 -0.351860
C5    C     C_R   0.805898 0.847610 0.092759 -0.072974
C6    C     C_R   0.797064 0.812094 0.130161 0.387176
C7    C     C_R   0.928748 0.823341 0.174197 -0.049772
C8    C     C_R   0.073512 0.866955 0.177916 -0.140499
H1    H     H_    0.176542 0.875633 0.210750 0.165089
C9    C     C_R   0.085574 0.900650 0.140342 -0.092046
H2    H     H_    0.197669 0.934608 0.145154 0.139818
C10   C     C_R   0.951279 0.892588 0.098229 -0.175452
C11   C     C_R   0.079309 0.756159 0.223907 -0.059565
H3    H     H_    0.206860 0.755937 0.199656 0.169516
C12   C     C_R   0.080433 0.723711 0.262844 0.379376
C13   C     C_R   0.911314 0.720938 0.293246 -0.054316
C14   C     C_R   0.752521 0.755680 0.286489 -0.138722
H4    H     H_    0.623443 0.754475 0.309758 0.184678
C15   C     C_R   0.756426 0.791502 0.249841 0.001718
C16   C     C_R   0.919584 0.789917 0.216601 -0.107217
C17   C     C_R   0.803004 0.701024 0.380615 -0.209928
H5    H     H_    0.749970 0.746029 0.392669 0.116283
C18   C     C_R   0.782129 0.663422 0.415629 0.346143
C19   C     C_R   0.857531 0.605634 0.400974 -0.067087
C20   C     C_R   0.948390 0.585854 0.351346 -0.237560
H6    H     H_    0.005594 0.541319 0.339414 0.150372
C21   C     C_R   0.962705 0.622668 0.316176 -0.126285
H7    H     H_    0.028061 0.605292 0.277464 0.157932
C22   C     C_R   0.894025 0.681214 0.330710 0.056254
C23   C     C_R   0.714885 0.644667 0.668638 -0.181865
C24   C     C_R   0.864839 0.634416 0.631409 -0.045883
C25   C     C_R   0.029335 0.671353 0.640994 -0.188620
C26   C     C_R   0.043887 0.720292 0.686245 -0.023902
C27   C     C_R   0.894971 0.728590 0.724973 0.119322
C28   C     C_R   0.729689 0.689946 0.716711 0.077928
C29   C     C_R   0.204254 0.760609 0.693864 -0.078932
C30   C     C_R   0.219214 0.807102 0.741211 0.358808
C31   C     C_R   0.076247 0.813343 0.781307 -0.010243
C32   C     C_R   0.911541 0.775295 0.772131 0.051887
C33   C     C_R   0.762986 0.783977 0.810471 0.103917
C34   C     C_R   0.601063 0.746184 0.802078 -0.113375
C35   C     C_R   0.582980 0.698515 0.756353 -0.032001
C36   C     C_R   0.094074 0.856947 0.830504 -0.199711
C37   C     C_R   0.944297 0.866455 0.868031 -0.072318
C38   C     C_R   0.778275 0.830142 0.857356 -0.179527
H8    H     H_    0.588579 0.616222 0.659430 0.093596
H9    H     H_    0.144888 0.661314 0.612316 0.105281
H10   H     H_    0.222829 0.884564 0.839938 0.129952
H11   H     H_    0.662337 0.836961 0.886296 0.122455
H12   H     H_    0.489451 0.753287 0.832287 0.162347
C39   C     C_R   0.298998 0.167154 0.143070 -0.226748
C40   C     C_R   0.460546 0.130555 0.135123 -0.095783
C41   C     C_R   0.602503 0.138392 0.176535 -0.043850
C42   C     C_R   0.575716 0.182115 0.226619 -0.080320
C43   C     C_R   0.412904 0.220193 0.231866 0.104113
C44   C     C_R   0.275589 0.211808 0.190051 0.057499
C45   C     C_R   0.701501 0.188901 0.272114 -0.075691
C46   C     C_R   0.672126 0.234757 0.318813 0.354195
C47   C     C_R   0.519931 0.275295 0.321396 -0.000812
C48   C     C_R   0.385791 0.266937 0.278792 -0.010128
C49   C     C_R   0.224563 0.305565 0.282969 -0.039212
C50   C     C_R   0.079837 0.291751 0.242195 0.352299
C51   C     C_R   0.110962 0.246976 0.195912 -0.178136
C52   C     C_R   0.500094 0.324033 0.366089 -0.264902
C53   C     C_R   0.348669 0.364063 0.369817 -0.082728
C54   C     C_R   0.214674 0.356551 0.327503 0.301179
H13   H     H_    0.190410 0.161373 0.111683 0.122855
H14   H     H_    0.605327 0.332414 0.398321 0.161159
H15   H     H_    0.000796 0.238322 0.164802 0.135358
C55   C     C_R   0.288489 0.108169 0.870249 -0.168195
H16   H     H_    0.160941 0.082414 0.874714 0.122225
C56   C     C_R   0.282028 0.144234 0.834421 -0.181100
H17   H     H_    0.149749 0.145676 0.812287 0.140269
C57   C     C_R   0.442840 0.178849 0.827469 0.054989
C58   C     C_R   0.615967 0.175562 0.856282 0.017819
C59   C     C_R   0.620546 0.138703 0.891970 -0.251953
H18   H     H_    0.752522 0.136376 0.914049 0.116599
C60   C     C_R   0.457683 0.104953 0.899504 -0.036858
C61   C     C_R   0.417194 0.281894 0.810368 0.333479
C62   C     C_R   0.408904 0.317965 0.773592 -0.026979
C63   C     C_R   0.395146 0.290783 0.717778 0.023744
C64   C     C_R   0.397355 0.228663 0.699837 -0.181144
H19   H     H_    0.386941 0.207384 0.657438 0.138461
C65   C     C_R   0.411269 0.193283 0.735911 -0.148899
H20   H     H_    0.414224 0.145393 0.720681 0.136789
C66   C     C_R   0.422556 0.218928 0.791061 0.060746
C67   C     C_R   0.525168 0.327308 0.642372 -0.228866
H21   H     H_    0.653393 0.301917 0.645094 0.156776
C68   C     C_R   0.516706 0.361460 0.604556 0.296305
C69   C     C_R   0.351927 0.395966 0.601869 -0.183123
C70   C     C_R   0.194829 0.394445 0.636678 0.286000
C71   C     C_R   0.202264 0.358164 0.673427 0.307089
C72   C     C_R   0.371941 0.325767 0.677138 -0.010124
O11   O     O_R   0.308350 0.060850 0.061810 -0.543386
O12   O     O_R   0.633860 0.053770 0.953650 -0.545545
O13   O     O_R   0.798960 0.939210 0.938150 -0.545416
C73   C     C_R   0.465440 0.065980 0.937175 0.683933
O14   O     O_R   0.638360 0.067800 0.062400 -0.525915
O15   O     O_R   0.803500 0.953330 0.047670 -0.528533
C74   C     C_R   0.470745 0.083237 0.083636 0.751391
O16   O     O_R   0.303810 0.046730 0.952290 -0.545996
O17   O     O_3   0.468430 0.962490 0.995010 -0.368011
V3    V     V_3+5 0.745300 0.006960 0.000930 1.453831
O18   O     O_R   0.132880 0.946160 0.046390 -0.531560
C75   C     C_R   0.963203 0.932832 0.061670 0.745922
O19   O     O_R   0.128380 0.932130 0.937650 -0.543011
C76   C     C_R   0.958290 0.915471 0.917547 0.686663
V4    V     V_3+5 0.244670 0.992930 0.999140 1.450805
O20   O     O_3   0.971670 0.037510 0.005000 -0.373699
C77   C     C_2   0.670511 0.835197 0.046135 0.504053
H22   H     H_    0.711652 0.846188 0.009257 -0.003426
O21   O     O_2   0.510790 0.813076 0.048386 -0.491065
O22   O     O_3   0.693820 0.682689 0.464703 -0.650178
H23   H     H_    0.649324 0.723970 0.468834 0.292035
C78   C     C_2   0.350302 0.757423 0.650837 0.450285
H24   H     H_    0.311636 0.739473 0.609142 0.027592
O23   O     O_2   0.515704 0.775673 0.661255 -0.493102
O24   O     O_3   0.372416 0.846895 0.746401 -0.610595
H25   H     H_    0.323628 0.887427 0.761805 0.282039
O25   O     O_3   0.661930 0.766168 0.121624 -0.611054
H26   H     H_    0.692828 0.738690 0.144024 0.300548
C79   C     C_2   0.412137 0.657801 0.752518 0.384888
H27   H     H_    0.406892 0.614468 0.724585 0.058523
O26   O     O_2   0.273585 0.671950 0.781895 -0.521942
C80   C     C_2   0.779002 0.102078 0.166093 0.324552
H28   H     H_    0.919842 0.123677 0.169507 0.059022
O27   O     O_2   0.768192 0.047881 0.155703 -0.531914
C81   C     C_2   0.851973 0.145071 0.275590 0.446958
H29   H     H_    0.817234 0.097894 0.264781 0.063492
O28   O     O_2   0.015452 0.161401 0.290989 -0.501081
O29   O     O_3   0.793210 0.237903 0.362178 -0.615080
H30   H     H_    0.712794 0.244754 0.394743 0.290659
O30   O     O_3   0.089223 0.402517 0.328711 -0.657485
H31   H     H_    0.079297 0.407911 0.291942 0.303435
O31   O     O_3   0.902115 0.318551 0.246623 -0.646652
H32   H     H_    0.863573 0.327587 0.284646 0.322380
C82   C     C_2   0.795717 0.209001 0.850563 0.364675
H33   H     H_    0.912763 0.211895 0.879261 0.046545
O32   O     O_2   0.818562 0.232290 0.813593 -0.522490
O33   O     O_3   0.423398 0.309779 0.864490 -0.652102
H34   H     H_    0.404345 0.280336 0.885805 0.296814
C83   C     C_2   0.416411 0.383813 0.795012 0.478688
H35   H     H_    0.384167 0.403567 0.836737 0.105701
O34   O     O_2   0.464147 0.416835 0.767156 -0.515047
O35   O     O_3   0.667342 0.361119 0.569520 -0.621203
H36   H     H_    0.770299 0.334712 0.576514 0.301565
O36   O     O_3   0.037021 0.429776 0.634452 -0.625440
H37   H     H_    0.939714 0.425672 0.661278 0.350747
O37   O     O_3   0.042638 0.356027 0.705044 -0.642695
H38   H     H_    0.054455 0.323119 0.722717 0.306444
O38   O     O_3   0.250757 0.696636 0.270373 -0.642434
H39   H     H_    0.254652 0.692071 0.307445 0.293796
C84   C     C_2   0.591351 0.831117 0.247630 0.396873
H40   H     H_    0.592181 0.859763 0.220398 0.064273
O39   O     O_2   0.452816 0.833143 0.277115 -0.534327

loop_
_geom_bond_atom_site_label_1
_geom_bond_atom_site_label_2
_ccdc_geom_bond_type
C36   C37   A    
C84   H40   S    
V3    O20   S    
C69   C70   A    
C49   C50   A    
C6    O25   S    
C7    C8    A    
O31   H32   S    
C1    O6    A    
C23   H8    S    
O17   V3    S    
C21   C22   A    
C39   H13   S    
C53   C54   A    
O18   C75   A    
C44   C51   A    
C80   O27   D    
C46   O29   S    
C68   C69   A    
O13   V3    S    
C19   C20   A    
C56   C57   A    
C43   C48   A    
C3    C24   S    
C82   O32   D    
C4    C19   S    
C47   C52   A    
O18   V4    S    
C40   C74   S    
C42   C45   A    
C25   H9    S    
O29   H30   S    
C35   C79   S    
C13   C22   S    
C37   C38   A    
C6    C7    A    
C18   O22   S    
O19   C76   A    
C54   O30   S    
C63   C72   S    
C27   C28   A    
O8    V2    S    
C56   H17   S    
O35   H36   S    
C15   C84   S    
O25   H26   S    
C2    C69   S    
C65   C66   A    
C49   C54   A    
C46   C47   A    
O1    V2    S    
C14   H4    S    
O7    V1    S    
C83   O34   D    
C73   O16   A    
C41   C80   S    
C11   C16   A    
C42   C43   A    
C68   O35   S    
C84   O39   D    
C36   H10   S    
O12   C73   A    
O13   C76   A    
C64   H19   S    
C7    C16   S    
C71   C72   A    
O11   C74   A    
O37   H38   S    
O19   V4    S    
C9    H2    S    
C67   C72   A    
C5    C10   A    
C50   C51   A    
C32   C33   A    
C50   O31   S    
C81   H29   S    
C71   O37   S    
O4    C2    A    
C57   C58   A    
C51   H15   S    
C79   O26   D    
C31   C32   A    
C11   H3    S    
C34   C35   A    
C27   C32   A    
C43   C44   A    
C18   C19   A    
O2    C1    A    
C24   C25   A    
C78   O23   D    
C20   H6    S    
O16   V4    S    
C34   H12   S    
O36   H37   S    
C65   H20   S    
C8    H1    S    
C5    C6    A    
C10   C75   S    
C63   C64   A    
C52   C53   A    
C64   C65   A    
O12   V3    S    
C83   H35   S    
O3    C4    A    
C28   C35   A    
C29   C30   A    
C67   C68   A    
C8    C9    A    
C30   C31   A    
O6    V2    S    
C55   C56   A    
O9    V2    S    
O22   H23   S    
C37   C76   S    
C9    C10   A    
C23   C24   A    
C77   O21   D    
C78   H24   S    
O2    V1    S    
O30   H31   S    
C61   C62   A    
C33   C34   A    
C30   O24   S    
C26   C29   A    
C39   C44   A    
C13   C14   A    
O11   V4    S    
O1    C2    A    
C15   C16   A    
C25   C26   A    
C52   H14   S    
C59   C60   A    
C48   C49   A    
O5    V1    S    
O15   V3    S    
O8    C3    A    
C38   H11   S    
C79   H27   S    
C81   O28   D    
C11   C12   A    
C80   H28   S    
C31   C36   A    
C55   C60   A    
C67   H21   S    
O15   C75   A    
C12   O38   S    
C40   C41   A    
O24   H25   S    
O7    V2    S    
C17   C22   A    
C1    C53   S    
C20   C21   A    
O3    V1    S    
V1    O10   S    
C82   H33   S    
C29   C78   S    
O5    C3    A    
C70   O36   S    
C61   O33   S    
C45   C81   S    
C62   C63   A    
C17   C18   A    
C17   H5    S    
C23   C28   A    
C41   C42   A    
C61   C66   A    
C45   C46   A    
C57   C66   S    
O14   C74   A    
O38   H39   S    
C33   C38   A    
C39   C40   A    
C21   H7    S    
C26   C27   A    
C5    C77   S    
O4    V1    S    
C47   C48   A    
C59   H18   S    
C58   C59   A    
C14   C15   A    
C55   H16   S    
C58   C82   S    
C70   C71   A    
V4    O20   S    
C62   C83   S    
O33   H34   S    
C60   C73   S    
C77   H22   S    
O9    C4    A    
O14   V3    S    
O17   V4    S    
V2    O10   S    
C12   C13   A    
