data_mof_unit_42840.cif
_audit_creation_date              2012-10-26T19:52:26-0400
_audit_creation_method            fapswitch 2.2
_symmetry_space_group_name_H-M    P1
_symmetry_Int_Tables_number       1
_space_group_crystal_system       triclinic
_cell_length_a                    9.543169
_cell_length_b                    10.844201
_cell_length_c                    13.472572
_cell_angle_alpha                 90.657122
_cell_angle_beta                  72.052033
_cell_angle_gamma                 90.692877
_cell_volume                      1326.26046133

loop_
_atom_site_label
_atom_site_type_symbol
_atom_type_description
_atom_site_fract_x
_atom_site_fract_y
_atom_site_fract_z
_atom_type_partial_charge
C1    C     C_R   0.499577 0.737569 0.502869 0.549311
C2    C     C_R   0.371402 0.491418 0.815168 -0.003774
C3    C     C_R   0.366452 0.934051 0.524937 0.021844
C4    C     C_R   0.420730 0.494192 0.700156 0.535434
C5    C     C_R   0.496131 0.870400 0.514837 0.007544
C6    C     C_R   0.620965 0.937136 0.519763 -0.161405
C7    C     C_R   0.620188 0.065809 0.518967 -0.161213
C8    C     C_R   0.494771 0.128779 0.512911 0.007287
C9    C     C_R   0.365480 0.061036 0.523916 0.022214
C10   C     C_3   0.260745 0.061668 0.461255 -0.278500
C11   C     C_3   0.261439 0.922080 0.463231 -0.261305
C12   C     C_R   0.430717 0.487006 0.979875 0.041020
C13   C     C_R   0.963259 0.462741 0.413534 0.160100
C14   C     C_R   0.891075 0.548246 0.581463 -0.020821
C15   C     C_R   0.039721 0.547643 0.581701 -0.019211
C16   C     C_R   0.498700 0.262092 0.501948 0.549168
C17   C     C_R   0.111101 0.465168 0.412752 0.157449
C18   C     C_3   0.140598 0.343207 0.359638 -0.285138
C19   C     C_3   0.980165 0.337761 0.364029 -0.275126
C20   C     C_R   0.579583 0.501075 0.299370 0.548652
C21   C     C_R   0.791747 0.416833 0.020814 -0.077259
C22   C     C_R   0.625498 0.492058 0.184255 -0.011436
C23   C     C_R   0.466786 0.455723 0.872270 0.027183
C24   C     C_R   0.232147 0.538816 0.868422 -0.140031
C25   C     C_R   0.190792 0.558462 0.975332 -0.121694
C26   C     C_R   0.288937 0.535391 0.030586 -0.106191
C27   C     C_R   0.539514 0.471325 0.031217 0.016642
C28   C     C_R   0.678511 0.421520 0.975267 0.000962
C29   C     C_R   0.703539 0.376770 0.874175 -0.151176
C30   C     C_R   0.597447 0.390049 0.824572 -0.123434
C31   C     C_R   0.515556 0.504567 0.136063 -0.177076
C32   C     C_R   0.768792 0.457247 0.123007 0.220417
Cu1   Cu    Cu3+1 0.359330 0.500020 0.500010 0.930962
Cu2   Cu    Cu3+1 0.640670 0.499980 0.499990 0.933081
H1    H     H_    0.720069 0.115047 0.517745 0.127598
H2    H     H_    0.965616 0.336738 0.285682 0.196112
H3    H     H_    0.806190 0.331912 0.832830 0.106514
H4    H     H_    0.916163 0.265654 0.417600 0.137575
H5    H     H_    0.899959 0.384060 0.976062 0.134560
H6    H     H_    0.410569 0.538601 0.183133 0.124035
H7    H     H_    0.156569 0.565171 0.826834 0.120091
H8    H     H_    0.249649 0.556775 0.112665 0.106646
H9    H     H_    0.083778 0.596869 0.015050 0.145953
H10   H     H_    0.619829 0.347701 0.748379 0.146494
H11   H     H_    0.721338 0.890655 0.518503 0.134069
H12   H     H_    0.152046 0.100217 0.506283 0.130521
H13   H     H_    0.881674 0.535422 0.202256 0.329700
H14   H     H_    0.311609 0.099234 0.381613 0.135160
H15   H     H_    0.154154 0.881206 0.509590 0.138311
H16   H     H_    0.311922 0.879419 0.385048 0.143041
H17   H     H_    0.807671 0.586197 0.648091 0.127715
H18   H     H_    0.066801 0.584429 0.648523 0.112267
H19   H     H_    0.217956 0.350246 0.279050 0.134203
H20   H     H_    0.169303 0.274234 0.409232 0.149307
N1    N     N_R   0.852320 0.499070 0.499340 -0.234450
N2    N     N_R   0.148230 0.499110 0.499340 -0.230941
O1    O     O_R   0.381190 0.680360 0.500000 -0.499632
O2    O     O_R   0.618780 0.680320 0.499990 -0.506351
O3    O     O_R   0.323230 0.500000 0.650990 -0.508680
O4    O     O_R   0.560820 0.499960 0.650980 -0.517011
O5    O     O_R   0.381220 0.319680 0.500010 -0.497837
O6    O     O_R   0.618810 0.319640 0.500000 -0.509708
O7    O     O_R   0.439180 0.500040 0.349020 -0.508605
O8    O     O_R   0.676770 0.500000 0.349010 -0.484790
O9    O     O_3   0.887989 0.459374 0.159803 -0.736349

loop_
_geom_bond_atom_site_label_1
_geom_bond_atom_site_label_2
_ccdc_geom_bond_type
C16   O5    A    
C20   O8    A    
C2    C4    S    
C10   H12   S    
C6    C7    A    
C11   H15   S    
C6    H11   S    
C1    O1    A    
C9    C10   S    
C22   C32   A    
C14   H17   S    
C21   H5    S    
C13   C17   A    
Cu1   O7    S    
C30   H10   S    
C15   N2    A    
C25   H9    S    
C20   O7    A    
Cu2   O8    S    
C17   C18   S    
Cu2   N1    S    
Cu1   O3    S    
C11   H16   S    
C1    O2    A    
C24   C25   A    
Cu2   O4    S    
C24   H7    S    
C12   C23   A    
C4    O4    A    
C29   C30   A    
C16   O6    A    
Cu1   N2    S    
C3    C9    A    
C4    O3    A    
Cu1   O5    S    
C28   C29   A    
C19   H4    S    
C21   C28   A    
C20   C22   S    
C14   N1    A    
C10   H14   S    
C17   N2    A    
C19   H2    S    
C2    C24   A    
C5    C6    A    
C21   C32   A    
C1    C5    S    
C3    C11   S    
C22   C31   A    
C13   C19   S    
C12   C27   A    
C27   C31   A    
C23   C30   A    
C7    C8    A    
Cu1   Cu2   S    
C31   H6    S    
C26   H8    S    
C2    C23   A    
C8    C16   S    
C18   C19   S    
C10   C11   S    
C29   H3    S    
C27   C28   A    
Cu2   O2    S    
C18   H20   S    
C14   C15   A    
C8    C9    A    
Cu1   O1    S    
C18   H19   S    
C3    C5    A    
C25   C26   A    
C15   H18   S    
C7    H1    S    
H13   O9    S    
Cu2   O6    S    
C12   C26   A    
C32   O9    S    
C13   N1    A    
