data_mof_unit_66798.cif
_audit_creation_date              2013-03-05T15:41:07-0500
_audit_creation_method            fapswitch 2.2
_symmetry_space_group_name_H-M    P1
_symmetry_Int_Tables_number       1
_space_group_crystal_system       triclinic
_cell_length_a                    8.694745
_cell_length_b                    14.723543
_cell_length_c                    15.5494
_cell_angle_alpha                 93.467252
_cell_angle_beta                  99.742182
_cell_angle_gamma                 92.001758
_cell_volume                      1956.23257281

loop_
_atom_site_label
_atom_site_type_symbol
_atom_site_description
_atom_site_fract_x
_atom_site_fract_y
_atom_site_fract_z
_atom_type_partial_charge
P1    P     P_3+3 0.947560 0.714050 0.560480 0.468637
O1    O     O_2   0.113690 0.728200 0.532750 -0.377053
O2    O     O_3   0.871900 0.612110 0.540440 -0.349577
O3    O     O_3   0.325660 0.668890 0.372600 -0.382350
O4    O     O_2   0.271824 0.833689 0.436386 -0.345680
O5    O     O_3   0.021428 0.739000 0.670513 -0.626689
O6    O     O_3   0.314420 0.827848 0.272682 -0.499700
H1    H     H_    0.147357 0.727560 0.225842 0.193886
C1    C     C_3   0.217768 0.790671 0.112628 -0.277198
P2    P     P_3+3 0.325150 0.423860 0.297970 0.468985
P3    P     P_3+3 0.842510 0.614268 0.217432 0.457921
O7    O     O_2   0.147570 0.451710 0.282630 -0.352037
O8    O     O_3   0.905540 0.621350 0.329600 -0.318675
O9    O     O_2   0.964193 0.557055 0.179025 -0.389407
O10   O     O_3   0.311965 0.307311 0.267527 -0.588736
O11   O     O_3   0.868465 0.723730 0.178569 -0.572123
C2    C     C_3   0.796911 0.800254 0.213356 0.478520
C3    C     C_3   0.776740 0.873644 0.142469 -0.229232
H2    H     H_    0.893883 0.903772 0.144040 0.167212
C4    C     C_3   0.736449 0.339849 0.288743 0.396032
H3    H     H_    0.623389 0.341906 0.312401 0.073480
H4    H     H_    0.801545 0.406854 0.304074 0.104662
C5    C     C_3   0.705804 0.318449 0.189868 -0.502669
H5    H     H_    0.640129 0.251543 0.174987 0.234935
H6    H     H_    0.630816 0.369670 0.157067 0.168747
Ba1   Ba    Ba6+2 0.142880 0.544780 0.454020 1.588641
C6    C     C_3   0.909675 0.729869 0.723676 0.249403
H7    H     H_    0.789477 0.715010 0.686291 0.061918
C7    C     C_3   0.910340 0.820913 0.780464 0.386578
C8    C     C_3   0.279304 0.255279 0.334496 0.289574
H8    H     H_    0.167001 0.274357 0.353980 0.125583
H9    H     H_    0.378234 0.263335 0.390380 0.162085
C9    C     C_3   0.261215 0.156657 0.297146 -0.758196
H10   H     H_    0.147156 0.146783 0.252260 0.208856
H11   H     H_    0.356047 0.142099 0.259139 0.201442
P4    P     P_3+3 0.862730 0.285940 0.439440 0.473308
O12   O     O_2   0.696600 0.271740 0.467230 -0.359125
O13   O     O_3   0.938380 0.387880 0.459490 -0.381297
O14   O     O_3   0.484630 0.331100 0.627330 -0.379818
O15   O     O_3   0.823966 0.269885 0.325751 -0.588496
P5    P     P_3+3 0.968398 0.391367 0.786414 0.526400
O16   O     O_3   0.389110 0.548970 0.605210 -0.432240
O17   O     O_3   0.904740 0.378630 0.670330 -0.274878
O18   O     O_2   0.851077 0.456363 0.818053 -0.318963
O19   O     O_3   0.918568 0.293396 0.837345 -0.545542
Ba2   Ba    Ba6+2 0.667290 0.455210 0.545900 1.616140
P6    P     P_3+3 0.372860 0.785876 0.376804 0.486445
C10   C     C_3   0.255645 0.756781 0.208434 0.287592
H12   H     H_    0.335752 0.699761 0.209736 0.069984
O20   O     O_3   0.421180 0.451020 0.394720 -0.411020
C11   C     C_3   0.389618 0.736359 0.669657 0.332864
H13   H     H_    0.410675 0.739267 0.601288 0.135314
H14   H     H_    0.280838 0.694936 0.669818 0.153888
C12   C     C_3   0.363308 0.830532 0.708919 -0.714690
H15   H     H_    0.374929 0.828679 0.781082 0.210656
H16   H     H_    0.244026 0.848416 0.682349 0.176293
P7    P     P_3+3 0.488676 0.581499 0.713510 0.455373
O21   O     O_2   0.662730 0.548230 0.717350 -0.309010
O22   O     O_3   0.516936 0.699315 0.720581 -0.602905
C13   C     C_3   0.999986 0.216640 0.815071 0.252171
H17   H     H_    0.118455 0.236836 0.807117 -0.057137
C14   C     C_3   0.012210 0.146710 0.889043 -0.559648
H18   H     H_    0.102318 0.098963 0.877264 0.126184
P8    P     P_3+3 0.447558 0.212543 0.635771 0.522844
C15   C     C_3   0.467640 0.251675 0.806293 0.524792
H19   H     H_    0.343655 0.264497 0.783321 0.004201
O23   O     O_2   0.563569 0.166223 0.583778 -0.299207
O24   O     O_3   0.516129 0.186779 0.745512 -0.474532
C16   C     C_3   0.482240 0.214920 0.900908 0.468115
C17   C     C_R   0.019515 0.941359 0.537581 -0.189585
C18   C     C_R   0.825492 0.805409 0.508309 0.195762
C19   C     C_R   0.675086 0.772812 0.470724 -0.429050
C20   C     C_R   0.570114 0.828995 0.426684 0.309861
C21   C     C_R   0.612180 0.919917 0.419616 -0.295832
C22   C     C_R   0.761426 0.958448 0.456635 0.099878
C23   C     C_R   0.869679 0.901585 0.503785 -0.096823
H20   H     H_    0.638689 0.702331 0.474732 0.152103
C24   C     C_R   0.946784 0.094749 0.489986 -0.013630
C25   C     C_R   0.055816 0.036296 0.536236 0.150106
C26   C     C_R   0.987735 0.192758 0.494493 0.146111
C27   C     C_R   0.134012 0.223495 0.544468 -0.437584
C28   C     C_R   0.243290 0.165474 0.585266 0.142529
C29   C     C_R   0.201267 0.072724 0.582507 -0.210951
C30   C     C_R   0.806214 0.050427 0.441375 0.258428
H21   H     H_    0.525082 0.959274 0.383205 0.194293
H22   H     H_    0.282912 0.028747 0.616961 0.157399
H23   H     H_    0.107632 0.899022 0.568441 0.169746
C31   C     C_R   0.243322 0.491762 0.774133 -0.312113
C32   C     C_R   0.163632 0.448720 0.831657 0.261274
C33   C     C_R   0.223393 0.458787 0.922554 -0.347795
C34   C     C_R   0.367572 0.508082 0.957182 0.038015
C35   C     C_R   0.445582 0.549818 0.892402 -0.141849
C36   C     C_R   0.385172 0.538577 0.801760 0.082722
C37   C     C_R   0.586868 0.545349 0.092037 -0.243162
C38   C     C_R   0.644984 0.559972 0.181197 0.264952
C39   C     C_R   0.410619 0.487372 0.214244 0.321900
C40   C     C_R   0.345995 0.480256 0.122657 -0.282311
C41   C     C_R   0.431985 0.512688 0.057972 0.114245
C42   C     C_R   0.555536 0.532982 0.242006 -0.512513
H24   H     H_    0.670947 0.557229 0.052254 0.156145
H25   H     H_    0.154867 0.427491 0.965168 0.204127
H26   H     H_    0.231730 0.447103 0.103665 0.171216
H27   H     H_    0.604561 0.541262 0.310934 0.158673
H28   H     H_    0.191278 0.493540 0.706579 0.222895
C43   C     C_3   0.858654 0.315060 0.153054 -0.628028
H29   H     H_    0.865232 0.370103 0.107830 0.249361
H30   H     H_    0.963752 0.322761 0.204812 0.270785
H31   H     H_    0.864039 0.247994 0.117511 0.256783
C44   C     C_2   0.955317 0.648052 0.770705 1.040124
O25   O     O_2   0.959951 0.577736 0.726276 -0.581970
O26   O     O_R   0.005395 0.651776 0.860392 -0.875365
H32   H     H_    0.031816 0.591100 0.884033 0.350063
C45   C     C_3   0.073451 0.852561 0.833012 -0.747489
H33   H     H_    0.144337 0.795591 0.857204 0.244669
H34   H     H_    0.142263 0.893296 0.794623 0.217444
H35   H     H_    0.061870 0.900511 0.888517 0.297881
C46   C     C_3   0.793007 0.815923 0.843167 -0.830274
H36   H     H_    0.798658 0.880216 0.883868 0.265339
H37   H     H_    0.672427 0.808309 0.808252 0.293422
H38   H     H_    0.817182 0.759973 0.886156 0.267342
C47   C     C_3   0.857862 0.893466 0.717418 -0.814138
H39   H     H_    0.953317 0.911837 0.682950 0.246359
H40   H     H_    0.755843 0.868794 0.668215 0.214771
H41   H     H_    0.828005 0.954857 0.752834 0.317866
C48   C     C_3   0.101199 0.722267 0.053783 -1.015255
H42   H     H_    0.143545 0.651803 0.054697 0.294864
H43   H     H_    0.083940 0.743865 0.986373 0.299398
H44   H     H_    0.985153 0.718544 0.067950 0.300855
C49   C     C_2   0.270617 0.091166 0.366925 1.070324
O27   O     O_2   0.166895 0.032838 0.364601 -0.539203
O28   O     O_R   0.401343 0.094584 0.432490 -0.814498
H45   H     H_    0.397747 0.043870 0.473296 0.335690
C50   C     C_2   0.352473 0.789103 0.062845 1.136698
O29   O     O_2   0.416219 0.717690 0.052975 -0.683387
O30   O     O_R   0.374545 0.860040 0.009435 -0.772997
H46   H     H_    0.416029 0.838580 0.955049 0.336395
C51   C     C_2   0.468745 0.904097 0.686516 1.051552
O31   O     O_2   0.532209 0.959860 0.743869 -0.603224
O32   O     O_R   0.485908 0.912936 0.599752 -0.824556
H47   H     H_    0.556524 0.967478 0.593366 0.326030
C52   C     C_2   0.156169 0.886629 0.111426 1.156625
O33   O     O_2   0.094231 0.914880 0.042383 -0.612434
O34   O     O_R   0.174612 0.945273 0.186841 -0.731922
H48   H     H_    0.128326 0.006360 0.175061 0.344525
C53   C     C_2   0.682477 0.956572 0.157213 1.068482
O35   O     O_2   0.745594 0.032644 0.160483 -0.641885
O36   O     O_R   0.523564 0.948155 0.161090 -0.791707
H49   H     H_    0.475109 0.009249 0.167909 0.331448
C54   C     C_2   0.924880 0.172972 0.728060 1.035959
O37   O     O_2   0.823489 0.210890 0.681614 -0.523447
O38   O     O_R   0.965541 0.086769 0.702186 -0.870422
H50   H     H_    0.884357 0.059410 0.652055 0.322815
C55   C     C_2   0.870393 0.085075 0.890292 0.988929
O39   O     O_2   0.758859 0.082014 0.830855 -0.602976
O40   O     O_R   0.863430 0.034964 0.963135 -0.739873
H51   H     H_    0.754748 0.008216 0.963247 0.313792
C56   C     C_2   0.063146 0.190235 0.980642 1.090399
O41   O     O_2   0.034832 0.269037 0.999169 -0.662949
O42   O     O_R   0.141465 0.138366 0.045264 -0.764668
H52   H     H_    0.171384 0.174488 0.103619 0.318644
C57   C     C_3   0.559093 0.342570 0.808398 -0.712629
H53   H     H_    0.486747 0.389354 0.769442 0.211442
H54   H     H_    0.596432 0.376816 0.874371 0.209610
H55   H     H_    0.660301 0.331535 0.776302 0.322518
C58   C     C_3   0.387747 0.271725 0.957837 -1.010064
H56   H     H_    0.381132 0.239896 0.020101 0.283467
H57   H     H_    0.443619 0.340058 0.976557 0.247829
H58   H     H_    0.271177 0.282372 0.922696 0.247138
C59   C     C_3   0.650626 0.222952 0.952299 -0.781485
H59   H     H_    0.674454 0.167881 0.997821 0.248592
H60   H     H_    0.678440 0.288517 0.991646 0.235388
H61   H     H_    0.731977 0.224516 0.906766 0.277627
C60   C     C_2   0.904507 0.841181 0.292145 0.956799
O43   O     O_2   0.919621 0.923508 0.307994 -0.627062
O44   O     O_R   0.984573 0.783905 0.348503 -0.696979
H62   H     H_    0.019213 0.816229 0.406691 0.362564
C61   C     C_3   0.420736 0.114236 0.892642 -0.733121
H63   H     H_    0.512463 0.067316 0.881238 0.289639
H64   H     H_    0.379909 0.093933 0.952946 0.253972
H65   H     H_    0.325153 0.101548 0.835805 0.208444
C62   C     C_2   0.179146 0.318899 0.556615 1.104567
O45   O     O_2   0.175102 0.359075 0.626445 -0.691241
O46   O     O_R   0.248777 0.359224 0.494079 -0.798495
H66   H     H_    0.310257 0.416349 0.519193 0.395109
C63   C     C_3   0.729120 0.088606 0.357932 -0.725226
H67   H     H_    0.821252 0.112543 0.322494 0.284797
H68   H     H_    0.662759 0.036497 0.311379 0.209691
H69   H     H_    0.645695 0.140620 0.369481 0.268319
C64   C     C_3   0.643580 0.773589 0.240731 -1.020918
H70   H     H_    0.571095 0.733773 0.187007 0.276742
H71   H     H_    0.661113 0.730458 0.297113 0.220075
H72   H     H_    0.585379 0.834617 0.259301 0.259917
C65   C     C_2   0.579271 0.614216 0.913194 1.046461
O47   O     O_2   0.557039 0.695356 0.912443 -0.659667
O48   O     O_R   0.730058 0.582990 0.921090 -0.781377
H73   H     H_    0.809836 0.630406 0.952676 0.325647
C66   C     C_3   0.731292 0.832192 0.049550 -0.798466
H74   H     H_    0.836852 0.824502 0.020404 0.250912
H75   H     H_    0.676210 0.764048 0.049318 0.315800
H76   H     H_    0.657758 0.876809 0.007161 0.249682

loop_
_geom_bond_atom_site_label_1
_geom_bond_atom_site_label_2
_geom_bond_distance
_ccdc_geom_bond_type
C42   H27   1.082229 S    
O19   C13   1.410593 S    
C56   O41   1.222005 D    
C6    C7    1.559241 S    
P5    O17   1.792588 S    
C20   C21   1.391096 A    
P5    C32   1.874402 S    
O26   H32   1.005716 S    
C27   C62   1.437753 S    
C21   H21   1.074739 S    
C22   C23   1.421314 A    
C3    C53   1.521433 S    
C46   H37   1.094661 S    
C27   C28   1.397593 A    
C33   C34   1.431418 A    
C54   O37   1.215781 D    
O30   H46   1.011903 S    
C62   O45   1.211126 D    
C66   H76   1.101761 S    
C49   O28   1.389775 S    
O14   P8    1.780708 S    
C51   O32   1.395488 S    
C58   H56   1.110015 S    
P8    O24   1.777904 S    
P4    O12   1.586811 D    
C3    H2    1.092455 S    
P2    O10   1.746866 S    
Ba1   O20   3.073375 S    
O42   H52   1.012895 S    
C8    H8    1.110454 S    
C4    O15   1.396281 S    
P3    O9    1.549474 D    
C24   C26   1.468840 A    
C22   C30   1.440579 A    
P7    O22   1.737681 S    
C12   C51   1.489727 S    
P5    O18   1.542541 D    
C37   C41   1.416997 A    
C9    C49   1.488552 S    
O34   H48   1.012293 S    
C5    C43   1.534608 S    
C39   C42   1.395244 A    
C40   C41   1.444405 A    
C13   C14   1.582383 S    
P1    O1    1.586319 D    
O16   Ba2   3.072546 S    
C66   H75   1.096099 S    
C47   H41   1.091899 S    
O36   H49   1.013877 S    
C16   C61   1.548674 S    
C31   C36   1.380678 A    
O5    C6    1.386264 S    
O11   C2    1.427686 S    
C61   H64   1.110756 S    
C7    C47   1.523064 S    
C48   H44   1.068834 S    
O38   H50   1.011976 S    
C57   H54   1.106914 S    
P4    Ba2   3.547974 S    
C37   H24   1.051147 S    
C55   O40   1.397191 S    
C44   O25   1.215144 D    
C40   H26   1.077924 S    
C65   O47   1.217292 D    
C19   C20   1.376954 A    
C45   H35   1.101873 S    
P2    Ba1   3.541909 S    
C62   O46   1.381507 S    
C58   H57   1.102517 S    
P7    C36   1.890873 S    
Ba2   O21   2.929592 S    
C59   H60   1.107652 S    
C30   C63   1.506311 S    
C37   C38   1.393907 A    
C3    C66   1.516394 S    
C17   H23   1.072814 S    
O16   P7    1.787399 S    
C31   H28   1.073376 S    
C2    C60   1.490856 S    
C53   O35   1.224335 D    
P7    O21   1.599532 D    
C60   O44   1.373928 S    
C43   H31   1.108455 S    
C12   H16   1.096756 S    
O12   Ba2   2.934693 S    
C47   H40   1.103768 S    
C21   C22   1.411872 A    
C53   O36   1.394716 S    
P1    O5    1.735045 S    
P8    O23   1.547100 D    
P4    O15   1.742647 S    
P6    C20   1.833107 S    
C35   C65   1.453765 S    
P4    C26   1.930742 S    
C46   H38   1.095807 S    
C34   C35   1.459209 A    
C1    C52   1.528387 S    
C24   C25   1.434474 A    
Ba1   O13   2.879835 S    
C63   H69   1.100525 S    
C2    C64   1.512745 S    
C60   O43   1.220290 D    
C7    C46   1.528673 S    
C1    C48   1.543436 S    
C11   H13   1.111920 S    
O7    Ba1   2.929282 S    
C13   H17   1.091286 S    
P1    O2    1.608630 S    
C52   O34   1.396644 S    
O6    P6    1.768025 S    
C64   H72   1.093928 S    
O46   H66   1.001936 S    
H1    C10   1.103130 S    
C33   H25   1.075990 S    
C19   H20   1.082803 S    
C43   H30   1.108344 S    
C50   O29   1.219123 D    
O4    P6    1.537991 D    
P3    O11   1.775413 S    
O44   H62   0.990724 S    
C4    C5    1.526727 S    
P2    C39   1.883543 S    
C5    H5    1.112852 S    
C15   O24   1.427497 S    
C39   C40   1.435916 A    
C29   H22   1.074968 S    
C14   H18   1.101392 S    
C65   O48   1.392759 S    
C2    C3    1.582785 S    
C14   C56   1.513863 S    
O1    Ba1   2.934185 S    
C59   H59   1.110379 S    
C16   C59   1.541616 S    
C4    H3    1.107123 S    
P8    C28   1.904610 S    
C47   H39   1.096183 S    
P2    O7    1.593875 D    
O14   Ba2   2.867472 S    
C10   H12   1.108368 S    
C4    H4    1.112358 S    
C61   H63   1.102863 S    
C58   H58   1.088330 S    
C17   C23   1.412144 A    
C48   H42   1.113034 S    
C59   H61   1.082791 S    
O8    Ba1   2.889218 S    
C11   O22   1.395607 S    
O28   H45   1.011687 S    
P2    O20   1.612172 S    
C18   C23   1.463189 A    
C6    H7    1.114022 S    
C57   H55   1.094828 S    
Ba1   O16   2.895509 S    
O10   C8    1.390425 S    
C48   H43   1.101244 S    
C45   H33   1.104881 S    
C51   O31   1.219489 D    
P3    C38   1.851554 S    
C64   H70   1.084198 S    
C7    C45   1.552966 S    
C12   H15   1.111558 S    
C8    C9    1.523699 S    
C17   C25   1.424395 A    
O2    Ba1   3.068102 S    
C26   C27   1.417398 A    
O3    Ba1   2.868017 S    
O32   H47   1.013693 S    
C61   H65   1.107812 S    
C43   H29   1.110792 S    
Ba2   O20   2.894775 S    
O2    Ba2   2.880375 S    
C14   C55   1.508784 S    
C11   C12   1.521386 S    
O6    C10   1.420380 S    
C54   O38   1.383999 S    
C49   O27   1.217899 D    
C18   C19   1.394872 A    
C57   H53   1.090351 S    
C52   O33   1.220503 D    
C8    H9    1.111983 S    
P3    O8    1.733138 S    
C63   H67   1.105772 S    
P1    Ba1   3.547366 S    
C45   H34   1.101405 S    
P1    C18   1.879966 S    
C15   C16   1.584715 S    
C44   O26   1.386009 S    
P4    O13   1.608610 S    
C35   C36   1.415948 A    
C9    H11   1.112204 S    
C9    H10   1.111382 S    
C38   C42   1.389092 A    
C13   C54   1.495596 S    
C15   H19   1.103359 S    
C34   C41   1.569039 S    
C66   H74   1.096559 S    
O17   Ba2   2.889963 S    
C16   C58   1.537103 S    
O13   Ba2   3.068833 S    
C63   H68   1.098232 S    
Ba1   Ba2   4.767174 S    
C11   H14   1.107805 S    
O48   H73   1.009535 S    
C25   C29   1.415164 A    
C24   C30   1.436307 A    
C5    H6    1.105595 S    
C31   C32   1.389032 A    
C6    C44   1.478211 S    
C1    C10   1.584951 S    
C56   O42   1.397926 S    
C28   C29   1.397489 A    
C15   C57   1.528383 S    
O40   H51   1.011280 S    
C50   O30   1.400827 S    
P5    O19   1.762469 S    
C64   H71   1.106336 S    
C32   C33   1.417871 A    
C46   H36   1.101263 S    
C55   O39   1.218692 D    
O3    P6    1.751414 S    
C1    C50   1.509336 S    
