data_mof_unit_48579.cif
_audit_creation_date              2013-03-05T15:47:58-0500
_audit_creation_method            fapswitch 2.2
_symmetry_space_group_name_H-M    P1
_symmetry_Int_Tables_number       1
_space_group_crystal_system       triclinic
_cell_length_a                    26.754873
_cell_length_b                    7.091832
_cell_length_c                    12.001554
_cell_angle_alpha                 89.999746
_cell_angle_beta                  103.585253
_cell_angle_gamma                 90.011522
_cell_volume                      2213.47526806

loop_
_atom_site_label
_atom_site_type_symbol
_atom_site_description
_atom_site_fract_x
_atom_site_fract_y
_atom_site_fract_z
_atom_type_partial_charge
O1    O     O_R   0.437360 0.505910 0.042120 -0.589723
O2    O     O_R   0.562640 0.005910 0.957880 -0.589694
O3    O     O_R   0.542480 0.176660 0.157100 -0.593596
O4    O     O_R   0.457520 0.676660 0.842900 -0.593597
C1    C     C_R   0.556886 0.344761 0.197457 0.922806
C2    C     C_R   0.443111 0.844735 0.802547 0.922797
O5    O     O_R   0.436520 0.176250 0.054800 -0.591877
O6    O     O_R   0.563480 0.676250 0.945200 -0.591863
O7    O     O_R   0.455920 0.005040 0.854840 -0.590414
O8    O     O_R   0.544080 0.505040 0.145160 -0.590400
C3    C     C_R   0.417345 0.344132 0.062621 0.919060
C4    C     C_R   0.582653 0.844168 0.937373 0.919053
O9    O     O_3   0.506490 0.338900 0.934520 -0.280812
O10   O     O_3   0.493510 0.838900 0.065480 -0.280838
V1    V     V_3+5 0.498800 0.064400 0.012150 1.173589
V2    V     V_3+5 0.501200 0.564400 0.987850 1.173583
C5    C     C_R   0.681509 0.790703 0.764388 -0.145716
C6    C     C_R   0.318478 0.289258 0.235455 -0.145518
H1    H     H_    0.599173 0.800287 0.725907 0.106443
H2    H     H_    0.400814 0.298849 0.273963 0.106504
H3    H     H_    0.775084 0.744506 0.731253 0.133178
H4    H     H_    0.224896 0.242521 0.268467 0.132976
H5    H     H_    0.682211 0.765822 0.675659 0.133321
H6    H     H_    0.317771 0.263730 0.324114 0.133254
C7    C     C_R   0.632234 0.846743 0.905813 -0.090152
C8    C     C_R   0.367764 0.346561 0.094187 -0.090374
C9    C     C_R   0.868605 0.877571 0.213627 -0.170052
C10   C     C_R   0.131410 0.378355 0.786414 -0.169591
C11   C     C_R   0.822985 0.866716 0.251425 0.438210
C12   C     C_R   0.177027 0.367609 0.748597 0.438495
C13   C     C_R   0.775909 0.851056 0.170185 -0.255669
C14   C     C_R   0.224100 0.351658 0.829810 -0.255675
C15   C     C_R   0.773748 0.837700 0.051390 0.097101
C16   C     C_R   0.226253 0.337771 0.948572 0.096940
C17   C     C_R   0.820982 0.828600 0.016255 0.118155
C18   C     C_R   0.179015 0.328341 0.983678 0.118221
C19   C     C_R   0.726284 0.830820 0.966274 0.136429
C20   C     C_R   0.273713 0.330600 0.033676 0.136269
C21   C     C_R   0.727338 0.797896 0.849941 0.182136
C22   C     C_R   0.272652 0.296869 0.149920 0.181801
C23   C     C_R   0.774076 0.772140 0.819559 -0.086962
C24   C     C_R   0.225909 0.270734 0.180231 -0.086957
C25   C     C_R   0.820215 0.790712 0.900810 -0.074881
C26   C     C_R   0.179773 0.289723 0.099029 -0.074866
C27   C     C_R   0.677718 0.857730 0.991891 -0.214026
C28   C     C_R   0.322281 0.357982 0.008136 -0.214085
C29   C     C_R   0.634262 0.812552 0.792432 -0.183955
C30   C     C_R   0.365728 0.311502 0.207472 -0.183843
C31   C     C_R   0.868100 0.857908 0.097454 -0.157611
C32   C     C_R   0.131904 0.358063 0.902542 -0.157537
H7    H     H_    0.673757 0.885370 0.077739 0.108422
H8    H     H_    0.326240 0.386286 0.922361 0.108543
H9    H     H_    0.905020 0.896388 0.275173 0.132124
H10   H     H_    0.095002 0.397471 0.724903 0.132047
H11   H     H_    0.741627 0.843923 0.202278 0.151758
H12   H     H_    0.258385 0.344655 0.797720 0.151728
H13   H     H_    0.855368 0.777123 0.871639 0.119541
H14   H     H_    0.144618 0.275859 0.128164 0.119751
C33   C     C_R   0.089824 0.860836 0.313545 -0.114762
C34   C     C_R   0.910165 0.360734 0.686461 -0.115279
C35   C     C_R   0.407786 0.854688 0.689462 -0.090829
C36   C     C_R   0.592207 0.354843 0.310547 -0.090852
C37   C     C_R   0.103464 0.798900 0.516121 0.001769
C38   C     C_R   0.896458 0.297733 0.483985 0.002037
C39   C     C_R   0.070962 0.802091 0.406694 -0.169365
C40   C     C_R   0.928963 0.301086 0.593405 -0.169530
C41   C     C_R   0.141769 0.906334 0.329506 -0.081765
C42   C     C_R   0.858259 0.406855 0.670437 -0.081207
C43   C     C_R   0.176912 0.869525 0.434961 0.129984
C44   C     C_R   0.823079 0.369771 0.565064 0.129832
C45   C     C_R   0.156348 0.840518 0.532553 0.044066
C46   C     C_R   0.843615 0.340009 0.467504 0.043858
C47   C     C_R   0.231391 0.862272 0.446203 -0.076306
C48   C     C_R   0.768595 0.362929 0.553859 -0.076306
C49   C     C_R   0.264553 0.866970 0.558668 0.038064
C50   C     C_R   0.735436 0.367206 0.441378 0.038055
C51   C     C_R   0.242102 0.869913 0.654221 -0.239199
C52   C     C_R   0.757885 0.369717 0.345817 -0.239240
C53   C     C_R   0.189119 0.851329 0.643119 0.302478
C54   C     C_R   0.810857 0.350784 0.356925 0.302487
C55   C     C_R   0.254042 0.840715 0.350034 0.311688
C56   C     C_R   0.745928 0.342186 0.650074 0.311313
C57   C     C_R   0.307148 0.856331 0.364980 -0.367648
C58   C     C_R   0.692824 0.358117 0.635063 -0.367458
C59   C     C_R   0.339689 0.868201 0.473552 0.122171
C60   C     C_R   0.660294 0.369449 0.526455 0.122200
C61   C     C_R   0.319227 0.866389 0.572312 0.142875
C62   C     C_R   0.680763 0.366776 0.427714 0.142871
C63   C     C_R   0.393096 0.869779 0.483777 -0.137661
C64   C     C_R   0.606886 0.371389 0.516200 -0.137684
C65   C     C_R   0.426922 0.863148 0.591161 -0.183669
C66   C     C_R   0.573065 0.364286 0.408816 -0.183649
C67   C     C_R   0.354661 0.857972 0.680663 -0.221737
C68   C     C_R   0.645336 0.357690 0.319370 -0.221802
H15   H     H_    0.342653 0.849290 0.760097 0.109015
H16   H     H_    0.657353 0.348190 0.239969 0.109091
H17   H     H_    0.468003 0.862259 0.597605 0.102522
H18   H     H_    0.531983 0.363808 0.402354 0.102529
H19   H     H_    0.323648 0.843979 0.290927 0.191519
H20   H     H_    0.676309 0.346430 0.709132 0.191577
H21   H     H_    0.087121 0.756111 0.586397 0.153192
H22   H     H_    0.912754 0.254278 0.413764 0.153184
H23   H     H_    0.030828 0.764356 0.395241 0.122146
H24   H     H_    0.969058 0.262789 0.604913 0.122338
H25   H     H_    0.154368 0.964256 0.257477 0.117726
H26   H     H_    0.845708 0.465385 0.742369 0.117800
H27   H     H_    0.264977 0.887229 0.740090 0.161001
H28   H     H_    0.735012 0.387053 0.259947 0.161077
H29   H     H_    0.408738 0.872096 0.408245 0.119979
H30   H     H_    0.591237 0.374425 0.591719 0.119966
O11   O     O_R   0.955980 0.206520 0.854760 -0.574210
O12   O     O_R   0.044020 0.706520 0.145240 -0.574016
O13   O     O_R   0.063490 0.536770 0.945200 -0.568850
O14   O     O_R   0.936510 0.036770 0.054800 -0.568714
C69   C     C_R   0.082632 0.368056 0.936887 0.924920
C70   C     C_R   0.917373 0.868020 0.063129 0.924821
O15   O     O_R   0.957530 0.536190 0.842880 -0.605112
O16   O     O_R   0.042470 0.036190 0.157120 -0.605093
O17   O     O_R   0.937350 0.707210 0.042130 -0.584306
O18   O     O_R   0.062650 0.207210 0.957870 -0.584360
C71   C     C_R   0.943817 0.367963 0.801780 0.939157
C72   C     C_R   0.056178 0.867985 0.198222 0.938840
O19   O     O_3   0.993540 0.373870 0.065440 -0.271798
O20   O     O_3   0.006460 0.873870 0.934560 -0.271982
V3    V     V_3+5 0.001200 0.648440 0.987860 1.243959
V4    V     V_3+5 0.998800 0.148440 0.012140 1.243983
N1    N     N_R   0.225429 0.775660 0.239981 0.222745
O21   O     O_R   0.192729 0.638386 0.234160 -0.424736
O22   O     O_R   0.238130 0.829310 0.146605 -0.395378
N2    N     N_R   0.774502 0.277709 0.760301 0.222797
O23   O     O_R   0.807168 0.140295 0.766466 -0.425005
O24   O     O_R   0.761727 0.331770 0.853510 -0.395298
N3    N     N_R   0.824472 0.870293 0.372246 0.217151
O25   O     O_R   0.868069 0.857349 0.447780 -0.422325
O26   O     O_R   0.782189 0.878372 0.407955 -0.433265
N4    N     N_R   0.175538 0.371522 0.627781 0.217162
O27   O     O_R   0.131935 0.358803 0.552244 -0.422061
O28   O     O_R   0.217823 0.379529 0.592074 -0.433025
N5    N     N_R   0.169490 0.854235 0.745354 0.216740
O29   O     O_R   0.197940 0.794671 0.842240 -0.390940
O30   O     O_R   0.127494 0.945537 0.746932 -0.428303
N6    N     N_R   0.830491 0.353405 0.254691 0.216787
O31   O     O_R   0.801972 0.294297 0.157754 -0.390769
O32   O     O_R   0.872619 0.443982 0.253184 -0.427928

loop_
_geom_bond_atom_site_label_1
_geom_bond_atom_site_label_2
_geom_bond_distance
_ccdc_geom_bond_type
C11   N3    1.441436 S    
C37   C39   1.394604 A    
C28   H8    1.078184 S    
C9    C11   1.400552 A    
C23   C25   1.387987 A    
C53   N5    1.443751 S    
O1    C3    1.313484 A    
C37   H21   1.080656 S    
O2    C4    1.313441 A    
C2    O7    1.304826 A    
C45   C53   1.410276 A    
C66   H18   1.083569 S    
C21   C23   1.394385 A    
O12   C72   1.313028 A    
C5    H5    1.083917 S    
C48   C50   1.430993 A    
C6    H6    1.083873 S    
C2    C35   1.462057 S    
C58   C60   1.389263 A    
O16   C72   1.309961 A    
O14   V4    2.016689 S    
C60   C62   1.417573 A    
O19   V3    2.188603 S    
O11   C71   1.313008 A    
C27   H7    1.078189 S    
C63   H29   1.084146 S    
C52   H28   1.074913 S    
C32   C69   1.472429 S    
C38   H22   1.080746 S    
C43   C45   1.421110 A    
C5    C21   1.403157 A    
C56   C58   1.394156 A    
O15   C71   1.309983 A    
C33   C41   1.395371 A    
C10   C32   1.398097 A    
C26   H14   1.082173 S    
C36   C66   1.393374 A    
C44   C48   1.432901 A    
C13   C15   1.416431 A    
C43   C47   1.432843 A    
C63   C65   1.390783 A    
C17   C25   1.406748 A    
C7    C29   1.395724 A    
C16   C18   1.424566 A    
C8    C30   1.395729 A    
C33   C72   1.463970 S    
C59   C61   1.417600 A    
C34   C40   1.393962 A    
C67   H15   1.076908 S    
C57   H19   1.084794 S    
C55   N1    1.438149 S    
C11   C13   1.404423 A    
C47   C49   1.430918 A    
C24   C26   1.387973 A    
C42   H26   1.080088 S    
C47   C55   1.432252 A    
C55   C57   1.394077 A    
O5    C3    1.308580 A    
C51   C53   1.398478 A    
C62   C68   1.419265 A    
C58   H20   1.084828 S    
C40   H24   1.083565 S    
C51   H27   1.074878 S    
N4    O28   1.301722 A    
C60   C64   1.405188 A    
C59   C63   1.405193 A    
C41   H25   1.080031 S    
O19   V4    1.739906 S    
O5    V1    2.017167 S    
C3    C8    1.462752 S    
C15   C19   1.431462 A    
C46   C54   1.410268 A    
C41   C43   1.412478 A    
C38   C40   1.394595 A    
O4    V2    2.017710 S    
N2    O24   1.301872 A    
N1    O22   1.301896 A    
C17   C31   1.415942 A    
C12   C14   1.404397 A    
C64   C66   1.390829 A    
O10   V1    1.740577 S    
O6    C4    1.308610 A    
O11   V4    2.008320 S    
C25   H13   1.082195 S    
H1    C29   1.083601 S    
O1    V2    2.008980 S    
C65   H17   1.083570 S    
C68   H16   1.077001 S    
O2    V1    2.009124 S    
C49   C51   1.414211 A    
O12   V3    2.008229 S    
H2    C30   1.083590 S    
O18   V4    2.009637 S    
H3    C23   1.084330 S    
O17   V3    2.009780 S    
C49   C61   1.433201 A    
C57   C59   1.389241 A    
C37   C45   1.413051 A    
C12   N4    1.441401 S    
C36   C68   1.400503 A    
N3    O25   1.301571 A    
N6    O32   1.301020 A    
C18   C26   1.406683 A    
O4    C2    1.310116 A    
C56   N2    1.438262 S    
C64   H30   1.084201 S    
C19   C27   1.416719 A    
N1    O21   1.299612 A    
C7    C27   1.401271 A    
C18   C32   1.415931 A    
O20   V4    2.188683 S    
C48   C56   1.432397 A    
C50   C62   1.433146 A    
C10   H10   1.083723 S    
C16   C20   1.431408 A    
C5    C29   1.391102 A    
C50   C52   1.414202 A    
N4    O27   1.301562 A    
O3    C1    1.310149 A    
C6    C30   1.391091 A    
O14   C70   1.314582 A    
N5    O29   1.301615 A    
C9    H9    1.083743 S    
C54   N6    1.443789 S    
C70   O17   1.308931 A    
C4    C7    1.462722 S    
C10   C12   1.400584 A    
N2    O23   1.299607 A    
O7    V1    2.009997 S    
C1    O8    1.304788 A    
C19   C21   1.422361 A    
O8    V2    2.010089 S    
C33   C39   1.393894 A    
C20   C22   1.422299 A    
N5    O30   1.300922 A    
H4    C24   1.084277 S    
C61   C67   1.419222 A    
O13   V3    2.016954 S    
C22   C24   1.394385 A    
C15   C17   1.424563 A    
C1    C36   1.462093 S    
C52   C54   1.398471 A    
C38   C46   1.413011 A    
C34   C71   1.464010 S    
C20   C28   1.416743 A    
C8    C28   1.401284 A    
C9    C31   1.398112 A    
C31   C70   1.472359 S    
C6    C22   1.403112 A    
C34   C42   1.395452 A    
O6    V2    2.016903 S    
C69   O18   1.308979 A    
O9    V2    1.740635 S    
N3    O26   1.301729 A    
C42   C44   1.412481 A    
C39   H23   1.083555 S    
N6    O31   1.301624 A    
O3    V1    2.017530 S    
C44   C46   1.421155 A    
O16   V4    2.017842 S    
C13   H11   1.076168 S    
C35   C67   1.400518 A    
O15   V3    2.017662 S    
C14   H12   1.076193 S    
C35   C65   1.393315 A    
C14   C16   1.416341 A    
O20   V3    1.739848 S    
O13   C69   1.314569 A    
