data_mof_unit_23799.cif
_audit_creation_date              2012-12-10T20:41:01-0500
_audit_creation_method            fapswitch 2.2
_symmetry_space_group_name_H-M    P1
_symmetry_Int_Tables_number       1
_space_group_crystal_system       triclinic
_cell_length_a                    26.821562
_cell_length_b                    10.74051
_cell_length_c                    9.961971
_cell_angle_alpha                 89.023623
_cell_angle_beta                  91.039729
_cell_angle_gamma                 92.115058
_cell_volume                      2867.0050549

loop_
_atom_site_label
_atom_site_type_symbol
_atom_type_description
_atom_site_fract_x
_atom_site_fract_y
_atom_site_fract_z
_atom_type_partial_charge
C1    C     C_R   0.499122 0.260646 0.500616 0.953894
C2    C     C_R   0.269792 0.506136 0.601472 -0.005124
C3    C     C_R   0.246581 0.531122 0.475234 0.152413
C4    C     C_R   0.093291 0.553382 0.394966 -0.083723
C5    C     C_R   0.113342 0.435067 0.423349 -0.167081
C6    C     C_R   0.080827 0.327504 0.419371 0.459250
C7    C     C_R   0.123243 0.662806 0.411801 -0.003002
C8    C     C_R   0.350581 0.510633 0.492750 -0.073085
C9    C     C_R   0.648479 0.502746 0.500536 -0.120422
C10   C     C_R   0.965384 0.462137 0.269977 -0.048143
C11   C     C_R   0.969518 0.687663 0.311486 0.057147
C12   C     C_R   0.405239 0.501718 0.498585 0.914316
C13   C     C_R   0.941553 0.576626 0.283652 0.060722
C14   C     C_R   0.937822 0.360646 0.210238 0.366675
C15   C     C_R   0.885867 0.363314 0.203899 -0.162880
C16   C     C_R   0.861555 0.467569 0.247606 -0.068925
C17   C     C_R   0.889115 0.577769 0.276626 -0.049114
C18   C     C_R   0.863593 0.687832 0.299423 -0.082859
C19   C     C_R   0.811588 0.674543 0.321232 0.635232
C20   C     C_R   0.810302 0.464141 0.268819 0.607379
C21   C     C_R   0.726657 0.410300 0.448096 -0.075918
C22   C     C_R   0.674749 0.396581 0.468551 -0.106544
C23   C     C_R   0.498509 0.739503 0.498111 0.910980
C24   C     C_R   0.674359 0.614526 0.528342 -0.326429
C25   C     C_R   0.725206 0.627660 0.502874 0.466981
C26   C     C_R   0.747747 0.532923 0.429387 0.083289
C27   C     C_R   0.014260 0.453282 0.323724 -0.013258
C28   C     C_R   0.043138 0.562811 0.350153 0.093677
C29   C     C_R   0.021839 0.681496 0.334286 0.070748
C30   C     C_R   0.032339 0.338789 0.368793 -0.151067
C31   C     C_R   0.103027 0.779358 0.387236 -0.090620
C32   C     C_R   0.943795 0.799771 0.320170 -0.196202
C33   C     C_R   0.891573 0.801745 0.311513 -0.014414
C34   C     C_R   0.594310 0.499864 0.500974 0.944635
C35   C     C_R   0.053222 0.788848 0.349409 -0.183261
C36   C     C_R   0.499594 0.060381 0.618502 0.000538
C37   C     C_R   0.499739 0.129048 0.499402 -0.074175
C38   C     C_R   0.502806 0.069623 0.376141 -0.216090
C39   C     C_R   0.499571 0.941524 0.370553 -0.020126
C40   C     C_R   0.498648 0.872141 0.493441 -0.132454
C41   C     C_R   0.501589 0.933606 0.615750 0.089268
C42   C     C_3   0.468659 0.916009 0.734636 -0.454429
C43   C     C_3   0.464305 0.056604 0.734010 0.302615
C44   C     C_R   0.463500 0.436651 0.070516 0.126142
C45   C     C_R   0.165057 0.430914 0.452339 0.667246
C46   C     C_R   0.538511 0.559168 0.070986 0.369284
C47   C     C_R   0.538513 0.553824 0.927099 -0.171982
C48   C     C_R   0.463493 0.436635 0.928825 0.204142
C49   C     C_3   0.409179 0.460290 0.920574 -0.410334
C50   C     C_3   0.409420 0.462739 0.072250 -0.447213
C51   C     C_R   0.173437 0.653145 0.448754 0.617691
C52   C     C_R   0.275578 0.545675 0.358154 -0.016653
C53   C     C_R   0.327149 0.537121 0.369639 -0.217259
C54   C     C_R   0.321803 0.495331 0.607904 -0.193112
H1    H     H_    0.339955 0.475774 0.703098 0.190308
H2    H     H_    0.125729 0.864245 0.397264 0.236002
H3    H     H_    0.963319 0.887463 0.338635 0.196324
H4    H     H_    0.655091 0.690619 0.571952 0.177327
H5    H     H_    0.040622 0.881668 0.330295 0.201098
H6    H     H_    0.503853 0.122567 0.282437 0.194573
H7    H     H_    0.433528 0.861851 0.710870 0.239482
H8    H     H_    0.489574 0.879900 0.823275 0.186152
H9    H     H_    0.480219 0.101711 0.825630 0.104469
H10   H     H_    0.401216 0.552046 0.873056 0.210588
H11   H     H_    0.387074 0.379495 0.880214 0.258585
H12   H     H_    0.402884 0.557112 0.110690 0.239508
H13   H     H_    0.386822 0.385154 0.118702 0.225786
H14   H     H_    0.864535 0.282442 0.168356 0.197333
H15   H     H_    0.007431 0.257926 0.371839 0.240817
H16   H     H_    0.349229 0.550417 0.281014 0.195858
N1    N     N_R   0.193442 0.538700 0.463579 -0.336588
N2    N     N_R   0.790225 0.557586 0.340235 -0.329295
N3    N     N_R   0.499670 0.499140 0.142800 -0.155739
N4    N     N_R   0.499670 0.499180 0.857150 -0.174363
O1    O     O_R   0.500010 0.316790 0.614690 -0.584271
O2    O     O_2   0.781310 0.369821 0.219366 -0.504483
O3    O     O_2   0.202637 0.756978 0.465637 -0.510162
O4    O     O_2   0.782902 0.774442 0.321007 -0.455833
O5    O     O_R   0.500000 0.316760 0.385350 -0.637328
O6    O     O_R   0.428760 0.500040 0.614660 -0.607775
O7    O     O_R   0.428750 0.500000 0.385310 -0.627452
O8    O     O_R   0.500000 0.683240 0.614650 -0.602005
O9    O     O_R   0.499990 0.683210 0.385310 -0.555581
O10   O     O_R   0.571250 0.500000 0.614690 -0.606332
O11   O     O_R   0.571240 0.499960 0.385340 -0.538604
O12   O     O_2   0.187843 0.321463 0.462401 -0.445204
Zn1   Zn    Zn3+2 0.500000 0.500020 0.653130 1.021516
Zn2   Zn    Zn3+2 0.500000 0.499980 0.346870 1.052705
C55   C     C_2   0.253500 0.568599 0.221682 0.973505
O13   O     O_2   0.209837 0.540095 0.196392 -0.611359
O14   O     O_R   0.283406 0.620767 0.120083 -0.775083
H17   H     H_    0.264498 0.631397 0.031813 0.376674
C56   C     C_2   0.868488 0.924422 0.320557 1.049638
O15   O     O_2   0.879221 0.992314 0.414885 -0.559241
O16   O     O_R   0.836530 0.965069 0.217760 -0.716704
H18   H     H_    0.823863 0.051172 0.234315 0.364082
S1    S     S_3+6 0.759863 0.735829 0.604090 0.099059
O17   O     O_2   0.814595 0.710441 0.605175 -0.238230
O18   O     O_2   0.752140 0.866615 0.553787 -0.236980
O19   O     O_3   0.739616 0.723123 0.762796 -0.485220
H19   H     H_    0.710914 0.778356 0.766529 0.376005
C57   C     C_2   0.493012 0.888797 0.234540 1.002939
O20   O     O_2   0.456150 0.823086 0.206915 -0.614480
O21   O     O_R   0.527621 0.921356 0.135631 -0.741429
H20   H     H_    0.519533 0.879240 0.047298 0.342633
C58   C     C_2   0.240884 0.491155 0.727571 0.974393
O22   O     O_2   0.259790 0.441908 0.826782 -0.588335
O23   O     O_R   0.192497 0.534466 0.734801 -0.784735
H21   H     H_    0.177218 0.518788 0.826170 0.377878
S2    S     S_3+6 0.402060 0.100810 0.690054 0.028667
O24   O     O_2   0.367461 0.058442 0.800072 -0.241072
O25   O     O_2   0.400502 0.239709 0.673573 -0.332946
O26   O     O_3   0.383582 0.033284 0.545438 -0.541016
H22   H     H_    0.350045 0.065394 0.525670 0.406936
S3    S     S_3+6 0.591999 0.641677 0.147631 0.088732
O27   O     O_2   0.631573 0.548355 0.174169 -0.241673
O28   O     O_2   0.613284 0.740425 0.054100 -0.260815
O29   O     O_3   0.582272 0.717863 0.289198 -0.535502
H23   H     H_    0.615299 0.754649 0.316036 0.384388
C59   C     C_2   0.581581 0.603020 0.851673 1.099817
O30   O     O_2   0.578910 0.700507 0.787277 -0.620253
O31   O     O_R   0.626243 0.539933 0.859322 -0.715649
H24   H     H_    0.653939 0.584088 0.807392 0.359129
S4    S     S_3+6 0.096339 0.178541 0.484770 0.099586
O32   O     O_2   0.130072 0.117516 0.388800 -0.229309
O33   O     O_2   0.122363 0.192545 0.618936 -0.208791
O34   O     O_3   0.044598 0.087115 0.504572 -0.552104
H25   H     H_    0.056192 0.011060 0.551301 0.386737
C60   C     C_2   0.648070 0.273653 0.461403 0.973756
O35   O     O_2   0.649857 0.212206 0.359512 -0.504740
O36   O     O_R   0.620401 0.229166 0.570783 -0.794447
H26   H     H_    0.605252 0.142613 0.555589 0.344843
C61   C     C_2   0.760077 0.304351 0.477558 0.997475
O37   O     O_2   0.801528 0.325558 0.527193 -0.580920
O38   O     O_R   0.744815 0.181482 0.449934 -0.709418
H27   H     H_    0.771404 0.119769 0.473822 0.391487
S5    S     S_3+6 0.965639 0.240141 0.120972 0.064356
O39   O     O_2   0.018630 0.275706 0.086221 -0.208716
O40   O     O_2   0.964730 0.121916 0.204062 -0.326348
O41   O     O_3   0.933075 0.214499 0.977449 -0.463486
H28   H     H_    0.906714 0.151201 0.000825 0.380503

loop_
_geom_bond_atom_site_label_1
_geom_bond_atom_site_label_2
_ccdc_geom_bond_type
C10   C27   A    
C21   C26   A    
C56   O15   D    
C23   O8    A    
C45   N1    A    
C26   N2    S    
C41   C42   S    
C54   H1    S    
O16   H18   S    
O10   Zn1   S    
C6    S4    S    
C30   H15   S    
S1    O17   D    
C19   N2    A    
C43   H9    S    
O38   H27   S    
C52   C53   A    
S5    O40   D    
C28   C29   A    
C23   O9    A    
C46   S3    S    
C36   C37   A    
C60   O35   D    
O6    Zn1   S    
C5    C6    A    
C9    C22   A    
C58   O22   D    
O8    Zn1   S    
O23   H21   S    
C20   O2    S    
C35   H5    S    
C18   C19   A    
S2    O24   D    
O21   H20   S    
S1    O18   D    
O29   H23   S    
C16   C17   A    
S3    O28   D    
C12   O7    A    
C25   S1    S    
C43   S2    S    
N4    Zn1   S    
C55   O14   S    
C50   H13   S    
C42   H8    S    
C8    C12   S    
O9    Zn2   S    
C56   O16   S    
C49   H10   S    
C21   C22   A    
C27   C30   A    
C36   C41   A    
C57   O20   D    
C34   O10   A    
C32   H3    S    
C4    C7    A    
C53   H16   S    
C21   C61   S    
O5    Zn2   S    
C4    C28   A    
C59   O31   S    
S5    O41   S    
C7    C31   A    
C15   C16   A    
C1    O1    A    
C48   N4    A    
C24   C25   A    
C2    C54   A    
C8    C54   A    
O14   H17   S    
C25   C26   A    
C5    C45   A    
C2    C58   S    
C34   O11   A    
C19   O4    S    
C3    N1    S    
C51   O3    S    
N3    Zn2   S    
C37   C38   A    
S2    O26   S    
C14   S5    S    
C16   C20   A    
S3    O29   S    
C17   C18   A    
O41   H28   S    
C57   O21   S    
C50   H12   S    
C42   H7    S    
C49   H11   S    
S4    O34   S    
C38   H6    S    
O1    Zn1   S    
C40   C41   A    
C6    C30   A    
C11   C32   A    
C22   C60   S    
C10   C14   A    
C61   O37   D    
C1    O5    A    
C31   C35   A    
C42   C43   S    
O36   H26   S    
C39   C40   A    
S1    O19   S    
C59   O30   D    
C39   C57   S    
S4    O33   D    
O26   H22   S    
O11   Zn2   S    
C44   C50   S    
C46   C47   A    
C48   C49   S    
C52   C55   S    
C47   N4    A    
C4    C5    A    
C10   C13   A    
C33   C56   S    
C8    C53   A    
C3    C52   A    
C51   N1    A    
C9    C24   A    
O34   H25   S    
C1    C37   S    
S5    O39   D    
C29   C35   A    
C13   C17   A    
C32   C33   A    
C2    C3    A    
C55   O13   D    
C7    C51   A    
C11   C13   A    
S3    O27   D    
C38   C39   A    
C58   O23   S    
C15   H14   S    
C12   O6    A    
O19   H19   S    
C9    C34   S    
C45   O12   S    
C31   H2    S    
C44   N3    A    
C18   C33   A    
S2    O25   D    
O7    Zn2   S    
C44   C48   A    
C11   C29   A    
C24   H4    S    
C49   C50   S    
C27   C28   A    
C61   O38   S    
C47   C59   S    
C14   C15   A    
C20   N2    A    
C36   C43   S    
O31   H24   S    
C46   N3    A    
C23   C40   S    
S4    O32   D    
C60   O36   S    
