data_mof_unit_54161.cif
_audit_creation_date              2012-12-10T17:50:15-0500
_audit_creation_method            fapswitch 2.2
_symmetry_space_group_name_H-M    P1
_symmetry_Int_Tables_number       1
_space_group_crystal_system       triclinic
_cell_length_a                    10.627294
_cell_length_b                    14.714676
_cell_length_c                    14.761031
_cell_angle_alpha                 64.996132
_cell_angle_beta                  103.53876
_cell_angle_gamma                 103.060789
_cell_volume                      2012.57261073

loop_
_atom_site_label
_atom_site_type_symbol
_atom_type_description
_atom_site_fract_x
_atom_site_fract_y
_atom_site_fract_z
_atom_type_partial_charge
C1    C     C_R   0.476985 0.119718 0.312362 0.811415
C2    C     C_R   0.520692 0.880298 0.687616 0.807542
C3    C     C_R   0.472665 0.291750 0.178813 -0.251535
C4    C     C_R   0.505416 0.708100 0.820983 -0.246062
C5    C     C_R   0.453368 0.359951 0.077383 0.090731
C6    C     C_R   0.490018 0.639085 0.919784 0.092597
C7    C     C_R   0.425557 0.320379 0.001215 0.158934
C8    C     C_R   0.502918 0.678397 0.994724 0.156213
C9    C     C_R   0.465249 0.466333 0.049775 0.067345
C10   C     C_R   0.464058 0.532440 0.946210 0.067234
C11   C     C_R   0.434043 0.489759 0.872416 -0.218189
C12   C     C_R   0.475890 0.508635 0.121939 -0.217267
C13   C     C_R   0.413869 0.385709 0.899718 -0.219432
C14   C     C_R   0.493437 0.612662 0.094471 -0.218554
C15   C     C_R   0.717044 0.284544 0.668805 -0.307813
C16   C     C_R   0.283900 0.715951 0.330450 -0.310744
C17   C     C_R   0.683278 0.203033 0.639126 0.083035
C18   C     C_R   0.317178 0.797204 0.360525 0.083633
C19   C     C_R   0.519064 0.285449 0.508673 0.021236
C20   C     C_R   0.480975 0.714574 0.491246 0.019769
C21   C     C_R   0.549130 0.371504 0.534724 -0.021583
C22   C     C_R   0.451437 0.628796 0.464769 -0.020762
C23   C     C_R   0.259501 0.000232 0.499772 0.865817
C24   C     C_R   0.740508 0.999755 0.500250 0.867291
C25   C     C_R   0.650023 0.368628 0.617415 0.158959
C26   C     C_R   0.350934 0.631870 0.381795 0.160105
C27   C     C_R   0.482801 0.459017 0.482997 0.080132
C28   C     C_R   0.517950 0.541378 0.516344 0.076605
C29   C     C_R   0.618151 0.533424 0.600104 -0.232890
C30   C     C_R   0.382955 0.467143 0.398991 -0.236232
C31   C     C_R   0.682919 0.449108 0.648949 -0.188828
C32   C     C_R   0.318450 0.551596 0.349954 -0.198184
C33   C     C_3   0.009176 0.923694 0.474987 -0.270477
C34   C     C_3   0.990858 0.076276 0.525067 -0.271172
C35   C     C_3   0.932805 0.013103 0.408882 0.701619
C36   C     C_3   0.067233 0.986865 0.591171 0.700911
C37   C     C_3   0.877386 0.999774 0.500848 -0.162884
C38   C     C_3   0.122641 0.000196 0.499202 -0.162003
C39   C     C_3   0.952671 0.910267 0.568493 -0.316735
C40   C     C_3   0.047363 0.089703 0.431560 -0.316545
C41   C     C_R   0.458529 0.187303 0.204873 -0.044234
C42   C     C_R   0.522685 0.812675 0.794681 -0.046537
C43   C     C_R   0.410520 0.215529 0.027400 -0.186426
C44   C     C_R   0.524561 0.783448 0.968940 -0.184188
C45   C     C_R   0.425976 0.149259 0.128694 -0.163085
C46   C     C_R   0.533115 0.850289 0.869232 -0.154072
Cu1   Cu    Cu3+1 0.465750 0.918270 0.475680 0.962633
Cu2   Cu    Cu3+1 0.534250 0.081730 0.524320 0.962111
H1    H     H_    0.557586 0.719910 0.551732 0.119124
H2    H     H_    0.442070 0.279934 0.448464 0.118953
H3    H     H_    0.266361 0.862534 0.320313 0.129006
H4    H     H_    0.734158 0.137736 0.679308 0.129860
H5    H     H_    0.794591 0.281566 0.732075 0.145298
H6    H     H_    0.206727 0.719129 0.266908 0.145430
H7    H     H_    0.649223 0.591352 0.630284 0.132064
H8    H     H_    0.352159 0.409325 0.368656 0.129445
H9    H     H_    0.018329 0.862177 0.453200 0.177881
H10   H     H_    0.981712 0.137793 0.546856 0.177507
H11   H     H_    0.911979 0.837630 0.625085 0.165908
H12   H     H_    0.088072 0.162332 0.374966 0.166440
H13   H     H_    0.390925 0.356258 0.840774 0.152757
H14   H     H_    0.500643 0.641818 0.152084 0.154808
H15   H     H_    0.505942 0.682385 0.762850 0.144877
H16   H     H_    0.502687 0.318460 0.239191 0.151297
H17   H     H_    0.546406 0.931060 0.850385 0.163323
H18   H     H_    0.414129 0.068610 0.147266 0.160681
H19   H     H_    0.387721 0.184862 0.969419 0.144485
H20   H     H_    0.533360 0.813868 0.025778 0.143731
H21   H     H_    0.421331 0.534525 0.792209 0.147027
H22   H     H_    0.466866 0.463344 0.200213 0.141313
H23   H     H_    0.759514 0.446717 0.712700 0.147428
H24   H     H_    0.242313 0.554208 0.285882 0.148261
N1    N     N_R   0.585750 0.204560 0.560800 -0.179918
N2    N     N_R   0.414250 0.795440 0.439200 -0.179612
O1    O     O_R   0.454850 0.022100 0.338110 -0.584125
O2    O     O_R   0.545150 0.977900 0.661890 -0.584988
O3    O     O_R   0.512700 0.160150 0.379180 -0.599016
O4    O     O_R   0.487300 0.839850 0.620820 -0.598126
O5    O     O_R   0.287930 0.931000 0.479440 -0.593408
O6    O     O_R   0.712070 0.069000 0.520560 -0.592898
O7    O     O_R   0.345780 0.069050 0.520520 -0.565689
O8    O     O_R   0.654220 0.930950 0.479480 -0.564702
F1    F     F_    0.859517 0.026603 0.314594 -0.661079
F2    F     F_    0.140550 0.973353 0.685455 -0.662774

loop_
_geom_bond_atom_site_label_1
_geom_bond_atom_site_label_2
_ccdc_geom_bond_type
C25   C31   A    
C38   C40   S    
C26   C32   A    
C40   H12   S    
C34   C37   S    
C1    O3    A    
Cu2   O2    S    
Cu1   O5    S    
C32   H24   S    
C3    H16   S    
C4    H15   S    
C33   C39   S    
C34   C40   S    
C15   H5    S    
C28   C29   A    
C35   C37   S    
C36   F2    S    
C15   C25   A    
C14   H14   S    
Cu2   O7    S    
C42   C46   A    
Cu1   O8    S    
C24   O8    A    
C12   H22   S    
C24   O6    A    
C33   H9    S    
C7    C43   A    
C9    C10   A    
C31   H23   S    
C21   C27   A    
C18   N2    A    
C22   C28   A    
C27   C30   A    
C17   N1    A    
C17   H4    S    
C44   C46   A    
C18   H3    S    
C16   C26   A    
C37   C39   S    
C1    O1    A    
C19   N1    A    
C46   H17   S    
C4    C6    A    
C5    C7    A    
C35   F1    S    
C6    C8    A    
C29   H7    S    
C30   H8    S    
Cu2   O3    S    
C43   H19   S    
C5    C9    A    
C20   H1    S    
C2    O4    A    
Cu1   Cu2   S    
C39   H11   S    
C24   C37   S    
C20   N2    A    
C43   C45   A    
C1    C41   S    
C12   C14   A    
C44   H20   S    
C45   H18   S    
C2    O2    A    
C15   C17   A    
C21   C25   A    
C3    C41   A    
C8    C14   A    
C23   O7    A    
C19   C21   A    
Cu2   N1    S    
C36   C39   S    
C8    C44   A    
Cu1   N2    S    
C20   C22   A    
C3    C5    A    
C6    C10   A    
C11   H21   S    
C23   C38   S    
C33   C38   S    
Cu2   O6    S    
C36   C38   S    
C35   C40   S    
Cu1   O1    S    
C29   C31   A    
C30   C32   A    
C11   C13   A    
C19   H2    S    
C4    C42   A    
C2    C42   S    
C33   C35   S    
C34   C36   S    
C9    C12   A    
C16   H6    S    
C10   C11   A    
C7    C13   A    
C13   H13   S    
C16   C18   A    
C22   C26   A    
C27   C28   A    
C34   H10   S    
C41   C45   A    
Cu1   O4    S    
C23   O5    A    
