data_mof_unit_53640.cif
_audit_creation_date              2012-12-11T14:50:40-0500
_audit_creation_method            fapswitch 2.2
_symmetry_space_group_name_H-M    P1
_symmetry_Int_Tables_number       1
_space_group_crystal_system       triclinic
_cell_length_a                    11.003576
_cell_length_b                    11.04201
_cell_length_c                    18.710092
_cell_angle_alpha                 89.882459
_cell_angle_beta                  89.106991
_cell_angle_gamma                 60.165669
_cell_volume                      1971.73701967

loop_
_atom_site_label
_atom_site_type_symbol
_atom_type_description
_atom_site_fract_x
_atom_site_fract_y
_atom_site_fract_z
_atom_type_partial_charge
C1    C     C_R   0.222490 0.653332 0.604972 0.543147
C2    C     C_3   0.587856 0.601797 0.815429 -0.238509
C3    C     C_3   0.688013 0.662248 0.817090 0.009816
C4    C     C_3   0.645073 0.620777 0.684671 0.032592
C5    C     C_3   0.805206 0.553514 0.699677 -0.272163
C6    C     C_3   0.589496 0.550235 0.738401 -0.222914
C7    C     C_R   0.763605 0.192855 0.715538 -0.165715
C8    C     C_R   0.784391 0.174512 0.789361 -0.169184
C9    C     C_R   0.673111 0.196749 0.835152 0.015862
C10   C     C_R   0.537389 0.261632 0.808675 0.103203
C11   C     C_R   0.518996 0.260363 0.735067 0.102688
C12   C     C_R   0.627799 0.589326 0.609332 0.538420
C13   C     C_R   0.630455 0.234449 0.687249 0.009023
C14   C     C_R   0.126945 0.589997 0.709877 -0.135794
C15   C     C_R   0.114100 0.600824 0.784021 -0.117938
C16   C     C_R   0.091502 0.722145 0.819402 0.032075
C17   C     C_R   0.076372 0.834401 0.777953 -0.053924
C18   C     C_R   0.085823 0.823570 0.703262 -0.025566
C19   C     C_R   0.134080 0.692451 0.670636 0.030250
C20   C     C_R   0.787317 0.607491 0.289900 -0.156919
C21   C     C_R   0.796618 0.616706 0.217182 -0.178879
C22   C     C_R   0.675011 0.687176 0.175555 0.006158
C23   C     C_R   0.600828 0.275458 0.611345 0.546873
C24   C     C_R   0.541896 0.759405 0.209062 0.214087
C25   C     C_R   0.534327 0.749537 0.282978 -0.120819
C26   C     C_R   0.656274 0.668554 0.322600 -0.025233
C27   C     C_R   0.598990 0.081352 0.303483 -0.132339
C28   C     C_R   0.608166 0.049135 0.231563 -0.138414
C29   C     C_R   0.680708 0.090566 0.185169 0.027756
C30   C     C_R   0.747844 0.161071 0.211048 -0.135810
C31   C     C_R   0.740640 0.191379 0.282613 -0.147032
C32   C     C_R   0.662081 0.156073 0.328551 0.023842
C33   C     C_R   0.073221 0.798504 0.307208 -0.103318
C34   C     C_R   0.221258 0.648652 0.402242 0.540344
C35   C     C_R   0.046615 0.812551 0.235216 -0.085489
C36   C     C_R   0.103790 0.694232 0.190543 0.054122
C37   C     C_R   0.171453 0.560676 0.219024 -0.143713
C38   C     C_R   0.196514 0.546027 0.291485 -0.133621
C39   C     C_R   0.154850 0.665425 0.334619 0.030270
C40   C     C_R   0.698432 0.111632 0.899803 0.587001
C41   C     C_R   0.719604 0.684543 0.890674 0.554364
C42   C     C_R   0.058405 0.741699 0.896780 0.576465
C43   C     C_R   0.698568 0.048045 0.111339 0.533085
C44   C     C_R   0.699148 0.693541 0.099613 0.572692
C45   C     C_R   0.643138 0.624857 0.393544 0.554230
C46   C     C_R   0.081113 0.715707 0.115302 0.577888
C47   C     C_R   0.620177 0.225119 0.396771 0.555890
C48   C     C_3   0.620619 0.802379 0.774770 -0.039750
C49   C     C_3   0.574537 0.782873 0.700664 0.142754
C50   C     C_3   0.826394 0.556697 0.779046 -0.243386
Cr1   Cr    Cr6+3 0.392930 0.397900 0.502230 1.035947
Cr2   Cr    Cr6+3 0.398240 0.708600 0.501260 1.083856
Cr3   Cr    Cr6+3 0.708800 0.393470 0.496460 1.023007
Cr4   Cr    Cr6+3 0.937620 0.938540 0.007640 1.058895
Cr5   Cr    Cr6+3 0.625150 0.937450 0.994520 1.130140
Cr6   Cr    Cr6+3 0.937990 0.625080 0.001190 1.050548
H1    H     H_    0.665620 0.439153 0.738052 0.111646
H2    H     H_    0.868121 0.450238 0.801979 0.156471
H3    H     H_    0.865820 0.441694 0.683039 0.165291
H4    H     H_    0.850638 0.176068 0.681065 0.153345
H5    H     H_    0.887169 0.138725 0.810443 0.140967
H6    H     H_    0.132879 0.501988 0.682517 0.162058
H7    H     H_    0.115081 0.516106 0.813176 0.173708
H8    H     H_    0.059269 0.929070 0.803310 0.149561
H9    H     H_    0.532612 0.883906 0.806666 0.226437
H10   H     H_    0.078659 0.910485 0.672891 0.183689
H11   H     H_    0.882081 0.546696 0.319997 0.146906
H12   H     H_    0.900979 0.566640 0.193577 0.159291
H13   H     H_    0.432356 0.797526 0.309094 0.197016
H14   H     H_    0.537407 0.054047 0.338756 0.140517
H15   H     H_    0.558162 0.993381 0.212028 0.163320
H16   H     H_    0.805516 0.193762 0.176148 0.150102
H17   H     H_    0.788299 0.251012 0.300799 0.148303
H18   H     H_    0.038391 0.890884 0.340199 0.136264
H19   H     H_    0.987449 0.916487 0.213754 0.132535
H20   H     H_    0.210290 0.468972 0.185120 0.146228
H21   H     H_    0.258878 0.441421 0.312248 0.155412
H22   H     H_    0.611923 0.828638 0.658739 0.135418
H23   H     H_    0.903064 0.588933 0.786905 0.163883
H24   H     H_    0.850079 0.610136 0.670006 0.156921
H25   H     H_    0.622178 0.513216 0.853316 0.130636
H26   H     H_    0.479915 0.682855 0.831640 0.192735
H27   H     H_    0.490839 0.553518 0.723944 0.167425
O1    O     O_R   0.507430 0.255570 0.581420 -0.473750
O2    O     O_R   0.524460 0.695920 0.424060 -0.506364
O3    O     O_R   0.736530 0.504260 0.414810 -0.511849
O4    O     O_R   0.691460 0.277160 0.422180 -0.502619
O5    O     O_3   0.499990 0.499990 0.499980 -0.294903
O6    O     O_R   0.089490 0.825610 0.930610 -0.483431
O7    O     O_R   0.818370 0.054540 0.929880 -0.520503
O8    O     O_R   0.605870 0.077310 0.915530 -0.455145
O9    O     O_R   0.646440 0.806700 0.917570 -0.486237
O10   O     O_R   0.837200 0.593290 0.915250 -0.521680
O11   O     O_R   0.065330 0.635370 0.931590 -0.473113
O12   O     O_R   0.280190 0.527390 0.578910 -0.515521
O13   O     O_R   0.068300 0.828790 0.091860 -0.476323
O14   O     O_R   0.798730 0.057480 0.079370 -0.524297
O15   O     O_R   0.584680 0.080480 0.076790 -0.458736
O16   O     O_R   0.626790 0.809640 0.067050 -0.448197
O17   O     O_R   0.816010 0.596460 0.076500 -0.531130
O18   O     O_R   0.045680 0.638310 0.081070 -0.514637
O19   O     O_3   0.833590 0.833690 0.001120 -0.328299
O20   O     O_R   0.260310 0.739740 0.584580 -0.438357
O21   O     O_R   0.532250 0.695150 0.573830 -0.448158
O22   O     O_R   0.744930 0.503430 0.576380 -0.537266
O23   O     O_R   0.699250 0.276390 0.571950 -0.517968
O24   O     O_R   0.499020 0.256400 0.419850 -0.517473
O25   O     O_R   0.272400 0.528160 0.429140 -0.514194
O26   O     O_R   0.251910 0.740570 0.423020 -0.513154
I1    I     I_    0.754830 0.886392 0.758588 -0.468436
I2    I     I_    0.365405 0.350476 0.883528 -0.272662
I3    I     I_    0.345494 0.242144 0.702930 -0.275488
S1    S     S_3+6 0.383847 0.856264 0.161650 0.004498
O27   O     O_2   0.380551 0.980379 0.126537 -0.282249
O28   O     O_2   0.374055 0.764742 0.105379 -0.244863
O29   O     O_3   0.245551 0.914513 0.218002 -0.557646
H28   H     H_    0.167508 0.992898 0.192740 0.362987
S2    S     S_3+6 0.385476 0.881195 0.696861 -0.000280
O30   O     O_2   0.335647 0.781910 0.712380 -0.319265
O31   O     O_2   0.318696 0.995096 0.752112 -0.265806
O32   O     O_3   0.331108 0.951381 0.615622 -0.466412
H29   H     H_    0.388921 0.994296 0.602890 0.341980

loop_
_geom_bond_atom_site_label_1
_geom_bond_atom_site_label_2
_ccdc_geom_bond_type
C48   I1    S    
Cr2   O20   S    
C11   C13   A    
C20   H11   S    
C35   C36   A    
C43   O15   A    
C50   H23   S    
C7    C8    A    
O29   H28   S    
Cr6   O11   S    
Cr5   O19   S    
C35   H19   S    
C37   C38   A    
C36   C37   A    
Cr6   O18   S    
C12   O21   A    
C17   H8    S    
C30   C31   A    
C44   O16   A    
C31   H17   S    
C16   C17   A    
C15   C16   A    
C14   H6    S    
C3    C48   S    
C49   H22   S    
C13   C23   S    
C18   C19   A    
S2    O30   D    
Cr5   O8    S    
C26   C45   S    
Cr3   O23   S    
C22   C44   S    
C49   S2    S    
Cr1   O25   S    
Cr4   O14   S    
C36   C46   S    
Cr3   O3    S    
C48   H9    S    
C4    C12   S    
C29   C30   A    
C9    C10   A    
C1    O20   A    
Cr4   O13   S    
C8    H5    S    
S1    O29   S    
C27   C32   A    
C24   S1    S    
C21   C22   A    
C29   C43   S    
C6    H1    S    
C2    C6    S    
C3    C50   S    
Cr6   O10   S    
C46   O18   A    
C41   O10   A    
C1    C19   S    
C23   O1    A    
C5    H3    S    
C34   C39   S    
C50   H2    S    
Cr2   O5    S    
C38   C39   A    
C24   C25   A    
Cr4   O6    S    
C4    C6    S    
C8    C9    A    
C25   C26   A    
C23   O23   A    
C9    C40   S    
S2    O32   S    
C47   O4    A    
C45   O2    A    
Cr5   O9    S    
C31   C32   A    
C1    O12   A    
C17   C18   A    
C10   I2    S    
Cr3   O4    S    
C33   C39   A    
C5    H24   S    
O32   H29   S    
C27   H14   S    
C48   C49   S    
C37   H20   S    
C47   O24   A    
C21   H12   S    
C32   C47   S    
C22   C24   A    
C5    C50   S    
C2    H26   S    
C28   H15   S    
C25   H13   S    
Cr6   O17   S    
C28   C29   A    
C16   C42   S    
C7    H4    S    
S1    O27   D    
Cr2   O2    S    
C6    H27   S    
C11   I3    S    
C42   O11   A    
C14   C19   A    
Cr4   O19   S    
C43   O14   A    
C4    C5    S    
Cr1   O5    S    
C30   H16   S    
Cr4   O7    S    
C38   H21   S    
C18   H10   S    
C4    C49   S    
C42   O6    A    
C34   O25   A    
C2    C3    S    
Cr6   O19   S    
C44   O17   A    
C12   O22   A    
C20   C26   A    
Cr2   O26   S    
Cr5   O15   S    
C33   C35   A    
Cr2   O21   S    
C45   O3    A    
Cr3   O5    S    
C40   O8    A    
S2    O31   D    
C3    C41   S    
C10   C11   A    
Cr3   O22   S    
C33   H18   S    
C7    C13   A    
C41   O9    A    
C46   O13   A    
C20   C21   A    
Cr1   O24   S    
Cr5   O16   S    
C27   C28   A    
C34   O26   A    
C15   H7    S    
C14   C15   A    
C2    H25   S    
C40   O7    A    
Cr1   O1    S    
Cr1   O12   S    
S1    O28   D    
