data_mof_unit_46239.cif
_audit_creation_date              2012-12-11T17:45:29-0500
_audit_creation_method            fapswitch 2.2
_symmetry_space_group_name_H-M    P1
_symmetry_Int_Tables_number       1
_space_group_crystal_system       triclinic
_cell_length_a                    15.213554
_cell_length_b                    15.029875
_cell_length_c                    15.150886
_cell_angle_alpha                 109.799702
_cell_angle_beta                  109.046785
_cell_angle_gamma                 108.680649
_cell_volume                      2695.45376524

loop_
_atom_site_label
_atom_site_type_symbol
_atom_type_description
_atom_site_fract_x
_atom_site_fract_y
_atom_site_fract_z
_atom_type_partial_charge
C1    C     C_R   0.906819 0.194372 0.990378 -0.153290
C2    C     C_R   0.688396 0.239571 0.775840 -0.130964
C3    C     C_R   0.787489 0.589951 0.089628 -0.172809
C4    C     C_R   0.299756 0.799253 0.215467 0.185274
C5    C     C_R   0.004850 0.409563 0.701719 -0.143920
C6    C     C_R   0.693909 0.499723 0.053815 0.017574
C7    C     C_R   0.064754 0.499084 0.698265 0.075097
C8    C     C_R   0.681607 0.209063 0.674480 0.061071
C9    C     C_R   0.949443 0.775472 0.949963 0.054432
C10   C     C_R   0.723621 0.251347 0.199003 -0.121486
C11   C     C_R   0.819531 0.328229 0.293322 -0.134378
C12   C     C_R   0.307273 0.845857 0.316973 0.058447
C13   C     C_R   0.904627 0.306254 0.322591 0.095913
C14   C     C_R   0.891191 0.204726 0.259211 -0.220454
C15   C     C_R   0.794756 0.128301 0.164987 -0.107841
C16   C     C_R   0.224260 0.408991 0.970270 -0.139611
C17   C     C_R   0.711828 0.152018 0.134214 -0.105863
C18   C     C_R   0.026159 0.395705 0.513135 -0.256592
C19   C     C_R   0.088097 0.494521 0.609422 0.068083
C20   C     C_R   0.153421 0.586360 0.609204 0.046238
C21   C     C_R   0.152118 0.577270 0.514408 -0.256588
C22   C     C_R   0.072836 0.485073 0.416945 0.071071
C23   C     C_R   0.324501 0.500573 0.039215 0.008974
C24   C     C_R   0.008455 0.392788 0.416537 0.028918
C25   C     C_R   0.142156 0.747094 0.705858 -0.206404
C26   C     C_R   0.184019 0.844389 0.797572 -0.168839
C27   C     C_R   0.286972 0.891589 0.880978 -0.175828
C28   C     C_R   0.058232 0.587439 0.312760 -0.131865
C29   C     C_R   0.350692 0.843295 0.870360 0.278966
C30   C     C_R   0.309625 0.746530 0.776329 -0.215112
C31   C     C_R   0.204012 0.696324 0.696931 0.078162
C32   C     C_R   0.179093 0.029958 0.553085 -0.102316
C33   C     C_R   0.260929 0.054500 0.528049 -0.170226
C34   C     C_R   0.044989 0.494021 0.319551 0.041425
C35   C     C_R   0.313193 0.992989 0.524005 0.133666
C36   C     C_R   0.290486 0.914566 0.555677 -0.177523
C37   C     C_R   0.204190 0.885780 0.573504 -0.178918
C38   C     C_R   0.147948 0.942826 0.571893 -0.063241
C39   C     C_R   0.490505 0.112806 0.571332 -0.254033
C40   C     C_R   0.311706 0.591145 0.062005 -0.178959
C41   C     C_R   0.586330 0.126309 0.574145 0.062178
C42   C     C_R   0.588318 0.044159 0.495444 0.025533
C43   C     C_R   0.496244 0.949766 0.419687 -0.234964
C44   C     C_R   0.400412 0.937793 0.414248 0.062655
C45   C     C_R   0.698748 0.409379 0.998543 -0.139151
C46   C     C_R   0.398430 0.016114 0.496586 0.026639
C47   C     C_R   0.702951 0.117510 0.428200 -0.179900
C48   C     C_R   0.786756 0.129043 0.407375 -0.111775
C49   C     C_R   0.844999 0.077373 0.431369 -0.117068
C50   C     C_R   0.815433 0.009137 0.472214 -0.152139
C51   C     C_R   0.733100 0.999636 0.496688 -0.145400
C52   C     C_R   0.980921 0.407413 0.216887 -0.105611
C53   C     C_R   0.678923 0.056718 0.477337 0.122077
C54   C     C_3   0.508339 0.438446 0.936158 -0.448749
C55   C     C_3   0.407052 0.442953 0.929790 0.078992
C56   C     C_R   0.096037 0.588920 0.792800 -0.157472
C57   C     C_3   0.559560 0.442454 0.113954 -0.409979
C58   C     C_3   0.617048 0.616413 0.108909 -0.403928
C59   C     C_3   0.597086 0.499137 0.054724 0.360146
C60   C     C_3   0.424430 0.502160 0.046901 0.301585
C61   C     C_3   0.458722 0.447371 0.112252 -0.429880
C62   C     C_3   0.517508 0.619079 0.107369 -0.430557
C63   C     C_R   0.052916 0.082354 0.690883 -0.218045
C64   C     C_R   0.211767 0.787778 0.307524 -0.218156
C65   C     C_R   0.982459 0.014321 0.709282 -0.177378
C66   C     C_R   0.022245 0.006822 0.802449 0.094196
C67   C     C_R   0.782925 0.247965 0.688001 -0.134894
C68   C     C_R   0.132740 0.055108 0.867960 -0.284185
C69   C     C_R   0.203258 0.111420 0.841202 0.323638
C70   C     C_R   0.162637 0.131986 0.757620 -0.155759
C71   C     C_R   0.941568 0.866146 0.841024 -0.252407
C72   C     C_R   0.908894 0.838888 0.908995 0.062863
C73   C     C_R   0.854043 0.888150 0.948148 0.049679
C74   C     C_R   0.839920 0.964615 0.922901 -0.245093
C75   C     C_R   0.905298 0.016249 0.889711 0.058609
C76   C     C_R   0.003369 0.200870 0.907702 -0.146806
C77   C     C_R   0.950430 0.960770 0.839538 0.047977
C78   C     C_R   0.927973 0.740357 0.018344 -0.134593
C79   C     C_R   0.732975 0.844632 0.022923 -0.203190
C80   C     C_R   0.718681 0.849274 0.110311 -0.160257
C81   C     C_R   0.804635 0.889010 0.209022 -0.173901
C82   C     C_R   0.907791 0.933940 0.224456 0.269066
C83   C     C_R   0.923612 0.940085 0.140367 -0.202716
C84   C     C_R   0.836089 0.888188 0.037472 0.070186
C85   C     C_R   0.939350 0.132810 0.929197 0.074257
C86   C     C_3   0.354034 0.858678 0.169970 -0.389448
C87   C     C_3   0.345464 0.961339 0.188869 -0.875804
C88   C     C_3   0.457080 0.887173 0.963288 -0.348929
C89   C     C_R   0.027747 0.751478 0.937702 -0.131046
C90   C     C_3   0.457519 0.803043 0.997746 -0.986121
C91   C     C_3   0.372382 0.493439 0.859196 -0.340766
C92   C     C_3   0.320905 0.414600 0.739206 -0.948854
C93   C     C_3   0.321119 0.153065 0.903826 -0.458559
C94   C     C_3   0.365268 0.105993 0.834116 -0.872064
C95   C     C_3   0.998939 0.961170 0.324337 -0.429137
C96   C     C_3   0.041532 0.882192 0.297501 -0.849249
H1    H     H_    0.846387 0.165719 0.011337 0.104498
H2    H     H_    0.828965 0.406170 0.341881 0.111303
H3    H     H_    0.955830 0.186488 0.280933 0.125556
H4    H     H_    0.785092 0.051796 0.114425 0.141701
H5    H     H_    0.975064 0.323910 0.508974 0.126154
H6    H     H_    0.201722 0.648338 0.515385 0.125907
H7    H     H_    0.060120 0.708578 0.644283 0.127192
H8    H     H_    0.134251 0.879587 0.805327 0.144813
H9    H     H_    0.316070 0.964402 0.954122 0.114366
H10   H     H_    0.356689 0.706296 0.768841 0.134864
H11   H     H_    0.079737 0.918276 0.583773 0.129106
H12   H     H_    0.159615 0.669240 0.831129 0.137897
H13   H     H_    0.206600 0.325691 0.934507 0.096222
H14   H     H_    0.136395 0.075046 0.551770 0.104054
H15   H     H_    0.281339 0.118882 0.508911 0.115120
H16   H     H_    0.333818 0.869754 0.557535 0.121118
H17   H     H_    0.179841 0.817765 0.585825 0.140726
H18   H     H_    0.489108 0.173255 0.634476 0.127517
H19   H     H_    0.499358 0.885859 0.361958 0.120801
H20   H     H_    0.658312 0.157951 0.408479 0.122758
H21   H     H_    0.805242 0.178317 0.372705 0.148942
H22   H     H_    0.855471 0.962921 0.483734 0.102246
H23   H     H_    0.809067 0.243849 0.629847 0.124779
H24   H     H_    0.101115 0.669073 0.378506 0.099070
H25   H     H_    0.710933 0.947609 0.529372 0.106638
H26   H     H_    0.489008 0.352264 0.896437 0.147887
H27   H     H_    0.537763 0.473976 0.891210 0.172986
H28   H     H_    0.342517 0.358726 0.888468 0.113631
H29   H     H_    0.542132 0.356957 0.075224 0.153927
H30   H     H_    0.682764 0.663622 0.193542 0.158788
H31   H     H_    0.639280 0.653482 0.062388 0.170224
H32   H     H_    0.498472 0.665077 0.067500 0.159039
H33   H     H_    0.371809 0.674969 0.110770 0.103116
H34   H     H_    0.864571 0.734663 0.036448 0.130223
H35   H     H_    0.533294 0.662956 0.191298 0.164486
H36   H     H_    0.623700 0.483247 0.198514 0.160633
H37   H     H_    0.476912 0.495234 0.196365 0.172665
H38   H     H_    0.216096 0.183653 0.741936 0.119055
H39   H     H_    0.023299 0.098102 0.625931 0.131375
H40   H     H_    0.897625 0.978140 0.659044 0.123308
H41   H     H_    0.163375 0.047981 0.939189 0.121078
H42   H     H_    0.974535 0.823628 0.801339 0.120845
H43   H     H_    0.795395 0.998360 0.951280 0.118164
H44   H     H_    0.963438 0.325102 0.190400 0.127647
H45   H     H_    0.063447 0.765024 0.889428 0.110047
H46   H     H_    0.640976 0.815040 0.100996 0.142542
H47   H     H_    0.789882 0.880184 0.271471 0.123549
H48   H     H_    0.003630 0.975939 0.152241 0.133937
H49   H     H_    0.182243 0.806337 0.361732 0.140443
H50   H     H_    0.036170 0.185124 0.856445 0.139736
H51   H     H_    0.643539 0.326019 0.968174 0.088667
H52   H     H_    0.813455 0.672837 0.143667 0.108275
H53   H     H_    0.260850 0.942145 0.156704 0.256437
H54   H     H_    0.390696 0.021880 0.275768 0.260692
H55   H     H_    0.379233 0.997565 0.146947 0.239864
H56   H     H_    0.624525 0.218421 0.794542 0.097623
H57   H     H_    0.438517 0.878534 0.203307 0.187355
H58   H     H_    0.313237 0.805186 0.081868 0.202432
H59   H     H_    0.376790 0.745550 0.976291 0.256545
H60   H     H_    0.487359 0.754608 0.955674 0.247023
H61   H     H_    0.508159 0.844266 0.085999 0.257346
H62   H     H_    0.519255 0.908160 0.939414 0.176235
H63   H     H_    0.476025 0.961657 0.032496 0.185219
H64   H     H_    0.911000 0.088298 0.415738 0.102986
H65   H     H_    0.375790 0.387375 0.721092 0.262112
H66   H     H_    0.246475 0.343098 0.713078 0.253929
H67   H     H_    0.982736 0.326406 0.652617 0.100415
H68   H     H_    0.300617 0.455163 0.692672 0.262562
H69   H     H_    0.313487 0.517232 0.870845 0.208249
H70   H     H_    0.441876 0.567670 0.881435 0.192420
H71   H     H_    0.393230 0.366343 0.080960 0.144144
H72   H     H_    0.321431 0.016751 0.791450 0.289009
H73   H     H_    0.359821 0.134004 0.774464 0.261328
H74   H     H_    0.450312 0.133553 0.885656 0.231712
H75   H     H_    0.362653 0.240626 0.937223 0.189670
H76   H     H_    0.340591 0.136566 0.971876 0.188645
H77   H     H_    0.664588 0.808192 0.944932 0.127415
H78   H     H_    0.638905 0.094148 0.059545 0.093063
H79   H     H_    0.979955 0.803568 0.225837 0.246896
H80   H     H_    0.109269 0.916504 0.284229 0.257750
H81   H     H_    0.065709 0.863087 0.362413 0.253175
H82   H     H_    0.062464 0.045565 0.361621 0.184505
H83   H     H_    0.972640 0.955008 0.383401 0.179493
H84   H     H_    0.659198 0.269478 0.175170 0.102613
N1    N     N_R   0.947080 0.293830 0.002870 -0.042983
N2    N     N_R   0.153670 0.443180 0.946090 -0.033711
N3    N     N_R   0.002360 0.556820 0.208890 -0.037858
N4    N     N_R   0.210070 0.556820 0.002870 -0.042136
N5    N     N_R   0.945960 0.443180 0.152110 -0.042293
N6    N     N_R   0.151710 0.706170 0.208890 -0.043689
N7    N     N_R   0.004320 0.293830 0.946090 -0.041789
N8    N     N_R   0.789930 0.443180 0.997130 -0.032031
N9    N     N_R   0.054040 0.556820 0.847890 -0.043051
N10   N     N_R   0.848290 0.293830 0.791110 -0.041565
N11   N     N_R   0.995680 0.706170 0.053910 -0.044128
N12   N     N_R   0.052920 0.706170 0.997130 -0.038952
N13   N     N_R   0.791050 0.293830 0.847890 -0.040653
N14   N     N_R   0.846330 0.556820 0.053910 -0.036960
N15   N     N_R   0.997640 0.443180 0.791110 -0.039869
N16   N     N_R   0.208950 0.706170 0.152110 -0.062538
Ni1   Ni    Ni4+2 0.869690 0.369690 0.000000 0.215974
Ni2   Ni    Ni4+2 0.130310 0.630310 0.000000 0.200145
Ni3   Ni    Ni4+2 0.000970 0.369690 0.869780 0.215502
Ni4   Ni    Ni4+2 0.999030 0.630310 0.130220 0.201509

loop_
_geom_bond_atom_site_label_1
_geom_bond_atom_site_label_2
_ccdc_geom_bond_type
C92   H65   S    
C25   C31   A    
C66   C68   A    
C54   H27   S    
C63   C65   A    
C93   H76   S    
C58   C62   S    
C93   C94   S    
C96   H79   S    
C64   H49   S    
C27   C29   A    
C41   C42   A    
C79   H77   S    
C91   H70   S    
C95   C96   S    
C9    C72   S    
N5    Ni1   S    
C15   H4    S    
C40   H33   S    
C3    C6    A    
N1    Ni1   S    
C45   H51   S    
C81   C82   A    
N1    N7    A    
C67   N10   A    
C61   H37   S    
C14   H3    S    
C39   C41   A    
C26   C27   A    
C29   C30   A    
C32   H14   S    
N13   Ni1   S    
C11   H2    S    
C18   C24   A    
C5    H67   S    
N6    N16   A    
C36   C37   A    
C6    C45   A    
C28   N3    A    
C69   C93   S    
C32   C38   A    
N3    N5    A    
C42   C53   S    
C57   H29   S    
C83   H48   S    
C12   C64   A    
C16   N2    A    
C57   C59   S    
C37   H17   S    
C27   H9    S    
C10   C17   A    
C23   C40   A    
C60   C62   S    
C18   C19   A    
C73   C74   A    
C88   H63   S    
C38   H11   S    
C4    N16   A    
C56   H12   S    
C29   C88   S    
C55   C91   S    
C57   H36   S    
N10   N13   A    
C43   H19   S    
C54   C55   S    
C75   C85   S    
N14   Ni4   S    
C35   C36   A    
C68   C69   A    
C87   H54   S    
C36   H16   S    
C49   H64   S    
C33   H15   S    
N12   Ni2   S    
C96   H81   S    
C4    C12   A    
C73   C84   S    
C47   C53   A    
C90   H60   S    
C26   H8    S    
C92   H68   S    
C54   H26   S    
N8    N14   A    
C58   H31   S    
C87   H55   S    
C21   C22   A    
C30   H10   S    
C2    H56   S    
N6    Ni4   S    
C68   H41   S    
C23   C60   S    
C7    C56   A    
C62   H35   S    
C44   C46   A    
N10   Ni3   S    
C71   H42   S    
N15   Ni3   S    
C54   C59   S    
C1    C85   A    
C47   H20   S    
C22   C34   S    
C3    N14   A    
C74   C75   A    
N2    Ni3   S    
N11   N12   A    
C8    C41   S    
C72   C73   A    
N16   Ni2   S    
C28   H24   S    
C94   H72   S    
C91   C92   S    
C5    C7    A    
C1    N1    A    
C86   C87   S    
C25   H7    S    
C25   C26   A    
C82   C83   A    
N9    Ni2   S    
C13   C24   S    
N7    Ni3   S    
C60   C61   S    
C61   H71   S    
C18   H5    S    
C63   H39   S    
C43   C44   A    
C37   C38   A    
C75   C77   A    
N9    N15   A    
C95   H82   S    
C47   C48   A    
C63   C70   A    
C1    H1    S    
C30   C31   A    
C39   H18   S    
C50   C51   A    
N11   Ni4   S    
C57   C61   S    
C16   H13   S    
C76   N7    A    
C39   C46   A    
C21   H6    S    
C95   H83   S    
C48   C49   A    
C88   C90   S    
C49   C50   A    
C16   C23   A    
C7    C19   S    
C87   H53   S    
C51   H25   S    
C13   C14   A    
C22   C24   A    
C83   C84   A    
C42   C43   A    
C9    C89   A    
C71   C77   A    
C17   H78   S    
C70   H38   S    
C92   H66   S    
C15   C17   A    
C66   C77   S    
C56   N9    A    
C93   H75   S    
C80   H46   S    
C82   C95   S    
C96   H80   S    
N2    N4    A    
C50   H22   S    
C34   C52   A    
C6    C59   S    
C86   H57   S    
C2    C8    A    
C78   N11   A    
C80   C81   A    
C45   N8    A    
C58   H30   S    
C48   H21   S    
C74   H43   S    
C35   C46   S    
N4    Ni2   S    
N3    Ni4   S    
C5    N15   A    
C2    N13   A    
C10   H84   S    
C32   C33   A    
C19   C20   A    
C78   H34   S    
C71   C72   A    
C94   H73   S    
C94   H74   S    
C62   H32   S    
C11   C13   A    
C33   C35   A    
C79   C84   A    
N8    Ni1   S    
C90   H61   S    
C89   H45   S    
C52   H44   S    
C89   N12   A    
C9    C78   A    
C86   H58   S    
C69   C70   A    
C58   C59   S    
C65   H40   S    
C10   C11   A    
C28   C34   A    
C79   C80   A    
C55   H28   S    
C91   H69   S    
C81   H47   S    
C4    C86   S    
C20   C21   A    
C8    C67   A    
C12   C44   S    
C65   C66   A    
C52   N5    A    
C76   H50   S    
C14   C15   A    
C88   H62   S    
C51   C53   A    
C90   H59   S    
C55   C60   S    
C3    H52   S    
C67   H23   S    
C76   C85   A    
C64   N6    A    
C40   N4    A    
C20   C31   S    
