data_mof_unit_68583.cif
_audit_creation_date              2012-12-10T20:36:32-0500
_audit_creation_method            fapswitch 2.2
_symmetry_space_group_name_H-M    P1
_symmetry_Int_Tables_number       1
_space_group_crystal_system       triclinic
_cell_length_a                    10.53102
_cell_length_b                    10.71868
_cell_length_c                    9.897754
_cell_angle_alpha                 89.818383
_cell_angle_beta                  88.678194
_cell_angle_gamma                 90.924189
_cell_volume                      1116.79533756

loop_
_atom_site_label
_atom_site_type_symbol
_atom_type_description
_atom_site_fract_x
_atom_site_fract_y
_atom_site_fract_z
_atom_type_partial_charge
C1    C     C_R   0.502627 0.260120 0.499864 0.943012
C2    C     C_3   0.964247 0.523360 0.370111 -0.367638
C3    C     C_3   0.042897 0.408377 0.411567 -0.335747
C4    C     C_3   0.123254 0.494591 0.501836 -0.174202
C5    C     C_R   0.502862 0.062902 0.620838 -0.101157
C6    C     C_R   0.518441 0.128554 0.499490 -0.153686
C7    C     C_R   0.554164 0.064625 0.380073 0.444508
C8    C     C_R   0.550432 0.935640 0.381161 -0.310603
C9    C     C_R   0.518007 0.871366 0.500378 -0.166242
C10   C     C_R   0.504915 0.935330 0.621336 -0.059193
C11   C     C_3   0.399905 0.926083 0.726961 0.330043
C12   C     C_R   0.257708 0.496623 0.501071 0.955048
C13   C     C_3   0.400470 0.068421 0.728870 0.318943
C14   C     C_R   0.389231 0.486137 0.074186 0.128636
C15   C     C_R   0.607605 0.528257 0.068291 0.532558
C16   C     C_R   0.607644 0.525665 0.924610 -0.236241
C17   C     C_R   0.389004 0.487055 0.931908 0.229242
C18   C     C_3   0.299694 0.378141 0.930112 -0.499062
C19   C     C_3   0.299930 0.377492 0.083292 -0.505111
C20   C     C_R   0.502409 0.739774 0.499824 0.913335
C21   C     C_R   0.742562 0.501444 0.498594 0.944042
C22   C     C_3   0.035985 0.470027 0.626585 -0.342798
C23   C     C_3   0.953830 0.386885 0.535887 0.510557
C24   C     C_3   0.877490 0.500391 0.495752 -0.144869
C25   C     C_3   0.960697 0.584313 0.582717 0.422539
C26   C     C_3   0.047520 0.607696 0.459224 0.421104
H1    H     H_    0.436067 0.112394 0.822649 0.099044
H2    H     H_    0.695086 0.544427 0.868286 0.204759
H3    H     H_    0.206222 0.402424 0.889414 0.197540
H4    H     H_    0.344757 0.295600 0.884175 0.229782
H5    H     H_    0.206903 0.402982 0.129804 0.202206
H6    H     H_    0.344026 0.293240 0.126839 0.238700
H7    H     H_    0.065051 0.447562 0.730359 0.158995
H8    H     H_    0.933678 0.541067 0.265710 0.212558
H9    H     H_    0.083296 0.337258 0.342326 0.151347
H10   H     H_    0.565349 0.887606 0.286826 0.171312
H11   H     H_    0.311892 0.883991 0.685206 0.111876
N1    N     N_R   0.499140 0.499140 0.142800 -0.147349
N2    N     N_R   0.499140 0.499180 0.857150 -0.130586
O1    O     O_R   0.500020 0.316790 0.614690 -0.606824
O2    O     O_R   0.500000 0.316760 0.385350 -0.591078
O3    O     O_R   0.313960 0.499990 0.614650 -0.624731
O4    O     O_R   0.313940 0.499950 0.385310 -0.632126
O5    O     O_R   0.500000 0.683240 0.614650 -0.599500
O6    O     O_R   0.499980 0.683210 0.385310 -0.638476
O7    O     O_R   0.686060 0.500050 0.614690 -0.603958
O8    O     O_R   0.686040 0.500010 0.385350 -0.577531
Zn1   Zn    Zn3+2 0.500010 0.500020 0.653130 0.987077
Zn2   Zn    Zn3+2 0.499990 0.499980 0.346870 0.983567
O9    O     O_3   0.892275 0.275829 0.581674 -0.615691
C27   C     C_3   0.948046 0.171317 0.519529 0.064398
H12   H     H_    0.051501 0.168156 0.539233 0.188029
H13   H     H_    0.934192 0.173446 0.408597 0.121418
C28   C     C_3   0.884784 0.052857 0.575250 -0.826773
H14   H     H_    0.781257 0.054303 0.557464 0.253834
H15   H     H_    0.925353 0.970399 0.523378 0.231253
H16   H     H_    0.900325 0.045081 0.685505 0.252308
O10   O     O_3   0.427713 0.871757 0.854472 -0.614845
C29   C     C_3   0.557267 0.879365 0.888352 -0.283494
H17   H     H_    0.598226 0.974804 0.874788 0.143161
H18   H     H_    0.613367 0.810892 0.828928 0.201288
H19   H     H_    0.564693 0.855476 0.996754 0.174107
O11   O     O_3   0.287905 0.120568 0.679956 -0.619317
C30   C     C_3   0.188455 0.105866 0.777382 -0.370066
H20   H     H_    0.220642 0.103820 0.883873 0.166935
H21   H     H_    0.133828 0.019142 0.756467 0.177527
H22   H     H_    0.123247 0.185553 0.768619 0.210006
O12   O     O_3   0.719139 0.555601 0.132319 -0.590089
C31   C     C_3   0.735369 0.686223 0.132501 -0.350447
H23   H     H_    0.819470 0.711604 0.192018 0.176432
H24   H     H_    0.652669 0.731740 0.180826 0.176747
H25   H     H_    0.750869 0.723129 0.028497 0.148713
O13   O     O_3   0.912215 0.674965 0.672356 -0.612722
C32   C     C_3   0.013929 0.743636 0.728629 0.164328
H26   H     H_    0.038711 0.824479 0.662353 0.179909
H27   H     H_    0.101195 0.687718 0.742349 0.143098
C33   C     C_3   0.973694 0.791888 0.866954 -0.928134
H28   H     H_    0.956868 0.711813 0.936772 0.263059
H29   H     H_    0.050263 0.851917 0.908394 0.216772
H30   H     H_    0.885821 0.847201 0.859489 0.255076
O14   O     O_3   0.102755 0.726132 0.430145 -0.646179
C34   C     C_3   0.127947 0.738674 0.290215 0.095701
H31   H     H_    0.037662 0.745466 0.235048 0.132595
H32   H     H_    0.183569 0.659021 0.249840 0.172863
C35   C     C_3   0.204433 0.858194 0.264172 -0.795805
H33   H     H_    0.295616 0.854472 0.317719 0.265937
H34   H     H_    0.224723 0.869295 0.154125 0.220956
H35   H     H_    0.150165 0.939907 0.300885 0.245062
O15   O     O_3   0.576221 0.124964 0.257926 -0.596636
C36   C     C_3   0.707519 0.151547 0.243811 0.095137
H36   H     H_    0.765684 0.067371 0.262570 0.119276
H37   H     H_    0.735060 0.227106 0.314762 0.170994
C37   C     C_3   0.737067 0.196116 0.100369 -0.771636
H38   H     H_    0.677267 0.276925 0.075784 0.267610
H39   H     H_    0.838709 0.224659 0.090383 0.204710
H40   H     H_    0.717653 0.119809 0.027769 0.228971

loop_
_geom_bond_atom_site_label_1
_geom_bond_atom_site_label_2
_ccdc_geom_bond_type
C16   H2    S    
C37   H38   S    
O13   C32   S    
C3    C23   S    
C19   H5    S    
O14   C34   S    
C7    C8    A    
O8    Zn2   S    
N1    Zn2   S    
C33   H28   S    
C32   H27   S    
C12   O4    A    
C17   N2    A    
C5    C6    A    
C33   H30   S    
C15   C16   A    
C7    O15   S    
C11   H11   S    
C18   C19   S    
C8    H10   S    
C31   H24   S    
C12   O3    A    
C1    O1    A    
O12   C31   S    
C8    C9    A    
C32   C33   S    
C23   C24   S    
C18   H4    S    
O6    Zn2   S    
C4    C12   S    
C11   O10   S    
C9    C10   A    
C5    C13   S    
C20   O6    A    
C2    H8    S    
C33   H29   S    
C29   H17   S    
C37   H39   S    
C14   C17   A    
C19   H6    S    
O2    Zn2   S    
C20   O5    A    
O9    C27   S    
C28   H15   S    
C35   H34   S    
O7    Zn1   S    
C29   H18   S    
C32   H26   S    
C1    C6    S    
C30   H22   S    
C24   C25   S    
O4    Zn2   S    
C23   O9    S    
O10   C29   S    
C35   H33   S    
C22   C25   S    
C27   H12   S    
C27   H13   S    
C30   H21   S    
C31   H25   S    
C15   N1    A    
C14   N1    A    
C4    C22   S    
C9    C20   S    
C36   H37   S    
C13   O11   S    
C3    H9    S    
C17   C18   S    
C2    C26   S    
C18   H3    S    
O3    Zn1   S    
C1    O2    A    
C37   H40   S    
C34   H32   S    
C2    C24   S    
C3    C4    S    
C36   C37   S    
C21   O7    A    
C35   H35   S    
O1    Zn1   S    
C22   H7    S    
C28   H14   S    
C29   H19   S    
C14   C19   S    
C4    C26   S    
C6    C7    A    
C26   O14   S    
C34   C35   S    
C27   C28   S    
C30   H20   S    
C2    C3    S    
C25   C26   S    
C5    C10   A    
C11   C13   S    
C36   H36   S    
C15   O12   S    
C25   O13   S    
C31   H23   S    
C10   C11   S    
C16   N2    A    
O11   C30   S    
C34   H31   S    
C21   C24   S    
C22   C23   S    
C13   H1    S    
O15   C36   S    
O5    Zn1   S    
N2    Zn1   S    
C21   O8    A    
C28   H16   S    
