data_mof_unit_61687.cif
_audit_creation_date              2012-10-26T18:14:28-0400
_audit_creation_method            fapswitch 2.2
_symmetry_space_group_name_H-M    P1
_symmetry_Int_Tables_number       1
_space_group_crystal_system       triclinic
_cell_length_a                    27.715142
_cell_length_b                    27.737528
_cell_length_c                    27.736055
_cell_angle_alpha                 109.434679
_cell_angle_beta                  109.493794
_cell_angle_gamma                 109.418147
_cell_volume                      16427.3047433

loop_
_atom_site_label
_atom_site_type_symbol
_atom_type_description
_atom_site_fract_x
_atom_site_fract_y
_atom_site_fract_z
_atom_type_partial_charge
C1    C     C_R   0.919873 0.919872 0.500005 0.554878
C2    C     C_3   0.797674 0.735418 0.484496 -0.213131
C3    C     C_3   0.749198 0.686918 0.484471 -0.213594
C4    C     C_R   0.919793 0.999976 0.419774 0.555041
C5    C     C_1   0.624978 0.624870 0.499896 -0.035495
C6    C     C_3   0.791259 0.791233 0.499986 0.069488
C7    C     C_3   0.747659 0.765234 0.561526 -0.213584
C8    C     C_3   0.708736 0.708670 0.499939 0.069656
C9    C     C_3   0.680418 0.724953 0.453848 -0.212806
C10   C     C_3   0.728896 0.773458 0.453880 -0.213704
C11   C     C_1   0.662663 0.662574 0.499913 -0.078114
C12   C     C_3   0.791482 0.999953 0.291428 0.051762
C13   C     C_1   0.837332 0.837324 0.500006 -0.077756
C14   C     C_1   0.875017 0.875016 0.500011 -0.034865
C15   C     C_3   0.248677 0.061867 0.765328 -0.213225
C16   C     C_R   0.080129 0.080126 0.499997 0.554930
C17   C     C_3   0.248866 0.983524 0.686939 -0.212850
C18   C     C_3   0.297403 0.983520 0.735455 -0.214005
C19   C     C_1   0.375596 0.000005 0.875546 -0.032403
C20   C     C_3   0.209068 0.000039 0.709085 0.069416
C21   C     C_3   0.297210 0.061857 0.813846 -0.213545
C22   C     C_3   0.291711 0.000025 0.791694 0.068814
C23   C     C_3   0.770747 0.053870 0.255948 -0.100603
C24   C     C_3   0.229358 0.954707 0.774640 -0.212347
C25   C     C_3   0.180822 0.954719 0.726129 -0.214155
C26   C     C_1   0.337857 0.000016 0.837821 -0.076217
C27   C     C_1   0.162922 0.000045 0.662954 -0.077945
C28   C     C_R   0.080252 0.000023 0.580271 0.554340
C29   C     C_1   0.125182 0.000041 0.625216 -0.035464
C30   C     C_3   0.201961 0.264268 0.514752 -0.213065
C31   C     C_3   0.204240 0.185891 0.438535 -0.212755
C32   C     C_3   0.252716 0.234344 0.438512 -0.213205
C33   C     C_1   0.375026 0.374894 0.499878 -0.034727
C34   C     C_3   0.709273 0.999963 0.209216 0.051796
C35   C     C_3   0.208743 0.208678 0.499933 0.069094
C36   C     C_3   0.250441 0.312721 0.514735 -0.213739
C37   C     C_3   0.291267 0.291156 0.499896 0.069056
C38   C     C_3   0.319574 0.275359 0.546461 -0.212886
C39   C     C_3   0.271096 0.226911 0.546486 -0.214063
C40   C     C_3   0.702255 0.985748 0.256314 -0.100091
C41   C     C_1   0.337341 0.337213 0.499883 -0.077591
C42   C     C_1   0.162672 0.162635 0.499961 -0.077530
C43   C     C_1   0.124987 0.124971 0.499984 -0.034561
C44   C     C_R   0.500633 0.080074 0.080691 0.556004
C45   C     C_3   0.798501 0.014168 0.244330 -0.099843
C46   C     C_R   0.580970 0.999994 0.080917 0.553242
C47   C     C_R   0.500869 0.919877 0.920675 0.552804
C48   C     C_R   0.420521 0.999990 0.920462 0.554327
C49   C     C_R   0.499830 0.579924 0.579899 0.554461
C50   C     C_R   0.580121 0.579996 0.499883 0.554561
C51   C     C_R   0.500189 0.419871 0.419882 0.554785
C52   C     C_3   0.730008 0.946046 0.244696 -0.099854
C53   C     C_R   0.419879 0.419752 0.499872 0.555042
C54   C     C_3   0.437495 0.184950 0.204555 -0.062648
C55   C     C_3   0.513439 0.262958 0.201512 -0.234028
C56   C     C_3   0.736323 0.960261 0.196894 -0.099553
C57   C     C_3   0.513555 0.311617 0.249881 -0.219495
C58   C     C_1   0.500126 0.374940 0.375095 -0.033602
C59   C     C_3   0.499444 0.207760 0.209033 0.045604
C60   C     C_3   0.438333 0.233852 0.253877 -0.222098
C61   C     C_3   0.499648 0.290719 0.291415 0.055317
C62   C     C_3   0.546638 0.275372 0.319774 -0.219519
C63   C     C_3   0.547507 0.227688 0.271473 -0.225983
C64   C     C_1   0.874951 0.999959 0.374913 -0.031485
C65   C     C_1   0.499973 0.337102 0.337452 -0.073336
C66   C     C_1   0.500157 0.162235 0.163025 -0.051660
C67   C     C_1   0.837285 0.999953 0.337236 -0.062524
C68   C     C_1   0.500489 0.124828 0.125438 -0.012201
C69   C     C_3   0.484974 0.735310 0.797878 -0.212945
C70   C     C_3   0.562009 0.813639 0.796321 -0.212938
C71   C     C_3   0.561792 0.765138 0.747658 -0.213564
C72   C     C_1   0.499824 0.624807 0.624760 -0.035700
C73   C     C_3   0.500487 0.791220 0.791643 0.069531
C74   C     C_3   0.484749 0.686810 0.749210 -0.213609
C75   C     C_3   0.500113 0.708639 0.708779 0.069705
C76   C     C_1   0.625810 0.999987 0.125755 -0.030497
C77   C     C_3   0.454033 0.725097 0.680766 -0.212748
C78   C     C_1   0.663474 0.999976 0.163418 -0.061908
C79   C     C_3   0.454248 0.773593 0.729432 -0.213956
C80   C     C_1   0.499918 0.662521 0.662525 -0.078129
C81   C     C_1   0.500680 0.837322 0.837908 -0.077696
C82   C     C_1   0.500797 0.875014 0.875718 -0.034948
C83   C     C_3   0.764432 0.039655 0.303749 -0.100739
C84   C     C_2   0.417197 0.128596 0.207223 0.214223
C85   C     C_3   0.796140 0.813734 0.561555 -0.213023
Cu1   Cu    Cu3+1 0.999890 0.041260 0.541240 0.930423
Cu2   Cu    Cu3+1 0.000110 0.958740 0.458760 0.931596
Cu3   Cu    Cu3+1 0.459450 0.958710 0.000750 0.957508
Cu4   Cu    Cu3+1 0.542080 0.041260 0.000670 0.928667
Cu5   Cu    Cu3+1 0.541380 0.499870 0.541250 0.928670
Cu6   Cu    Cu3+1 0.458620 0.499880 0.458500 0.929738
H1    H     H_    0.713745 0.901700 0.240560 0.104436
H2    H     H_    0.652360 0.685148 0.409054 0.114433
H3    H     H_    0.341547 0.095348 0.826186 0.114294
H4    H     H_    0.662180 0.974060 0.260753 0.106365
H5    H     H_    0.269817 0.095356 0.754473 0.113162
H6    H     H_    0.221605 0.939109 0.646648 0.114859
H7    H     H_    0.270004 0.015539 0.674605 0.113237
H8    H     H_    0.341742 0.015537 0.746316 0.114207
H9    H     H_    0.293347 0.939105 0.718354 0.112574
H10   H     H_    0.152151 0.965650 0.742495 0.114686
H11   H     H_    0.152277 0.909764 0.686574 0.113561
H12   H     H_    0.842044 0.746816 0.517091 0.113257
H13   H     H_    0.223882 0.965626 0.814193 0.118512
H14   H     H_    0.221278 0.074812 0.782426 0.115791
H15   H     H_    0.293005 0.074792 0.854132 0.115743
H16   H     H_    0.724273 0.927608 0.152455 0.104048
H17   H     H_    0.224017 0.909749 0.758271 0.114929
H18   H     H_    0.229252 0.324161 0.481800 0.114814
H19   H     H_    0.157593 0.252537 0.481819 0.114034
H20   H     H_    0.209231 0.146046 0.426815 0.116734
H21   H     H_    0.159912 0.172686 0.404176 0.114875
H22   H     H_    0.231564 0.244309 0.404144 0.115950
H23   H     H_    0.770393 0.675133 0.517059 0.114526
H24   H     H_    0.280879 0.217663 0.426773 0.115327
H25   H     H_    0.275714 0.243743 0.591155 0.113277
H26   H     H_    0.277336 0.187833 0.536789 0.113800
H27   H     H_    0.347373 0.315352 0.591118 0.114082
H28   H     H_    0.838577 0.025857 0.239892 0.104650
H29   H     H_    0.205275 0.281796 0.558822 0.114866
H30   H     H_    0.276938 0.353412 0.558800 0.112650
H31   H     H_    0.348986 0.259442 0.536744 0.114978
H32   H     H_    0.403739 0.243805 0.233161 0.112402
H33   H     H_    0.404851 0.175396 0.161061 0.144915
H34   H     H_    0.722428 0.646397 0.440253 0.112626
H35   H     H_    0.557289 0.280617 0.204297 0.119549
H36   H     H_    0.480077 0.250763 0.157153 0.111314
H37   H     H_    0.480189 0.322620 0.228655 0.116579
H38   H     H_    0.557490 0.352441 0.275835 0.117456
H39   H     H_    0.540792 0.189482 0.278768 0.106023
H40   H     H_    0.787011 0.098217 0.260085 0.104871
H41   H     H_    0.591843 0.246053 0.275388 0.118238
H42   H     H_    0.536832 0.258932 0.348817 0.113479
H43   H     H_    0.427459 0.218719 0.283305 0.112140
H44   H     H_    0.591107 0.315665 0.347928 0.118650
H45   H     H_    0.722916 0.812703 0.464067 0.114164
H46   H     H_    0.517330 0.674899 0.770193 0.114630
H47   H     H_    0.517668 0.746588 0.842123 0.113903
H48   H     H_    0.574228 0.853698 0.791713 0.114869
H49   H     H_    0.596149 0.826395 0.840541 0.114015
H50   H     H_    0.595826 0.754707 0.768617 0.114724
H51   H     H_    0.776481 0.072309 0.348187 0.105429
H52   H     H_    0.573917 0.782017 0.719795 0.112731
H53   H     H_    0.409490 0.757025 0.724678 0.113352
H54   H     H_    0.464442 0.812901 0.723572 0.113133
H55   H     H_    0.409173 0.685350 0.652747 0.114102
H56   H     H_    0.724011 0.756846 0.409098 0.113981
H57   H     H_    0.440798 0.718027 0.794420 0.115067
H58   H     H_    0.440464 0.646346 0.722485 0.112649
H59   H     H_    0.464135 0.741228 0.651649 0.114222
H60   H     H_    0.768819 0.754916 0.595559 0.114705
H61   H     H_    0.840480 0.826597 0.595597 0.113633
H62   H     H_    0.794076 0.718085 0.440287 0.114845
H63   H     H_    0.440692 0.128436 0.247205 0.104351
H64   H     H_    0.651256 0.741005 0.464014 0.114602
H65   H     H_    0.791426 0.853737 0.573762 0.115101
H66   H     H_    0.719761 0.782047 0.573712 0.112819
O1    O     O_R   0.939620 0.974560 0.534830 -0.503916
O2    O     O_R   0.464910 0.560090 0.525130 -0.504075
O3    O     O_R   0.595230 0.560150 0.534820 -0.504016
O4    O     O_R   0.939810 0.904870 0.465170 -0.504096
O5    O     O_R   0.525340 0.560160 0.464940 -0.504061
O6    O     O_R   0.535090 0.439670 0.474620 -0.504177
O7    O     O_R   0.465200 0.439670 0.404750 -0.503480
O8    O     O_R   0.474660 0.439590 0.534810 -0.504065
O9    O     O_R   0.404770 0.439600 0.464940 -0.503575
O10   O     O_R   0.939530 0.034830 0.474440 -0.503613
O11   O     O_R   0.939720 0.965140 0.404790 -0.503193
O12   O     O_R   0.535560 0.095110 0.060860 -0.510678
O13   O     O_R   0.060190 0.095130 0.534830 -0.504197
O14   O     O_R   0.060380 0.025440 0.465170 -0.503543
O15   O     O_R   0.060280 0.034860 0.595210 -0.504169
O16   O     O_R   0.060470 0.965170 0.525560 -0.504218
O17   O     O_R   0.465780 0.025400 0.060920 -0.487302
O18   O     O_2   0.373890 0.082850 0.164604 -0.501231
O19   O     O_R   0.526250 0.965140 0.061120 -0.502854
O20   O     O_R   0.596030 0.034850 0.061050 -0.504930
O21   O     O_R   0.465970 0.904870 0.940560 -0.505169
O22   O     O_R   0.535750 0.974580 0.940490 -0.504906
O23   O     O_R   0.405500 0.965130 0.940370 -0.500675
O24   O     O_R   0.475290 0.034840 0.940300 -0.506042
O25   O     O_R   0.534800 0.560080 0.595010 -0.503971

loop_
_geom_bond_atom_site_label_1
_geom_bond_atom_site_label_2
_ccdc_geom_bond_type
C66   C68   T    
C34   C56   S    
C42   C43   T    
C23   C45   S    
C55   C59   S    
C27   C29   T    
Cu6   O9    S    
C40   C83   S    
C25   H10   S    
C57   H37   S    
C54   C84   S    
C81   C82   T    
C7    C8    S    
C79   H54   S    
C54   C60   S    
C12   C67   S    
C70   H49   S    
C62   C63   S    
C6    C85   S    
C23   C83   S    
C30   C35   S    
C30   H19   S    
C34   C40   S    
C76   C78   T    
C62   H42   S    
C57   H38   S    
C28   C29   S    
C10   H45   S    
C5    C11   T    
C47   O21   A    
C59   C66   S    
C48   O24   A    
C28   O16   A    
C47   C82   S    
C50   O5    A    
C20   C25   S    
C17   C20   S    
Cu3   O17   S    
C63   H39   S    
C73   C81   S    
C57   C61   S    
C19   C26   T    
C35   C42   S    
C44   O12   A    
C17   H7    S    
C47   O22   A    
C21   H3    S    
C84   H63   S    
C28   O15   A    
Cu5   O25   S    
C45   C56   S    
C8    C9    S    
C49   C72   S    
C31   H21   S    
C74   H58   S    
C69   C73   S    
C70   C71   S    
C24   H17   S    
Cu4   O20   S    
C32   H22   S    
C84   O18   D    
C75   C80   S    
Cu6   O2    S    
C21   H15   S    
C10   H56   S    
C71   H50   S    
C45   H28   S    
C22   C24   S    
C1    O4    A    
C70   H48   S    
Cu1   O13   S    
C13   C14   T    
Cu5   O3    S    
C46   O20   A    
C2    C6    S    
C18   H9    S    
C46   C76   S    
C12   C52   S    
Cu3   O23   S    
C54   C59   S    
C77   C79   S    
C33   C53   S    
C15   C20   S    
Cu2   O16   S    
C74   H46   S    
C74   C75   S    
C64   C67   T    
C69   C74   S    
C38   C39   S    
C24   C25   S    
Cu6   O7    S    
C3    C8    S    
C15   H5    S    
C19   C48   S    
C50   O3    A    
C40   C52   S    
C9    H2    S    
C4    O11   A    
C12   C83   S    
C60   C61   S    
C24   H13   S    
C85   H65   S    
Cu4   O24   S    
C62   H44   S    
C60   H32   S    
C35   C39   S    
C56   H16   S    
C37   C38   S    
C61   C65   S    
Cu1   O1    S    
C58   C65   T    
C79   H53   S    
C55   H35   S    
C23   C34   S    
Cu2   O14   S    
C70   C73   S    
C17   C18   S    
C73   C79   S    
C23   H40   S    
C51   O7    A    
Cu6   O5    S    
C51   C58   S    
C32   C37   S    
C51   O6    A    
C75   C77   S    
C16   C43   S    
C38   H31   S    
C7    H60   S    
C53   O8    A    
Cu2   O4    S    
C55   H36   S    
C2    H62   S    
C55   C57   S    
Cu2   O11   S    
Cu1   O15   S    
C5    C50   S    
C44   C68   S    
C18   H8    S    
C40   H4    S    
C60   H43   S    
C48   O23   A    
Cu1   Cu2   S    
C71   H52   S    
C9    C10   S    
C69   H47   S    
C54   H33   S    
C36   C37   S    
C18   C22   S    
C31   C32   S    
Cu1   O10   S    
C44   O17   A    
C12   C45   S    
C3    H23   S    
C77   H59   S    
C6    C10   S    
C83   H51   S    
C3    H34   S    
Cu3   O21   S    
C7    H66   S    
C20   C27   S    
C4    C64   S    
C59   C63   S    
Cu3   O19   S    
C4    O10   A    
C30   C36   S    
Cu5   O6    S    
C33   C41   T    
C15   H14   S    
C36   H30   S    
C85   H61   S    
Cu4   O12   S    
Cu5   O8    S    
C39   H26   S    
C34   C78   S    
C6    C13   S    
C71   C75   S    
C16   O14   A    
C1    O1    A    
Cu5   Cu6   S    
C7    C85   S    
C30   H29   S    
C2    H12   S    
C8    C11   S    
C31   C35   S    
C63   H41   S    
C2    C3    S    
C46   O19   A    
Cu4   O22   S    
C32   H24   S    
C37   C41   S    
C61   C62   S    
C25   H11   S    
C52   H1    S    
C49   O25   A    
C38   H27   S    
C16   O13   A    
C53   O9    A    
C15   C21   S    
Cu3   Cu4   S    
C9    H64   S    
C72   C80   T    
C39   H25   S    
C22   C26   S    
C36   H18   S    
C69   H57   S    
C31   H20   S    
C49   O2    A    
C1    C14   S    
C21   C22   S    
C17   H6    S    
C77   H55   S    
C52   C56   S    
