data_mof_unit_46528.cif
_audit_creation_date              2012-12-10T18:13:26-0500
_audit_creation_method            fapswitch 2.2
_symmetry_space_group_name_H-M    P1
_symmetry_Int_Tables_number       1
_space_group_crystal_system       triclinic
_cell_length_a                    12.710079
_cell_length_b                    13.130042
_cell_length_c                    16.724037
_cell_angle_alpha                 86.134629
_cell_angle_beta                  95.325915
_cell_angle_gamma                 98.196565
_cell_volume                      2746.37598795

loop_
_atom_site_label
_atom_site_type_symbol
_atom_type_description
_atom_site_fract_x
_atom_site_fract_y
_atom_site_fract_z
_atom_type_partial_charge
C1    C     C_R   0.558661 0.690356 0.513834 0.841191
C2    C     C_R   0.600931 0.469892 0.223901 0.109956
C3    C     C_R   0.567888 0.512630 0.873103 0.508194
C4    C     C_R   0.579003 0.531843 0.790071 0.023384
C5    C     C_R   0.387754 0.541627 0.767841 0.382837
C6    C     C_R   0.378427 0.524485 0.849481 -0.276059
C7    C     C_R   0.466260 0.505545 0.901147 0.048794
C8    C     C_2   0.479054 0.396503 0.023657 0.462751
C9    C     C_2   0.452948 0.485368 0.986696 0.181561
C10   C     C_R   0.485461 0.531097 0.736256 -0.231352
C11   C     C_R   0.271967 0.042334 0.491782 0.198200
C12   C     C_R   0.512218 0.490760 0.349810 0.897547
C13   C     C_R   0.403674 0.197002 0.486116 -0.105869
C14   C     C_R   0.702224 0.838742 0.529796 -0.188415
C15   C     C_R   0.734565 0.944435 0.533349 0.249660
C16   C     C_R   0.657339 0.010276 0.533059 -0.173876
C17   C     C_R   0.547403 0.970357 0.533159 0.065113
C18   C     C_R   0.519616 0.863659 0.544969 0.038708
C19   C     C_R   0.463378 0.031326 0.519108 -0.019541
C20   C     C_R   0.355501 0.986149 0.524072 0.057702
C21   C     C_R   0.335622 0.886095 0.560464 0.421723
C22   C     C_R   0.418172 0.825564 0.569891 -0.287165
C23   C     C_R   0.440270 0.308520 0.489281 0.891315
C24   C     C_R   0.484080 0.134961 0.496638 -0.277970
C25   C     C_R   0.295453 0.150496 0.475567 0.150920
C26   C     C_R   0.594216 0.798174 0.532165 -0.143842
C27   C     C_R   0.897391 0.405110 0.650170 -0.277619
C28   C     C_R   0.215696 0.625124 0.397728 -0.132086
C29   C     C_R   0.132517 0.684529 0.393338 0.273415
C30   C     C_R   0.056001 0.662690 0.450042 0.450321
C31   C     C_R   0.052610 0.570506 0.499590 -0.111234
C32   C     C_R   0.148938 0.525927 0.513579 0.071901
C33   C     C_R   0.960692 0.521512 0.539384 0.066151
C34   C     C_R   0.488556 0.511643 0.650273 0.881258
C35   C     C_R   0.979293 0.465021 0.612240 -0.043932
C36   C     C_R   0.081521 0.457597 0.642748 -0.136864
C37   C     C_R   0.159344 0.462752 0.588754 0.271516
C38   C     C_R   0.852491 0.515127 0.506999 0.205682
C39   C     C_R   0.796084 0.391699 0.612385 0.528562
C40   C     C_R   0.509146 0.455366 0.267835 -0.102441
C41   C     C_R   0.412711 0.400270 0.234288 0.431235
C42   C     C_R   0.406736 0.368602 0.155676 -0.306480
C43   C     C_R   0.495001 0.390471 0.111271 -0.048307
C44   C     C_R   0.592605 0.435925 0.146116 -0.144924
H1    H     H_    0.302084 0.526695 0.872901 0.194512
H2    H     H_    0.564206 0.170133 0.488433 0.177576
H3    H     H_    0.761266 0.788695 0.524381 0.174385
H4    H     H_    0.686174 0.091501 0.534262 0.144566
H5    H     H_    0.402992 0.748622 0.596965 0.151219
H6    H     H_    0.092897 0.419173 0.702111 0.167756
H7    H     H_    0.913119 0.362481 0.706888 0.177070
H8    H     H_    0.279652 0.644877 0.358702 0.163002
H9    H     H_    0.659806 0.453119 0.109603 0.187336
H10   H     H_    0.331353 0.334023 0.126938 0.145909
N1    N     N_R   0.774070 0.445420 0.541180 -0.172904
N2    N     N_R   0.226730 0.554050 0.459240 -0.131803
O1    O     O_R   0.631480 0.627510 0.519670 -0.628541
O2    O     O_R   0.455770 0.662400 0.493360 -0.611972
O3    O     O_R   0.598240 0.480510 0.398910 -0.635297
O4    O     O_R   0.422540 0.515400 0.372600 -0.553181
O5    O     O_R   0.544230 0.337600 0.506640 -0.647906
O6    O     O_R   0.368520 0.372490 0.480330 -0.603505
O7    O     O_R   0.577460 0.484600 0.627400 -0.580816
O8    O     O_R   0.401760 0.519490 0.601090 -0.617424
Zn1   Zn    Zn3+2 0.617320 0.476700 0.517570 0.926544
Zn2   Zn    Zn3+2 0.382680 0.523300 0.482430 0.957825
O9    O     O_3   0.324829 0.379752 0.278588 -0.764956
H11   H     H_    0.264718 0.341334 0.246073 0.324063
C45   C     C_3   0.208429 0.213652 0.441943 -0.837558
H12   H     H_    0.197109 0.271263 0.483907 0.253296
H13   H     H_    0.229796 0.252822 0.383792 0.279041
H14   H     H_    0.128475 0.169004 0.431173 0.223965
O10   O     O_3   0.237800 0.850638 0.589386 -0.750214
H15   H     H_    0.237418 0.778574 0.611461 0.344303
C46   C     C_3   0.162702 0.986311 0.465598 -0.764470
H16   H     H_    0.162429 0.902481 0.463066 0.296464
H17   H     H_    0.103128 0.001470 0.506256 0.249724
H18   H     H_    0.138190 0.010685 0.402601 0.221642
C47   C     C_3   0.850409 0.988195 0.533179 -0.904378
H19   H     H_    0.901846 0.926613 0.532557 0.264249
H20   H     H_    0.862820 0.040908 0.479091 0.236491
H21   H     H_    0.875459 0.032005 0.587849 0.251146
O11   O     O_3   0.719232 0.330208 0.652845 -0.773075
H22   H     H_    0.655113 0.316473 0.616040 0.376554
C48   C     C_3   0.689182 0.564733 0.761675 -0.802471
H23   H     H_    0.740040 0.613112 0.806210 0.232541
H24   H     H_    0.727597 0.496022 0.752866 0.273497
H25   H     H_    0.686192 0.614522 0.705389 0.251897
C49   C     C_3   0.823440 0.590908 0.440576 -0.772956
H26   H     H_    0.742371 0.580813 0.417706 0.271399
H27   H     H_    0.828898 0.667353 0.464619 0.265473
H28   H     H_    0.871073 0.589569 0.388493 0.212427
O12   O     O_3   0.998951 0.738364 0.468914 -0.781257
H29   H     H_    0.001798 0.794465 0.426232 0.372588
O13   O     O_3   0.128869 0.768136 0.338862 -0.791905
H30   H     H_    0.189367 0.772976 0.304735 0.338927
C50   C     C_3   0.225381 0.378086 0.616126 -0.823171
H31   H     H_    0.260271 0.386814 0.679052 0.253398
H32   H     H_    0.173646 0.302242 0.615255 0.195186
H33   H     H_    0.289832 0.370777 0.583908 0.283858
O14   O     O_3   0.300463 0.570662 0.721906 -0.758574
H34   H     H_    0.326912 0.624335 0.681557 0.338547
C51   C     C_3   0.418594 0.569874 0.031698 -0.961082
H35   H     H_    0.403392 0.637134 0.990503 0.257018
H36   H     H_    0.343845 0.540568 0.060140 0.247496
H37   H     H_    0.481892 0.597589 0.078556 0.264343
O15   O     O_3   0.654130 0.503130 0.928664 -0.767305
H38   H     H_    0.712464 0.481154 0.901561 0.348497
C52   C     C_3   0.706247 0.526133 0.255723 -0.887433
H39   H     H_    0.742387 0.477469 0.304490 0.263798
H40   H     H_    0.763685 0.542176 0.208771 0.244526
H41   H     H_    0.694606 0.601405 0.277524 0.235188
O16   O     O_3   0.504623 0.319588 0.979395 -0.755890
H42   H     H_    0.525082 0.263229 0.017613 0.339181

loop_
_geom_bond_atom_site_label_1
_geom_bond_atom_site_label_2
_ccdc_geom_bond_type
O7    Zn1   S    
C2    C52   S    
O14   H34   S    
C6    H1    S    
C41   C42   A    
O13   H30   S    
C18   C26   A    
C8    C43   S    
C43   C44   A    
C16   H4    S    
C37   C50   S    
C50   H31   S    
C28   N2    A    
C41   O9    S    
C48   H23   S    
C38   C49   S    
O12   H29   S    
C28   C29   A    
C30   O12   S    
C3    C7    A    
C52   H40   S    
C5    C6    A    
C11   C25   A    
C15   C16   A    
C21   O10   S    
C13   C23   S    
O10   H15   S    
C45   H13   S    
N1    Zn1   S    
C12   O3    A    
C44   H9    S    
O2    Zn2   S    
C23   O6    A    
C39   N1    A    
C38   N1    A    
C35   C36   A    
C2    C44   A    
C8    C9    D    
O15   H38   S    
C31   C33   A    
C2    C40   A    
C49   H27   S    
O4    Zn2   S    
C21   C22   A    
C13   C25   A    
C50   H32   S    
C27   H7    S    
C5    O14   S    
C48   H24   S    
C15   C47   S    
C11   C20   A    
O6    Zn2   S    
O9    H11   S    
C10   C34   S    
C52   H41   S    
C27   C39   A    
C47   H20   S    
C16   C17   A    
C4    C48   S    
C27   C35   A    
C13   C24   A    
O8    Zn2   S    
C12   C40   S    
C45   H14   S    
C46   H16   S    
C29   C30   A    
C1    O1    A    
O11   H22   S    
C9    C51   S    
C34   O8    A    
C17   C18   A    
C51   H36   S    
C32   C37   A    
C14   C26   A    
C49   H28   S    
C46   H17   S    
C6    C7    A    
C8    O16   S    
C22   H5    S    
C40   C41   A    
C1    C26   S    
C25   C45   S    
C42   C43   A    
C4    C10   A    
C3    C4    A    
C50   H33   S    
C36   H6    S    
C29   O13   S    
O16   H42   S    
C48   H25   S    
C7    C9    S    
C36   C37   A    
C18   C22   A    
C31   C32   A    
O1    Zn1   S    
C47   H21   S    
C14   H3    S    
C33   C38   A    
C3    O15   S    
C19   C20   A    
C19   C24   A    
C39   O11   S    
C5    C10   A    
C11   C46   S    
C1    O2    A    
O3    Zn1   S    
C28   H8    S    
C30   C31   A    
N2    Zn2   S    
C34   O7    A    
C33   C35   A    
C51   H37   S    
C45   H12   S    
C46   H18   S    
C47   H19   S    
C12   O4    A    
C17   C19   A    
O5    Zn1   S    
C23   O5    A    
C20   C21   A    
C51   H35   S    
C14   C15   A    
C49   H26   S    
C52   H39   S    
C32   N2    A    
C42   H10   S    
C24   H2    S    
