data_mof_unit_19012.cif
_audit_creation_date              2012-12-10T17:04:01-0500
_audit_creation_method            fapswitch 2.2
_symmetry_space_group_name_H-M    P1
_symmetry_Int_Tables_number       1
_space_group_crystal_system       triclinic
_cell_length_a                    18.927976
_cell_length_b                    18.610765
_cell_length_c                    18.745491
_cell_angle_alpha                 108.911917
_cell_angle_beta                  109.679263
_cell_angle_gamma                 109.361135
_cell_volume                      5111.83543524

loop_
_atom_site_label
_atom_site_type_symbol
_atom_type_description
_atom_site_fract_x
_atom_site_fract_y
_atom_site_fract_z
_atom_type_partial_charge
C1    C     C_R   0.998474 0.119588 0.619173 0.933431
C2    C     C_R   0.172861 0.192002 0.421347 0.064310
C3    C     C_R   0.318355 0.316295 0.505045 -0.108533
C4    C     C_R   0.333457 0.311128 0.582278 -0.081425
C5    C     C_R   0.263519 0.251391 0.580717 -0.072363
C6    C     C_R   0.185904 0.187845 0.499304 -0.105227
C7    C     C_R   0.414310 0.365705 0.662971 0.357768
C8    C     C_R   0.427752 0.346080 0.731098 0.474870
C9    C     C_R   0.355355 0.295846 0.732138 -0.346401
C10   C     C_R   0.273313 0.259944 0.662605 -0.140519
C11   C     C_R   0.958524 0.082441 0.742136 -0.304870
C12   C     C_R   0.119761 0.119153 0.498175 0.983171
C13   C     C_R   0.952461 0.067977 0.808724 0.387709
C14   C     C_R   0.982311 0.139774 0.888704 0.363521
C15   C     C_R   0.007402 0.223434 0.896174 0.434330
C16   C     C_R   0.997935 0.234661 0.822400 -0.156204
C17   C     C_R   0.983038 0.165834 0.748943 -0.051936
C18   C     C_R   0.989627 0.180537 0.681838 -0.121566
C19   C     C_R   0.988487 0.254047 0.675702 -0.104272
C20   C     C_R   0.995418 0.319337 0.744778 0.426194
C21   C     C_R   0.004111 0.311888 0.819225 -0.182079
C22   C     C_R   0.866631 0.697863 0.447089 0.367157
C23   C     C_R   0.005104 0.885090 0.380904 1.037072
C24   C     C_R   0.846371 0.609242 0.413216 -0.224955
C25   C     C_R   0.793933 0.555346 0.433146 0.379478
C26   C     C_R   0.763509 0.591061 0.486199 -0.163363
C27   C     C_R   0.757508 0.666402 0.490959 -0.079255
C28   C     C_R   0.815017 0.724616 0.477762 -0.037079
C29   C     C_R   0.817764 0.806359 0.496005 -0.034400
C30   C     C_R   0.761573 0.826075 0.520049 -0.205204
C31   C     C_R   0.701120 0.766053 0.525978 -0.178060
C32   C     C_R   0.697234 0.685983 0.510052 -0.023002
C33   C     C_R   0.166242 0.925408 0.370600 0.430729
C34   C     C_R   0.880983 0.875412 0.496070 0.918824
C35   C     C_R   0.231285 0.948408 0.348432 -0.165152
C36   C     C_R   0.233963 0.881174 0.289978 -0.194533
C37   C     C_R   0.170674 0.793451 0.253833 -0.218424
C38   C     C_R   0.090127 0.774049 0.253150 0.026774
C39   C     C_R   0.089589 0.841504 0.315317 -0.054843
C40   C     C_R   0.011527 0.823525 0.317627 -0.119340
C41   C     C_R   0.935145 0.745922 0.256612 -0.171224
C42   C     C_R   0.932053 0.681768 0.191402 -0.030813
C43   C     C_R   0.009717 0.692370 0.191673 -0.177689
C44   C     C_R   0.617512 0.497692 0.620994 1.032120
C45   C     C_R   0.097620 0.130455 0.337063 0.506951
C46   C     C_R   0.384984 0.380658 0.504691 0.880223
C47   C     C_R   0.374323 0.494648 0.381705 0.861477
C48   C     C_R   0.623555 0.620234 0.503407 0.905240
C49   C     C_R   0.881102 0.496534 0.875106 0.962255
C50   C     C_R   0.004666 0.379621 0.885142 0.960540
C51   C     C_R   0.119603 0.503817 0.124663 0.917194
C52   C     C_R   0.003733 0.621309 0.123039 0.894260
C53   C     C_R   0.764497 0.660728 0.790117 0.650486
C54   C     C_R   0.845833 0.734048 0.830734 -0.231103
C55   C     C_R   0.917700 0.724016 0.842724 -0.181714
C56   C     C_R   0.074918 0.157352 0.274127 -0.090247
C57   C     C_R   0.911033 0.642011 0.824622 -0.005808
C58   C     C_R   0.830529 0.570550 0.796670 -0.157573
C59   C     C_R   0.755937 0.575735 0.760416 -0.046775
C60   C     C_R   0.680690 0.496205 0.690128 -0.271772
C61   C     C_R   0.675872 0.415115 0.677561 0.415744
C62   C     C_R   0.741439 0.414296 0.739536 0.425777
C63   C     C_R   0.818857 0.493033 0.800809 -0.314480
C64   C     C_R   0.209551 0.460980 0.382028 -0.261474
C65   C     C_R   0.122448 0.409738 0.357920 -0.062159
C66   C     C_R   0.058018 0.401270 0.287116 -0.213315
C67   C     C_R   0.137973 0.230520 0.283707 -0.247476
C68   C     C_R   0.080189 0.450688 0.248293 0.033419
C69   C     C_R   0.163081 0.479622 0.254031 0.017728
C70   C     C_R   0.227345 0.478128 0.318571 0.044595
C71   C     C_R   0.308276 0.499703 0.320970 -0.226520
C72   C     C_R   0.331620 0.539124 0.274274 -0.146378
C73   C     C_R   0.270170 0.544223 0.213283 0.476706
C74   C     C_R   0.184880 0.510610 0.199502 -0.198017
C75   C     C_R   0.219223 0.279421 0.356943 -0.186215
C76   C     C_R   0.237342 0.262641 0.427826 0.060028
H1    H     H_    0.362404 0.296575 0.792145 0.197156
H2    H     H_    0.939278 0.026418 0.683148 0.184072
H3    H     H_    0.764334 0.888557 0.533989 0.150740
H4    H     H_    0.655669 0.781485 0.540906 0.173715
H5    H     H_    0.876077 0.736637 0.258349 0.185048
H6    H     H_    0.852670 0.798622 0.851161 0.160238
H7    H     H_    0.978428 0.780294 0.866318 0.205369
H8    H     H_    0.992492 0.372882 0.275947 0.184506
H9    H     H_    0.124640 0.250708 0.234852 0.210012
H10   H     H_    0.265278 0.334616 0.359580 0.145505
O1    O     O_R   0.051710 0.091600 0.643330 -0.593044
O2    O     O_R   0.591640 0.448340 0.539940 -0.594460
O3    O     O_R   0.408370 0.460150 0.551730 -0.593333
O4    O     O_R   0.408410 0.356720 0.448320 -0.638503
O5    O     O_R   0.408360 0.551760 0.460120 -0.596457
O6    O     O_R   0.408400 0.448330 0.356700 -0.582612
O7    O     O_R   0.591600 0.643380 0.551740 -0.610350
O8    O     O_R   0.591640 0.539950 0.448320 -0.634320
O9    O     O_R   0.960070 0.551730 0.908390 -0.648617
O10   O     O_R   0.856640 0.448280 0.908400 -0.588720
O11   O     O_R   0.051720 0.460120 0.908370 -0.586777
O12   O     O_R   0.948270 0.091620 0.539910 -0.597986
O13   O     O_R   0.948290 0.356670 0.908380 -0.605532
O14   O     O_R   0.143340 0.551720 0.091580 -0.546454
O15   O     O_R   0.039910 0.448270 0.091590 -0.608413
O16   O     O_R   0.051690 0.643330 0.091600 -0.656461
O17   O     O_R   0.948270 0.539880 0.091610 -0.569101
O18   O     O_R   0.143340 0.091610 0.551710 -0.622633
O19   O     O_R   0.039890 0.091630 0.448290 -0.570545
O20   O     O_R   0.051730 0.908380 0.460090 -0.593653
O21   O     O_R   0.948290 0.908400 0.356670 -0.612690
O22   O     O_R   0.960110 0.908370 0.551710 -0.615785
O23   O     O_R   0.856660 0.908390 0.448290 -0.627154
O24   O     O_R   0.591600 0.551770 0.643360 -0.560569
Zn1   Zn    Zn3+2 0.069070 0.999990 0.569050 0.985644
Zn2   Zn    Zn3+2 0.930930 0.000010 0.430950 1.091448
Zn3   Zn    Zn3+2 0.499980 0.569110 0.569080 1.063235
Zn4   Zn    Zn3+2 0.500030 0.430990 0.430980 1.017315
Zn5   Zn    Zn3+2 0.069050 0.569070 0.999980 1.071212
Zn6   Zn    Zn3+2 0.930930 0.430930 0.000000 1.075431
O25   O     O_3   0.923687 0.984315 0.797142 -0.601958
C77   C     C_3   0.834126 0.944832 0.766177 -0.264326
H11   H     H_    0.798648 0.942314 0.703662 0.156384
H12   H     H_    0.819647 0.979223 0.815366 0.182442
H13   H     H_    0.810126 0.876514 0.753762 0.203345
O26   O     O_3   0.983629 0.130631 0.959763 -0.565150
C78   C     C_3   0.032410 0.090366 0.982862 -0.168389
H14   H     H_    0.083191 0.100104 0.963720 0.123205
H15   H     H_    0.988742 0.019550 0.954730 0.199984
H16   H     H_    0.066006 0.119396 0.054604 0.187914
O27   O     O_3   0.048912 0.294734 0.977886 -0.563283
C79   C     C_3   0.136230 0.315765 0.018871 -0.298236
H17   H     H_    0.168501 0.335374 0.983223 0.144785
H18   H     H_    0.143462 0.261200 0.025847 0.177475
H19   H     H_    0.170374 0.370711 0.085432 0.163117
O28   O     O_3   0.995287 0.392287 0.740193 -0.569541
C80   C     C_3   0.909300 0.375321 0.701632 -0.203459
H20   H     H_    0.871122 0.323346 0.632350 0.180515
H21   H     H_    0.877267 0.356841 0.737672 0.167374
H22   H     H_    0.909761 0.435686 0.703632 0.174644
O29   O     O_3   0.939030 0.757491 0.453864 -0.593426
C81   C     C_3   0.012675 0.773926 0.524929 -0.158633
H23   H     H_    0.020195 0.715115 0.513000 0.145932
H24   H     H_    0.010674 0.798626 0.586475 0.148328
H25   H     H_    0.071698 0.824644 0.534675 0.186898
C82   C     C_2   0.885762 0.575756 0.363292 1.010141
O30   O     O_2   0.907674 0.610001 0.323099 -0.596007
O31   O     O_R   0.898677 0.505815 0.362590 -0.721376
H26   H     H_    0.926942 0.490216 0.327260 0.357708
O32   O     O_3   0.782144 0.472057 0.410346 -0.513703
C83   C     C_3   0.697335 0.411607 0.340555 -0.116346
H27   H     H_    0.686162 0.421813 0.283251 0.127135
H28   H     H_    0.648508 0.414883 0.359955 0.153514
H29   H     H_    0.688242 0.344760 0.320587 0.192058
C84   C     C_2   0.761138 0.564176 0.552224 0.949123
O33   O     O_2   0.770833 0.615425 0.619782 -0.696825
O34   O     O_R   0.756050 0.484296 0.541403 -0.730694
H30   H     H_    0.764881 0.478033 0.594935 0.329640
O35   O     O_3   0.049900 0.044021 0.314638 -0.573674
C85   C     C_3   0.058358 0.989543 0.248921 -0.235085
H31   H     H_    0.127090 0.008852 0.269511 0.161933
H32   H     H_    0.027901 0.988775 0.186550 0.150091
H33   H     H_    0.023822 0.921463 0.234860 0.180435
O36   O     O_3   0.179155 0.985827 0.446630 -0.588243
C86   C     C_3   0.236416 0.983773 0.516814 -0.178037
H34   H     H_    0.243670 0.028278 0.578145 0.185911
H35   H     H_    0.301933 0.007092 0.524066 0.142739
H36   H     H_    0.210918 0.917118 0.509665 0.148204
C87   C     C_2   0.298372 0.042592 0.391766 0.926376
O37   O     O_2   0.280886 0.099903 0.418078 -0.628461
O38   O     O_R   0.381189 0.066395 0.403001 -0.777688
H37   H     H_    0.418012 0.131584 0.428333 0.348040
C88   C     C_2   0.306792 0.901873 0.272455 1.008094
O39   O     O_2   0.305870 0.927463 0.219932 -0.606302
O40   O     O_R   0.376608 0.893182 0.316891 -0.722444
H38   H     H_    0.422341 0.909427 0.299493 0.365568
C89   C     C_2   0.200861 0.728892 0.238818 1.030825
O41   O     O_2   0.201963 0.690607 0.280626 -0.542410
O42   O     O_R   0.235999 0.717348 0.184011 -0.685478
H39   H     H_    0.222208 0.742377 0.143894 0.304197
C90   C     C_2   0.844672 0.607973 0.120799 0.956347
O43   O     O_2   0.825000 0.583786 0.044567 -0.646148
O44   O     O_R   0.783396 0.569288 0.141783 -0.771515
H40   H     H_    0.726050 0.520765 0.088382 0.338485
O45   O     O_3   0.613159 0.337544 0.601502 -0.563064
C91   C     C_3   0.537026 0.302628 0.605386 -0.229769
H41   H     H_    0.546337 0.328738 0.672313 0.155182
H42   H     H_    0.510238 0.231094 0.577872 0.179203
H43   H     H_    0.488784 0.313576 0.564265 0.187437
O46   O     O_3   0.697503 0.674953 0.790246 -0.604572
C92   C     C_3   0.694384 0.678246 0.865333 -0.322598
H44   H     H_    0.756454 0.730431 0.925779 0.172656
H45   H     H_    0.677200 0.613859 0.862880 0.197079
H46   H     H_    0.643681 0.694278 0.868436 0.184583
C93   C     C_2   0.985593 0.110898 0.199620 0.900735
O47   O     O_2   0.926099 0.056262 0.197833 -0.580521
O48   O     O_R   0.968754 0.131564 0.132526 -0.796875
H47   H     H_    0.905588 0.095970 0.085905 0.362140
C94   C     C_2   0.981018 0.627342 0.816657 0.751642
O49   O     O_2   0.056590 0.685999 0.855294 -0.416994
O50   O     O_R   0.040610 0.682233 0.801685 -0.590395
H48   H     H_    0.011131 0.673442 0.736595 0.316972
O51   O     O_3   0.736934 0.335823 0.730779 -0.604944
C95   C     C_3   0.685451 0.300269 0.763328 -0.208412
H49   H     H_    0.681460 0.349594 0.812468 0.141307
H50   H     H_    0.714103 0.268549 0.795566 0.182634
H51   H     H_    0.619812 0.248604 0.708984 0.166504
C96   C     C_2   0.422473 0.581937 0.292992 0.957876
O52   O     O_2   0.461753 0.660857 0.321488 -0.561039
O53   O     O_R   0.461886 0.531971 0.275799 -0.802139
H52   H     H_    0.523532 0.568792 0.291282 0.337867
C97   C     C_2   0.268344 0.527924 0.475902 1.015543
O54   O     O_2   0.300852 0.605212 0.496231 -0.520221
O55   O     O_R   0.284147 0.506277 0.542176 -0.761707
H53   H     H_    0.262048 0.441773 0.520176 0.322545
C98   C     C_2   0.096085 0.384841 0.416157 0.928139
O56   O     O_2   0.111905 0.333019 0.435196 -0.659382
O57   O     O_R   0.049125 0.417947 0.445908 -0.750559
H54   H     H_    0.033354 0.395336 0.483904 0.383238
C99   C     C_2   0.029022 0.494732 0.234361 0.920864
O58   O     O_2   0.950642 0.451463 0.186541 -0.610628
O59   O     O_R   0.069180 0.585181 0.284811 -0.761039
H55   H     H_    0.026292 0.606876 0.280064 0.362366
O60   O     O_3   0.295674 0.587135 0.170586 -0.513455
C100  C     C_3   0.296175 0.529958 0.099658 -0.234831
H56   H     H_    0.338128 0.569816 0.082195 0.210739
H57   H     H_    0.321954 0.487509 0.114054 0.125028
H58   H     H_    0.230353 0.488993 0.042092 0.166491
O61   O     O_3   0.479426 0.440714 0.678686 -0.623920
C101  C     C_3   0.477678 0.513370 0.732351 -0.132010
H59   H     H_    0.508447 0.528755 0.801256 0.169470
H60   H     H_    0.411001 0.503663 0.710207 0.155432
H61   H     H_    0.514728 0.571413 0.729417 0.207755
O62   O     O_3   0.509687 0.393592 0.803901 -0.595633
C102  C     C_3   0.529776 0.339528 0.835377 -0.337193
H62   H     H_    0.513726 0.277319 0.782175 0.141570
H63   H     H_    0.497525 0.326361 0.872975 0.179499
H64   H     H_    0.600213 0.374938 0.881217 0.199802
C103  C     C_2   0.204868 0.256032 0.685330 0.962409
O63   O     O_2   0.204965 0.240509 0.743873 -0.582735
O64   O     O_R   0.143973 0.276962 0.645726 -0.805580
H65   H     H_    0.154730 0.299460 0.605837 0.332845
C104  C     C_2   0.975481 0.263595 0.596964 1.010274
O65   O     O_2   0.025523 0.330688 0.604108 -0.552899
O66   O     O_R   0.901432 0.200334 0.516606 -0.787465
H66   H     H_    0.898928 0.215622 0.468905 0.347889

loop_
_geom_bond_atom_site_label_1
_geom_bond_atom_site_label_2
_ccdc_geom_bond_type
C1    O1    A    
C66   C68   A    
O40   H38   S    
C52   O17   A    
C16   C21   A    
C49   C63   S    
C88   O40   S    
C73   C74   A    
C83   H27   S    
C51   C74   S    
C54   H6    S    
C53   O46   S    
C79   H17   S    
C86   H34   S    
O8    Zn4   S    
O59   H55   S    
C7    C8    A    
C46   O3    A    
C2    C6    A    
C89   O41   D    
C65   C66   A    
C64   C97   S    
C22   O29   S    
C52   O16   A    
C36   C88   S    
C33   C39   A    
C48   O8    A    
C57   C94   S    
C14   O26   S    
C5    C6    A    
C26   C84   S    
C83   H28   S    
C37   C38   A    
C99   O59   S    
C62   O51   S    
C12   O18   A    
C100  H58   S    
C4    C7    A    
C6    C12   S    
C30   C31   A    
C31   C32   A    
C43   C52   S    
C78   H15   S    
O1    Zn1   S    
C42   C90   S    
C23   C40   S    
C50   O13   A    
C58   C63   A    
C98   O56   D    
C8    C9    A    
O66   H66   S    
C41   C42   A    
C77   H11   S    
O60   C100  S    
C65   C98   S    
O16   Zn5   S    
C35   C87   S    
C91   H41   S    
C8    O62   S    
O55   H53   S    
C104  O65   D    
C45   C56   A    
C24   C82   S    
C95   H49   S    
C90   O44   S    
C103  O64   S    
C80   H22   S    
C103  O63   D    
C70   C71   A    
C45   O35   S    
C64   C70   A    
O11   Zn5   S    
C9    C10   A    
C61   C62   A    
C33   O36   S    
C72   C96   S    
O4    Zn4   S    
C56   C93   S    
C23   O21   A    
O51   C95   S    
C87   O38   S    
C15   O27   S    
C13   C14   A    
C96   O52   D    
C32   C48   S    
O50   H48   S    
O14   Zn5   S    
C20   O28   S    
C47   O6    A    
C22   C28   A    
C21   C50   S    
C86   H35   S    
O38   H37   S    
C17   C18   A    
C77   H12   S    
O20   Zn1   S    
C89   O42   S    
C2    C45   A    
C53   C59   A    
C38   C39   A    
O3    Zn3   S    
C67   H9    S    
O12   Zn2   S    
C48   O7    A    
C93   O47   D    
C92   H46   S    
C88   O39   D    
C78   H14   S    
C83   H29   S    
C24   C25   A    
C72   C73   A    
C104  O66   S    
O23   Zn2   S    
C97   O54   D    
O13   Zn6   S    
O53   H52   S    
C18   C19   A    
C78   H16   S    
C9    H1    S    
C94   O49   D    
C7    O61   S    
C58   C59   A    
O45   C91   S    
C23   O20   A    
C37   C89   S    
C29   C34   S    
O62   C102  S    
C49   O9    A    
C3    C4    A    
O5    Zn3   S    
C73   O60   S    
C60   C61   A    
C35   C36   A    
C85   H31   S    
C75   C76   A    
C93   O48   S    
C59   C60   A    
C29   C30   A    
C11   H2    S    
C19   C104  S    
C100  H56   S    
C75   H10   S    
O42   H39   S    
C14   C15   A    
C84   O33   D    
C41   H5    S    
C62   C63   A    
O61   C101  S    
C1    C18   S    
C69   C74   A    
C102  H63   S    
O21   Zn2   S    
O7    Zn3   S    
C99   O58   D    
C3    C76   A    
O24   Zn3   S    
C47   C71   S    
C25   O32   S    
C81   H24   S    
C30   H3    S    
C56   C67   A    
C95   H50   S    
C40   C41   A    
C102  H62   S    
O19   Zn2   S    
C96   O53   S    
C90   O43   D    
C101  H60   S    
C55   C57   A    
C26   C27   A    
C80   H20   S    
C22   C24   A    
C67   C75   A    
C42   C43   A    
C55   H7    S    
O27   C79   S    
C28   C29   A    
C79   H19   S    
O35   C85   S    
C86   H36   S    
C2    C76   A    
C80   H21   S    
O32   C83   S    
C51   O14   A    
O15   Zn6   S    
C54   C55   A    
C11   C17   A    
C50   O11   A    
C27   C32   A    
O57   H54   S    
C47   O5    A    
C68   C69   A    
C85   H33   S    
C101  H59   S    
C98   O57   S    
C4    C5    A    
C81   H25   S    
C79   H18   S    
C1    O12   A    
O18   Zn1   S    
C13   O25   S    
C53   C54   A    
C46   O4    A    
C51   O15   A    
C101  H61   S    
O29   C81   S    
C31   H4    S    
C3    C46   S    
C61   O45   S    
O22   Zn1   S    
O31   H26   S    
C34   O22   A    
O36   C86   S    
C19   C20   A    
C85   H32   S    
O17   Zn6   S    
C25   C26   A    
O9    Zn5   S    
C5    C10   A    
C100  H57   S    
C44   O2    A    
O25   C77   S    
C64   C65   A    
C11   C13   A    
C57   C58   A    
C12   O19   A    
C36   C37   A    
C44   C60   S    
C95   H51   S    
C91   H43   S    
C33   C35   A    
O28   C80   S    
C102  H64   S    
C82   O31   S    
C84   O34   S    
C49   O10   A    
O2    Zn4   S    
C69   C70   A    
C68   C99   S    
C91   H42   S    
C92   H45   S    
C81   H23   S    
C66   H8    S    
O44   H40   S    
C39   C40   A    
C87   O37   D    
C38   C43   A    
C71   C72   A    
C20   C21   A    
C97   O55   S    
O48   H47   S    
C27   C28   A    
O26   C78   S    
C34   O23   A    
C10   C103  S    
C82   O30   D    
O10   Zn6   S    
C92   H44   S    
C94   O50   S    
O46   C92   S    
O64   H65   S    
O6    Zn4   S    
C77   H13   S    
C15   C16   A    
C16   C17   A    
O34   H30   S    
C44   O24   A    
