data_mof_unit_48164.cif
_audit_creation_date              2012-12-11T15:26:39-0500
_audit_creation_method            fapswitch 2.2
_symmetry_space_group_name_H-M    P1
_symmetry_Int_Tables_number       1
_space_group_crystal_system       triclinic
_cell_length_a                    7.368172
_cell_length_b                    12.11304
_cell_length_c                    28.961597
_cell_angle_alpha                 89.86785
_cell_angle_beta                  90.846947
_cell_angle_gamma                 90.131479
_cell_volume                      2584.5545177

loop_
_atom_site_label
_atom_site_type_symbol
_atom_type_description
_atom_site_fract_x
_atom_site_fract_y
_atom_site_fract_z
_atom_type_partial_charge
O1    O     O_R   0.647170 0.849180 0.201220 -0.537027
O2    O     O_R   0.352830 0.150820 0.798780 -0.536529
O3    O     O_R   0.352830 0.150820 0.701220 -0.534971
O4    O     O_R   0.647170 0.849180 0.298780 -0.534107
O5    O     O_R   0.147170 0.650820 0.298780 -0.534386
O6    O     O_R   0.852830 0.349180 0.701220 -0.535242
O7    O     O_R   0.852830 0.349180 0.798780 -0.534351
O8    O     O_R   0.147170 0.650820 0.201220 -0.534852
O9    O     O_R   0.317430 0.862210 0.298450 -0.539043
O10   O     O_R   0.682570 0.137790 0.701550 -0.540409
O11   O     O_R   0.682570 0.137790 0.798450 -0.537909
O12   O     O_R   0.317430 0.862210 0.201550 -0.538117
O13   O     O_R   0.817430 0.637790 0.201550 -0.540130
O14   O     O_R   0.182570 0.362210 0.798450 -0.539870
O15   O     O_R   0.182570 0.362210 0.701550 -0.539674
O16   O     O_R   0.817430 0.637790 0.298450 -0.538369
H1    H     H_    0.151612 0.224274 0.450684 0.155682
H2    H     H_    0.759556 0.723381 0.540864 0.149496
H3    H     H_    0.913535 0.768267 0.949989 0.152651
H4    H     H_    0.086464 0.231684 0.050034 0.152640
H5    H     H_    0.414003 0.269732 0.047485 0.152505
H6    H     H_    0.586030 0.730312 0.952535 0.152515
H7    H     H_    0.254521 0.777446 0.541374 0.149776
H8    H     H_    0.653788 0.275345 0.450219 0.156110
C1    C     C_R   0.487162 0.890676 0.312308 0.670036
C2    C     C_R   0.513092 0.115797 0.685729 0.675603
C3    C     C_R   0.514848 0.112334 0.812990 0.676399
C4    C     C_R   0.485153 0.887668 0.187010 0.673557
C5    C     C_R   0.984428 0.612954 0.186909 0.673624
C6    C     C_R   0.015572 0.387042 0.813092 0.676531
C7    C     C_R   0.013320 0.384416 0.685752 0.676429
C8    C     C_R   0.986924 0.609050 0.312246 0.670778
H9    H     H_    0.853513 0.581118 0.686246 0.104302
H10   H     H_    0.196233 0.423342 0.311910 0.112385
H11   H     H_    0.080453 0.399193 0.192603 0.099419
H12   H     H_    0.919563 0.600803 0.807419 0.099555
H13   H     H_    0.606820 0.897306 0.809562 0.102721
H14   H     H_    0.393217 0.102704 0.190458 0.102963
H15   H     H_    0.697363 0.076426 0.311828 0.114714
H16   H     H_    0.350749 0.919536 0.686508 0.106608
H17   H     H_    0.231032 0.287245 0.374578 0.126913
H18   H     H_    0.761301 0.690879 0.619648 0.118654
H19   H     H_    0.905168 0.731246 0.871340 0.117592
H20   H     H_    0.094839 0.268723 0.128687 0.117634
H21   H     H_    0.392681 0.233242 0.125998 0.118057
H22   H     H_    0.607370 0.766790 0.874025 0.118033
H23   H     H_    0.256534 0.810156 0.620133 0.119048
H24   H     H_    0.733077 0.212292 0.374283 0.127387
H25   H     H_    0.129712 0.355902 0.599043 0.108122
H26   H     H_    0.794228 0.587597 0.389648 0.115809
H27   H     H_    0.871313 0.642061 0.101081 0.095709
H28   H     H_    0.128639 0.357878 0.898927 0.095585
H29   H     H_    0.382151 0.140555 0.896454 0.100864
H30   H     H_    0.617896 0.859494 0.103554 0.100996
H31   H     H_    0.295630 0.910821 0.389958 0.115816
H32   H     H_    0.629534 0.144412 0.598824 0.108379
O17   O     O_3   0.480630 0.680630 0.250000 -0.378484
O18   O     O_3   0.519370 0.319370 0.750000 -0.379187
O19   O     O_3   0.980630 0.819370 0.250000 -0.378887
O20   O     O_3   0.019370 0.180630 0.750000 -0.379641
V1    V     V_3+5 0.205800 0.762860 0.250000 1.409797
V2    V     V_3+5 0.794200 0.237140 0.750000 1.411710
V3    V     V_3+5 0.705800 0.737140 0.250000 1.409497
V4    V     V_3+5 0.294200 0.262860 0.750000 1.411539
C9    C     C_R   0.001978 0.522600 0.348423 -0.044383
C10   C     C_R   0.993673 0.459075 0.646157 -0.032850
C11   C     C_R   0.008929 0.466189 0.850789 -0.023872
C12   C     C_R   0.991069 0.533785 0.149223 -0.022909
C13   C     C_R   0.489463 0.967585 0.149251 -0.027166
C14   C     C_R   0.510550 0.032438 0.850760 -0.027920
C15   C     C_R   0.492602 0.041282 0.646206 -0.033322
C16   C     C_R   0.502883 0.976760 0.348502 -0.044549
C17   C     C_R   0.146482 0.359131 0.379829 -0.168988
C18   C     C_R   0.834782 0.614716 0.614004 -0.167174
C19   C     C_R   0.934280 0.645567 0.878879 -0.167328
C20   C     C_R   0.065725 0.354399 0.121143 -0.167101
C21   C     C_R   0.421879 0.147371 0.119321 -0.169640
C22   C     C_R   0.578161 0.852662 0.880699 -0.169799
C23   C     C_R   0.331181 0.886099 0.614338 -0.167118
C24   C     C_R   0.648194 0.140314 0.379665 -0.168723
C25   C     C_R   0.123974 0.435053 0.343824 -0.159353
C26   C     C_R   0.891216 0.554232 0.652033 -0.157569
C27   C     C_R   0.948621 0.572882 0.842320 -0.163964
C28   C     C_R   0.051388 0.427097 0.157699 -0.164594
C29   C     C_R   0.428569 0.074608 0.156262 -0.164912
C30   C     C_R   0.571461 0.925415 0.843755 -0.164267
C31   C     C_R   0.388770 0.946367 0.652245 -0.158184
C32   C     C_R   0.625194 0.064487 0.343775 -0.160271
C33   C     C_R   0.908216 0.533027 0.389828 -0.233365
C34   C     C_R   0.036769 0.423604 0.601358 -0.239054
C35   C     C_R   0.054121 0.433088 0.895783 -0.222246
C36   C     C_R   0.945859 0.566863 0.104228 -0.221751
C37   C     C_R   0.542652 0.934574 0.105237 -0.223266
C38   C     C_R   0.457377 0.065466 0.894774 -0.223759
C39   C     C_R   0.535991 0.076726 0.601316 -0.238899
C40   C     C_R   0.409371 0.965929 0.389987 -0.232754
C41   C     C_R   0.966944 0.476132 0.430231 0.085203
C42   C     C_R   0.960816 0.476108 0.561508 0.083011
C43   C     C_R   0.006450 0.497852 0.934393 0.077554
C44   C     C_R   0.993553 0.502097 0.065624 0.077268
C45   C     C_R   0.500163 0.998978 0.065655 0.076956
C46   C     C_R   0.499857 0.001066 0.934359 0.077213
C47   C     C_R   0.459496 0.024219 0.561566 0.083812
C48   C     C_R   0.467872 0.023199 0.430281 0.084925
C49   C     C_R   0.068335 0.379321 0.423038 0.084135
C50   C     C_R   0.870442 0.577359 0.569244 0.103225
C51   C     C_R   0.956921 0.608184 0.924607 0.089623
C52   C     C_R   0.043083 0.391770 0.075413 0.089538
C53   C     C_R   0.450854 0.109611 0.074175 0.089668
C54   C     C_R   0.549174 0.890431 0.925842 0.089708
C55   C     C_R   0.367513 0.923260 0.569510 0.103617
C56   C     C_R   0.569843 0.120089 0.422898 0.084971
C57   C     C_R   0.933592 0.511663 0.476833 -0.050710
C58   C     C_R   0.975629 0.435836 0.514653 -0.036318
C59   C     C_R   0.010713 0.459511 0.981650 -0.035790
C60   C     C_R   0.989300 0.540436 0.018367 -0.035793
C61   C     C_R   0.508496 0.959818 0.018704 -0.034269
C62   C     C_R   0.491515 0.040228 0.981311 -0.034255
C63   C     C_R   0.475291 0.064164 0.514600 -0.035857
C64   C     C_R   0.433410 0.988085 0.476975 -0.050554
C65   C     C_R   0.028783 0.324151 0.503298 0.145518
C66   C     C_R   0.871950 0.621756 0.487702 0.125925
C67   C     C_R   0.970813 0.655891 0.005953 0.137048
C68   C     C_R   0.029201 0.344057 0.994066 0.137128
C69   C     C_R   0.473821 0.156054 0.992849 0.132798
C70   C     C_R   0.526191 0.843991 0.007168 0.132730
C71   C     C_R   0.370552 0.878195 0.488154 0.124842
C72   C     C_R   0.529424 0.175712 0.502959 0.144381
C73   C     C_R   0.087373 0.302336 0.458354 -0.222806
C74   C     C_R   0.824124 0.645707 0.532899 -0.224657
C75   C     C_R   0.940408 0.683673 0.959739 -0.220182
C76   C     C_R   0.059595 0.316277 0.040282 -0.220153
C77   C     C_R   0.439983 0.184806 0.038500 -0.214609
C78   C     C_R   0.560044 0.815239 0.961519 -0.214632
C79   C     C_R   0.320562 0.854883 0.533307 -0.224528
C80   C     C_R   0.589068 0.197233 0.458029 -0.223689
C81   C     C_3   0.029922 0.226203 0.537135 -0.340308
C82   C     C_3   0.984860 0.112924 0.516204 -0.761550
H33   H     H_    0.880370 0.118212 0.488918 0.244710
H34   H     H_    0.106442 0.076140 0.500563 0.226384
H35   H     H_    0.937510 0.055660 0.543545 0.225192
H36   H     H_    0.165277 0.217236 0.552780 0.185148
H37   H     H_    0.935346 0.238988 0.565708 0.165208
C83   C     C_3   0.862157 0.717824 0.453273 -0.344805
C84   C     C_3   0.878387 0.835010 0.473021 -0.782124
H38   H     H_    0.749992 0.860765 0.489136 0.238144
H39   H     H_    0.988764 0.840007 0.499065 0.242779
H40   H     H_    0.907209 0.894503 0.444794 0.223756
H41   H     H_    0.972479 0.710469 0.428276 0.182944
H42   H     H_    0.731631 0.714017 0.434643 0.182745
C85   C     C_3   0.003939 0.753155 0.039081 -0.340235
C86   C     C_3   0.070960 0.860953 0.017318 -0.771380
H43   H     H_    0.173502 0.845142 0.990624 0.252211
H44   H     H_    0.954956 0.905700 0.001199 0.224916
H45   H     H_    0.130244 0.915162 0.044497 0.223173
H46   H     H_    0.878573 0.777159 0.056257 0.169541
H47   H     H_    0.104189 0.729039 0.065848 0.187250
C87   C     C_3   0.996085 0.246793 0.960938 -0.340273
C88   C     C_3   0.929055 0.138998 0.982701 -0.771387
H48   H     H_    0.045052 0.094252 0.998824 0.224923
H49   H     H_    0.826503 0.154814 0.009392 0.252206
H50   H     H_    0.869781 0.084788 0.955521 0.223164
H51   H     H_    0.895838 0.270906 0.934171 0.187191
H52   H     H_    0.121458 0.222790 0.943764 0.169545
C89   C     C_3   0.511351 0.252501 0.959598 -0.343053
C90   C     C_3   0.575837 0.360901 0.981618 -0.767074
H53   H     H_    0.458275 0.405796 0.995938 0.223668
H54   H     H_    0.676364 0.345831 0.009679 0.251054
H55   H     H_    0.636935 0.414694 0.954908 0.223620
H56   H     H_    0.614840 0.227414 0.934678 0.189597
H57   H     H_    0.388995 0.276264 0.940035 0.165471
C91   C     C_3   0.488648 0.747544 0.040418 -0.343017
C92   C     C_3   0.424170 0.639142 0.018397 -0.767072
H58   H     H_    0.323652 0.654209 0.990333 0.251057
H59   H     H_    0.541737 0.594247 0.004080 0.223663
H60   H     H_    0.363063 0.585350 0.045106 0.223626
H61   H     H_    0.610996 0.723779 0.059984 0.165474
H62   H     H_    0.385155 0.772633 0.065337 0.189659
C93   C     C_3   0.362449 0.781543 0.454198 -0.346170
C94   C     C_3   0.379796 0.664921 0.474634 -0.779814
H63   H     H_    0.489137 0.661470 0.501014 0.242654
H64   H     H_    0.251145 0.638380 0.490555 0.237737
H65   H     H_    0.410751 0.605103 0.446823 0.223275
H66   H     H_    0.232342 0.784096 0.435348 0.183454
H67   H     H_    0.473224 0.789279 0.429340 0.183709
C95   C     C_3   0.530358 0.273883 0.536461 -0.339495
C96   C     C_3   0.484418 0.386678 0.515101 -0.761771
H68   H     H_    0.606373 0.424664 0.499951 0.226294
H69   H     H_    0.382225 0.380286 0.487298 0.244474
H70   H     H_    0.433867 0.443465 0.542067 0.225563
H71   H     H_    0.436163 0.260919 0.565130 0.165309
H72   H     H_    0.665785 0.283556 0.552019 0.185145

loop_
_geom_bond_atom_site_label_1
_geom_bond_atom_site_label_2
_ccdc_geom_bond_type
C91   H61   S    
C89   H57   S    
C7    C10   S    
C81   H36   S    
C11   C27   A    
C89   C90   S    
C60   C67   A    
H32   C39   S    
C4    C13   S    
C44   C60   A    
C66   C83   S    
H25   C34   S    
O11   V2    S    
C19   C27   A    
C20   C28   A    
C23   C31   A    
O4    C1    A    
C64   C71   A    
O9    C1    A    
C10   C34   A    
O3    V4    S    
C91   C92   S    
C9    C33   A    
O4    V3    S    
H6    C78   S    
C72   C95   S    
O8    C5    A    
C85   H47   S    
H16   C31   S    
O13   C5    A    
C14   C38   A    
C71   C79   A    
C57   C58   A    
C13   C37   A    
C72   C80   A    
C43   C59   A    
C71   C93   S    
C42   C58   A    
C15   C39   A    
H12   C27   S    
C91   H62   S    
C59   C60   A    
C68   C76   A    
O20   V2    S    
O19   V1    S    
C65   C81   S    
C95   H71   S    
H20   C20   S    
H30   C37   S    
C83   H42   S    
C16   C32   A    
C58   C65   A    
C9    C25   A    
C57   C66   A    
O2    V4    S    
C96   H70   S    
C68   C87   S    
O1    C4    A    
O15   V4    S    
C88   H49   S    
O2    C3    A    
O16   V3    S    
H23   C23   S    
C61   C70   A    
C6    C11   S    
C46   C62   A    
C94   H65   S    
C87   H52   S    
O8    V1    S    
O5    C8    A    
C41   C49   A    
C63   C72   A    
H8    C80   S    
O6    C7    A    
C81   H37   S    
C21   C29   A    
C20   C52   A    
O7    C6    A    
C90   H54   S    
C2    C15   S    
O10   V2    S    
H15   C32   S    
H4    C76   S    
O1    V3    S    
H5    C77   S    
C84   H39   S    
C39   C47   A    
O17   V3    S    
C92   H59   S    
H3    C75   S    
C67   C85   S    
C44   C52   A    
H18   C18   S    
C56   C80   A    
H14   C29   S    
C53   C77   A    
C12   C28   A    
C19   C51   A    
C70   C91   S    
C51   C75   A    
C37   C45   A    
H22   C22   S    
C83   C84   S    
C49   C73   A    
O18   V4    S    
C92   H58   S    
H1    C73   S    
C33   C41   A    
C69   C89   S    
O7    V2    S    
C83   H41   S    
H11   C28   S    
H27   C36   S    
C18   C50   A    
C5    C12   S    
H13   C30   S    
H26   C33   S    
C17   C49   A    
C88   H48   S    
O13   V3    S    
C86   H45   S    
O11   C3    A    
C85   C86   S    
O14   V4    S    
C24   C56   A    
C11   C35   A    
O10   C2    A    
C88   H50   S    
O5    V1    S    
C22   C54   A    
C1    C16   S    
C85   H46   S    
C21   C53   A    
C38   C46   A    
C3    C14   S    
C82   H34   S    
C87   H51   S    
C17   C25   A    
C15   C31   A    
C62   C69   A    
C86   H44   S    
C40   C48   A    
C90   H53   S    
O9    V1    S    
C46   C54   A    
C41   C57   A    
C14   C30   A    
C84   H38   S    
C84   H40   S    
C13   C29   A    
C94   H63   S    
C36   C44   A    
H19   C19   S    
C48   C56   A    
C93   H66   S    
H9    C26   S    
C92   H60   S    
C69   C77   A    
C89   H56   S    
C50   C74   A    
C52   C76   A    
C59   C68   A    
C94   H64   S    
C67   C75   A    
H29   C38   S    
O3    C2    A    
C47   C63   A    
C65   C73   A    
H31   C40   S    
C82   H35   S    
C63   C64   A    
O15   C7    A    
C93   H67   S    
C47   C55   A    
C23   C55   A    
O16   C8    A    
C43   C51   A    
C81   C82   S    
C42   C50   A    
H2    C74   S    
H7    C79   S    
O6    V2    S    
C45   C61   A    
H24   C24   S    
O14   C6    A    
C96   H68   S    
C24   C32   A    
C35   C43   A    
C61   C62   A    
O12   V1    S    
C55   C79   A    
C87   C88   S    
C12   C36   A    
C34   C42   A    
C95   H72   S    
C96   H69   S    
C54   C78   A    
C82   H33   S    
H17   C17   S    
C93   C94   S    
C16   C40   A    
C86   H43   S    
C70   C78   A    
C90   H55   S    
C22   C30   A    
H28   C35   S    
H21   C21   S    
O12   C4    A    
C95   C96   S    
C45   C53   A    
C66   C74   A    
H10   C25   S    
C18   C26   A    
C10   C26   A    
C8    C9    S    
C48   C64   A    
