data_mof_unit_56397.cif
_audit_creation_date              2013-03-05T16:18:54-0500
_audit_creation_method            fapswitch 2.2
_symmetry_space_group_name_H-M    P1
_symmetry_Int_Tables_number       1
_space_group_crystal_system       triclinic
_cell_length_a                    9.688473
_cell_length_b                    10.630381
_cell_length_c                    16.636513
_cell_angle_alpha                 89.903314
_cell_angle_beta                  84.778147
_cell_angle_gamma                 89.942999
_cell_volume                      1706.31620844

loop_
_atom_site_label
_atom_site_type_symbol
_atom_site_description
_atom_site_fract_x
_atom_site_fract_y
_atom_site_fract_z
_atom_type_partial_charge
O1    O     O_R   0.383960 0.685090 0.500020 -0.630634
O2    O     O_R   0.616040 0.685320 0.499960 -0.638251
C1    C     C_R   0.500240 0.742549 0.499743 0.831987
O3    O     O_R   0.370240 0.499890 0.615830 -0.618675
O4    O     O_R   0.602330 0.500120 0.615770 -0.626213
C2    C     C_R   0.480310 0.506381 0.653398 0.851865
Zn1   Zn    Zn3+2 0.345040 0.499850 0.500040 0.899613
Zn2   Zn    Zn3+2 0.654960 0.500150 0.499960 0.911630
O5    O     O_R   0.383960 0.314680 0.500040 -0.633246
O6    O     O_R   0.616040 0.314910 0.499980 -0.633251
O7    O     O_R   0.397670 0.499880 0.384230 -0.629469
O8    O     O_R   0.629760 0.500110 0.384170 -0.572203
C3    C     C_R   0.500388 0.257452 0.499890 0.837486
C4    C     C_R   0.519737 0.502909 0.346120 0.899721
C5    C     C_R   0.466428 0.550255 0.736298 -0.023385
C6    C     C_R   0.567744 0.631300 0.761915 -0.186965
C7    C     C_R   0.550289 0.684610 0.838084 -0.237100
C8    C     C_R   0.432946 0.654972 0.890064 0.070343
C9    C     C_R   0.328913 0.578136 0.863479 -0.166490
C10   C     C_R   0.344914 0.526868 0.786342 -0.218986
C11   C     C_R   0.416200 0.539188 0.136685 -0.073290
C12   C     C_R   0.414797 0.504605 0.216993 -0.326911
C13   C     C_R   0.652812 0.577935 0.218720 0.534825
C14   C     C_R   0.654003 0.609364 0.137167 -0.290754
C15   C     C_R   0.534560 0.594881 0.097276 0.157142
C16   C     C_2   0.434283 0.677558 0.977067 0.485387
C17   C     C_2   0.540126 0.624536 0.011604 -0.321337
C18   C     C_R   0.531797 0.524711 0.259050 -0.164621
H1    H     H_    0.659815 0.654489 0.722788 0.137902
H2    H     H_    0.321348 0.463075 0.246426 0.172199
H3    H     H_    0.630999 0.590671 0.974652 0.122487
H4    H     H_    0.239186 0.552660 0.903857 0.143693
H5    H     H_    0.325602 0.520194 0.105064 0.172950
H6    H     H_    0.264256 0.467071 0.766390 0.132698
H7    H     H_    0.631580 0.743390 0.858326 0.125339
H8    H     H_    0.747538 0.647246 0.105426 0.152257
C19   C     C_3   0.435317 0.928162 0.424267 -0.401073
H9    H     H_    0.326708 0.894022 0.424212 0.170928
H10   H     H_    0.494129 0.892834 0.368255 0.149111
C20   C     C_3   0.435900 0.072530 0.424164 -0.403705
H11   H     H_    0.495748 0.107634 0.368320 0.154426
H12   H     H_    0.327617 0.107516 0.423632 0.169602
H13   H     H_    0.308300 0.892937 0.580020 0.168112
H14   H     H_    0.308180 0.106623 0.579812 0.167712
C21   C     C_3   0.417087 0.927553 0.577055 -0.401508
C22   C     C_3   0.652402 0.928470 0.497885 -0.401605
C23   C     C_3   0.501213 0.878808 0.499702 0.190779
H15   H     H_    0.702300 0.893839 0.551490 0.166185
H16   H     H_    0.715434 0.894291 0.442910 0.159699
C24   C     C_3   0.501439 0.121174 0.499782 0.192458
C25   C     C_3   0.417006 0.071971 0.577031 -0.408212
C26   C     C_3   0.652506 0.071292 0.498022 -0.396248
H17   H     H_    0.715629 0.105936 0.443120 0.167174
H18   H     H_    0.702242 0.105300 0.551745 0.166275
H19   H     H_    0.463277 0.892097 0.631666 0.159169
H20   H     H_    0.462856 0.107058 0.631733 0.152227
C27   C     C_3   0.916441 0.630384 0.506277 -0.229804
H21   H     H_    0.868970 0.677266 0.561838 0.136755
H22   H     H_    0.885472 0.686782 0.454549 0.144825
C28   C     C_3   0.079067 0.632197 0.506013 -0.235986
H23   H     H_    0.124351 0.689464 0.454127 0.143837
H24   H     H_    0.108544 0.679558 0.561532 0.141160
H25   H     H_    0.862460 0.471150 0.628861 0.148529
H26   H     H_    0.100560 0.472683 0.628202 0.144514
C29   C     C_3   0.908889 0.429625 0.571322 -0.235187
C30   C     C_3   0.930385 0.442023 0.427518 -0.233897
N1    N     N_3   0.861190 0.500250 0.501720 -0.031973
H27   H     H_    0.894109 0.343374 0.422183 0.138433
H28   H     H_    0.899855 0.492654 0.373504 0.207929
N2    N     N_3   0.138550 0.503270 0.501080 -0.028087
C31   C     C_3   0.071653 0.431107 0.570785 -0.232950
C32   C     C_3   0.092851 0.444440 0.426896 -0.234165
H29   H     H_    0.136868 0.497142 0.372749 0.156199
H30   H     H_    0.134456 0.347020 0.420635 0.142462
H31   H     H_    0.871409 0.330805 0.570285 0.139483
H32   H     H_    0.111650 0.332931 0.569161 0.140612
O9    O     O_3   0.771428 0.595409 0.257630 -0.613367
C33   C     C_3   0.780945 0.723568 0.278167 -0.340961
H33   H     H_    0.690421 0.753252 0.319772 0.153513
H34   H     H_    0.791145 0.784737 0.223616 0.160792
H35   H     H_    0.875427 0.737131 0.310073 0.175207
O10   O     O_3   0.319172 0.722649 0.024691 -0.606878
C34   C     C_3   0.257486 0.823698 0.986036 -0.329220
H36   H     H_    0.197478 0.789416 0.936643 0.163396
H37   H     H_    0.335565 0.894954 0.962825 0.155471
H38   H     H_    0.183443 0.871391 0.030845 0.190113

loop_
_geom_bond_atom_site_label_1
_geom_bond_atom_site_label_2
_geom_bond_distance
_ccdc_geom_bond_type
C30   H27   1.112595 S    
H25   C29   1.111829 S    
C9    C10   1.390637 A    
C8    C16   1.468838 S    
Zn1   N2    1.999366 S    
O9    C33   1.410269 S    
Zn1   O7    1.947627 S    
C22   H16   1.113749 S    
C16   C17   1.343276 D    
C14   H8    1.084036 S    
C25   H20   1.113422 S    
C19   C20   1.534702 S    
C31   H32   1.112414 S    
O7    C4    1.290421 A    
C33   H34   1.112659 S    
C27   H22   1.111278 S    
C30   H28   1.109542 S    
C11   H5    1.082933 S    
C21   C25   1.535219 S    
C5    C6    1.402309 A    
C22   C26   1.518265 S    
C28   H24   1.112666 S    
C8    C9    1.400953 A    
H26   C31   1.112017 S    
O5    C3    1.280877 A    
C2    C5    1.451219 S    
C30   C32   1.573372 S    
C6    C7    1.385178 A    
C29   N1    1.487218 S    
C24   C26   1.553992 S    
C13   C14   1.395779 A    
N2    C31   1.488119 S    
C19   C23   1.549438 S    
C10   H6    1.083442 S    
C20   H12   1.113511 S    
C30   N1    1.485787 S    
C16   O10   1.393062 S    
C12   C18   1.401972 A    
C11   C12   1.383978 A    
C27   N1    1.488361 S    
O3    Zn1   1.963672 S    
C9    H4    1.083447 S    
C26   H18   1.114242 S    
C24   C25   1.549705 S    
C21   C23   1.548994 S    
C5    C10   1.400863 A    
C22   H15   1.114258 S    
C17   H3    1.088233 S    
C14   C15   1.394194 A    
C32   H30   1.112518 S    
C33   H33   1.112459 S    
C27   C28   1.575349 S    
C6    H1    1.083700 S    
C29   C31   1.576238 S    
C28   H23   1.112655 S    
O1    C1    1.281678 A    
C19   H9    1.113506 S    
C34   H36   1.111058 S    
C28   N2    1.485749 S    
Zn2   O8    1.963674 S    
C7    C8    1.400146 A    
C13   C18   1.414836 A    
C13   O9    1.382193 S    
H13   C21   1.113537 S    
H14   C25   1.113509 S    
O3    C2    1.286171 A    
C20   H11   1.113461 S    
C34   H37   1.114505 S    
O8    C4    1.288631 A    
C26   H17   1.114246 S    
Zn1   O5    2.003849 S    
C11   C15   1.399474 A    
C22   C23   1.555200 S    
C12   H2    1.083397 S    
O1    Zn1   2.005313 S    
O2    Zn2   2.003852 S    
C32   H29   1.111770 S    
O6    C3    1.276813 A    
O4    Zn2   1.947627 S    
C15   C17   1.455421 S    
C29   H31   1.112508 S    
O2    C1    1.276014 A    
C19   H10   1.112726 S    
C33   H35   1.108804 S    
C27   H21   1.112665 S    
O4    C2    1.288075 A    
C20   C24   1.549659 S    
C1    C23   1.448527 S    
C3    C24   1.448713 S    
C34   H38   1.109314 S    
C21   H19   1.113677 S    
Zn2   N1    2.000931 S    
Zn2   O6    2.005312 S    
O10   C34   1.411011 S    
N2    C32   1.487593 S    
C7    H7    1.083565 S    
C4    C18   1.460736 S    
