data_mof_unit_60489.cif
_audit_creation_date              2013-03-05T16:23:01-0500
_audit_creation_method            fapswitch 2.2
_symmetry_space_group_name_H-M    P1
_symmetry_Int_Tables_number       1
_space_group_crystal_system       triclinic
_cell_length_a                    42.984866
_cell_length_b                    30.542955
_cell_length_c                    30.431151
_cell_angle_alpha                 90.0172
_cell_angle_beta                  90.009041
_cell_angle_gamma                 90.04538
_cell_volume                      39952.5816135

loop_
_atom_site_label
_atom_site_type_symbol
_atom_site_description
_atom_site_fract_x
_atom_site_fract_y
_atom_site_fract_z
_atom_type_partial_charge
Zn1   Zn    Zn3+2 0.224060 0.448080 0.500000 0.960882
Zn2   Zn    Zn3+2 0.775940 0.551920 0.500000 0.953915
Zn3   Zn    Zn3+2 0.224060 0.551920 0.500000 0.954621
Zn4   Zn    Zn3+2 0.775940 0.448080 0.500000 0.954217
Zn5   Zn    Zn3+2 0.724060 0.948080 0.000000 0.960063
Zn6   Zn    Zn3+2 0.275940 0.051920 0.000000 0.951837
Zn7   Zn    Zn3+2 0.724060 0.051920 0.000000 0.952674
Zn8   Zn    Zn3+2 0.275940 0.948080 0.000000 0.961836
Zn9   Zn    Zn3+2 0.275990 0.500000 0.448100 1.123798
Zn10  Zn    Zn3+2 0.724010 0.500000 0.551900 1.124505
Zn11  Zn    Zn3+2 0.724010 0.500000 0.448100 1.124728
Zn12  Zn    Zn3+2 0.275990 0.500000 0.551900 1.123514
Zn13  Zn    Zn3+2 0.775990 0.000000 0.948100 1.124968
Zn14  Zn    Zn3+2 0.224010 0.000000 0.051900 1.122671
Zn15  Zn    Zn3+2 0.224010 0.000000 0.948100 1.124177
Zn16  Zn    Zn3+2 0.775990 0.000000 0.051900 1.124880
O1    O     O_3   0.250020 0.500000 0.500000 -0.546161
O2    O     O_3   0.749980 0.500000 0.500000 -0.545345
O3    O     O_3   0.750020 0.000000 0.000000 -0.545533
O4    O     O_3   0.249980 0.000000 0.000000 -0.546120
O5    O     O_R   0.231840 0.587470 0.448900 -0.657582
O6    O     O_R   0.768160 0.412530 0.551100 -0.656767
O7    O     O_R   0.768160 0.412530 0.448900 -0.657486
O8    O     O_R   0.231840 0.587470 0.551100 -0.655111
O9    O     O_R   0.231840 0.412530 0.551100 -0.655354
O10   O     O_R   0.768160 0.587470 0.448900 -0.656976
O11   O     O_R   0.768160 0.587470 0.551100 -0.657630
O12   O     O_R   0.231840 0.412530 0.448900 -0.657308
O13   O     O_R   0.731840 0.087470 0.948900 -0.657586
O14   O     O_R   0.268160 0.912530 0.051100 -0.654593
O15   O     O_R   0.268160 0.912530 0.948900 -0.657303
O16   O     O_R   0.731840 0.087470 0.051100 -0.658283
O17   O     O_R   0.731840 0.912530 0.051100 -0.654473
O18   O     O_R   0.268160 0.087470 0.948900 -0.658526
O19   O     O_R   0.268160 0.087470 0.051100 -0.655374
O20   O     O_R   0.731840 0.912530 0.948900 -0.659680
O21   O     O_R   0.268210 0.448870 0.412550 -0.559952
O22   O     O_R   0.731790 0.551130 0.587450 -0.558527
O23   O     O_R   0.731790 0.551130 0.412550 -0.553011
O24   O     O_R   0.268210 0.448870 0.587450 -0.554512
O25   O     O_R   0.268210 0.551130 0.587450 -0.559947
O26   O     O_R   0.731790 0.448870 0.412550 -0.558321
O27   O     O_R   0.731790 0.448870 0.587450 -0.553493
O28   O     O_R   0.268210 0.551130 0.412550 -0.553974
O29   O     O_R   0.768210 0.948870 0.912550 -0.552402
O30   O     O_R   0.231790 0.051130 0.087450 -0.554222
O31   O     O_R   0.231790 0.051130 0.912550 -0.559303
O32   O     O_R   0.768210 0.948870 0.087450 -0.559059
O33   O     O_R   0.768210 0.051130 0.087450 -0.552200
O34   O     O_R   0.231790 0.948870 0.912550 -0.553976
O35   O     O_R   0.231790 0.948870 0.087450 -0.560542
O36   O     O_R   0.768210 0.051130 0.912550 -0.558790
O37   O     O_R   0.319350 0.500000 0.463670 -0.568652
O38   O     O_R   0.680650 0.500000 0.536330 -0.569088
O39   O     O_R   0.680650 0.500000 0.463670 -0.569574
O40   O     O_R   0.319350 0.500000 0.536330 -0.568456
O41   O     O_R   0.819350 0.000000 0.963670 -0.569080
O42   O     O_R   0.180650 0.000000 0.036330 -0.568357
O43   O     O_R   0.180650 0.000000 0.963670 -0.568612
O44   O     O_R   0.819350 0.000000 0.036330 -0.569668
O45   O     O_R   0.180700 0.536340 0.500000 -0.646222
O46   O     O_R   0.819300 0.463660 0.500000 -0.646687
O47   O     O_R   0.180700 0.463660 0.500000 -0.645728
O48   O     O_R   0.819300 0.536340 0.500000 -0.647800
O49   O     O_R   0.680700 0.036340 0.000000 -0.646892
O50   O     O_R   0.319300 0.963660 0.000000 -0.644028
O51   O     O_R   0.680700 0.963660 0.000000 -0.647193
O52   O     O_R   0.319300 0.036340 0.000000 -0.650575
C1    C     C_R   0.615024 0.489431 0.538548 0.507688
C2    C     C_R   0.384976 0.510565 0.461450 0.508205
C3    C     C_R   0.384971 0.489445 0.538566 0.508253
C4    C     C_R   0.615029 0.510562 0.461436 0.507390
C5    C     C_R   0.115035 0.010514 0.038571 0.508371
C6    C     C_R   0.884965 0.989492 0.961427 0.507778
C7    C     C_R   0.884985 0.010491 0.038589 0.507421
C8    C     C_R   0.115016 0.989499 0.961413 0.508197
C9    C     C_R   0.582658 0.489464 0.538447 0.609412
C10   C     C_R   0.417342 0.510533 0.461551 0.609634
C11   C     C_R   0.417338 0.489475 0.538466 0.609527
C12   C     C_R   0.582662 0.510532 0.461535 0.609586
C13   C     C_R   0.082669 0.010481 0.038469 0.609516
C14   C     C_R   0.917331 0.989524 0.961528 0.609517
C15   C     C_R   0.917351 0.010460 0.038488 0.609597
C16   C     C_R   0.082650 0.989530 0.961513 0.609605
C17   C     C_R   0.566426 0.499999 0.499991 -0.231904
C18   C     C_R   0.433574 0.500003 0.500009 -0.232072
C19   C     C_R   0.066426 0.000004 0.999991 -0.231940
C20   C     C_R   0.933575 0.999993 0.000008 -0.231755
C21   C     C_R   0.250033 0.584133 0.415696 0.917503
C22   C     C_R   0.749921 0.415821 0.584266 0.915527
C23   C     C_R   0.749974 0.415870 0.415702 0.906589
C24   C     C_R   0.250015 0.584120 0.584307 0.907184
C25   C     C_R   0.250081 0.415802 0.584261 0.914695
C26   C     C_R   0.749935 0.584182 0.415727 0.916406
C27   C     C_R   0.749987 0.584142 0.584292 0.907500
C28   C     C_R   0.250052 0.415831 0.415719 0.908607
C29   C     C_R   0.750046 0.084146 0.915706 0.914605
C30   C     C_R   0.249925 0.915825 0.084271 0.911416
C31   C     C_R   0.249927 0.915833 0.915723 0.911597
C32   C     C_R   0.750046 0.084145 0.084278 0.908641
C33   C     C_R   0.750064 0.915819 0.084275 0.913817
C34   C     C_R   0.249989 0.084129 0.915683 0.915807
C35   C     C_R   0.249952 0.084168 0.084269 0.912575
C36   C     C_R   0.750029 0.915857 0.915698 0.909728
C37   C     C_R   0.631558 0.499997 0.499993 -0.528853
C38   C     C_R   0.368442 0.500004 0.500007 -0.529167
C39   C     C_R   0.131557 0.000006 0.999993 -0.529015
C40   C     C_R   0.868443 0.999993 0.000007 -0.528104
C41   C     C_R   0.334255 0.500000 0.500003 0.976357
C42   C     C_R   0.665745 0.500000 0.499997 0.975497
C43   C     C_R   0.834255 0.999998 0.000003 0.975121
C44   C     C_R   0.165745 0.000002 0.999997 0.976318
C45   C     C_R   0.165882 0.500013 0.499689 0.796665
C46   C     C_R   0.834150 0.500034 0.500053 0.792749
C47   C     C_R   0.665840 0.999995 0.999508 0.796000
C48   C     C_R   0.334111 0.000080 0.999627 0.804786
C49   C     C_R   0.115205 0.491630 0.460278 0.048193
C50   C     C_R   0.884935 0.513270 0.538241 0.042633
C51   C     C_R   0.115388 0.510242 0.539315 0.041666
C52   C     C_R   0.884752 0.487903 0.461108 0.042432
C53   C     C_R   0.614891 0.985638 0.962101 0.046937
C54   C     C_R   0.384517 0.010482 0.038918 0.028456
C55   C     C_R   0.615391 0.016499 0.037222 0.042257
C56   C     C_R   0.384844 0.992753 0.959765 0.051455
C57   C     C_R   0.082178 0.493512 0.459940 0.078580
C58   C     C_R   0.918027 0.513128 0.538110 0.075714
C59   C     C_R   0.082382 0.514440 0.538419 0.081737
C60   C     C_R   0.917825 0.489498 0.460494 0.075851
C61   C     C_R   0.581888 0.988536 0.961307 0.079694
C62   C     C_R   0.417231 0.016943 0.037665 0.130127
C63   C     C_R   0.582405 0.020863 0.035809 0.079105
C64   C     C_R   0.417959 0.991793 0.960472 0.065084
C65   C     C_R   0.066021 0.504722 0.499014 -0.024793
C66   C     C_R   0.934192 0.501576 0.499141 -0.026569
C67   C     C_R   0.565876 0.005699 0.998300 -0.022822
C68   C     C_R   0.433931 0.005058 0.999195 -0.033436
C69   C     C_R   0.131504 0.500162 0.499882 -0.089289
C70   C     C_R   0.868561 0.500218 0.499860 -0.089835
C71   C     C_R   0.631398 0.000215 0.999793 -0.093221
C72   C     C_R   0.368470 0.000621 0.999472 -0.091445
N1    N     N_R   0.016029 0.468568 0.514470 -0.173219
N2    N     N_R   0.984164 0.537773 0.483376 -0.177094
N3    N     N_R   0.015143 0.538561 0.483341 -0.185251
N4    N     N_R   0.985050 0.467662 0.514187 -0.174971
N5    N     N_R   0.515523 0.976254 0.023301 -0.175202
N6    N     N_R   0.484257 0.035032 0.974494 -0.179332
N7    N     N_R   0.515227 0.035137 0.974192 -0.190841
N8    N     N_R   0.484538 0.976273 0.023730 -0.173619
C73   C     C_R   0.968600 0.502313 0.498801 0.283819
C74   C     C_R   0.031600 0.504100 0.499200 0.283333
C75   C     C_R   0.468369 0.005888 0.999583 0.293252
C76   C     C_R   0.531411 0.005799 0.998664 0.282497
C77   C     C_R   0.769910 0.654495 0.385044 -0.356601
C78   C     C_R   0.230348 0.345263 0.614765 -0.355219
C79   C     C_R   0.230663 0.344956 0.385566 -0.357408
C80   C     C_R   0.769052 0.655386 0.613834 -0.369190
C81   C     C_R   0.769790 0.345462 0.614898 -0.356632
C82   C     C_R   0.229614 0.653946 0.384577 -0.358704
C83   C     C_R   0.229609 0.654004 0.615196 -0.366721
C84   C     C_R   0.768341 0.344105 0.386641 -0.367841
C85   C     C_R   0.270529 0.153890 0.884522 -0.360378
C86   C     C_R   0.730170 0.845432 0.114900 -0.354334
C87   C     C_R   0.731209 0.844484 0.886029 -0.357753
C88   C     C_R   0.270222 0.154223 0.115091 -0.369939
C89   C     C_R   0.269690 0.845369 0.114823 -0.354882
C90   C     C_R   0.729990 0.154321 0.884918 -0.357983
C91   C     C_R   0.732116 0.156263 0.112977 -0.368464
C92   C     C_R   0.269070 0.844807 0.885720 -0.356732
H1    H     H_    0.785346 0.657872 0.412973 0.238381
H2    H     H_    0.214866 0.341910 0.586885 0.239670
H3    H     H_    0.215528 0.341290 0.413776 0.238842
H4    H     H_    0.783604 0.659455 0.585071 0.239005
H5    H     H_    0.785253 0.342131 0.587005 0.238490
H6    H     H_    0.213963 0.657065 0.412285 0.238105
H7    H     H_    0.214166 0.657239 0.587262 0.239218
H8    H     H_    0.782482 0.339663 0.415757 0.239495
H9    H     H_    0.286169 0.157029 0.912251 0.237711
H10   H     H_    0.714782 0.841999 0.086925 0.239400
H11   H     H_    0.716579 0.840341 0.914701 0.238716
H12   H     H_    0.285679 0.157501 0.087184 0.238991
H13   H     H_    0.285129 0.842006 0.086906 0.239774
H14   H     H_    0.714563 0.157678 0.912847 0.237668
H15   H     H_    0.718219 0.160906 0.083659 0.239587
H16   H     H_    0.284154 0.841093 0.913980 0.239502
C93   C     C_R   0.770235 0.686856 0.352739 0.638254
C94   C     C_R   0.230191 0.312762 0.646937 0.637913
C95   C     C_R   0.230502 0.312443 0.353396 0.634567
C96   C     C_R   0.769431 0.687853 0.646025 0.627694
C97   C     C_R   0.770045 0.313044 0.647148 0.638168
C98   C     C_R   0.229224 0.686251 0.352221 0.636449
C99   C     C_R   0.229109 0.686310 0.647546 0.627382
C100  C     C_R   0.768588 0.311585 0.354497 0.624366
C101  C     C_R   0.270969 0.186171 0.852141 0.635018
C102  C     C_R   0.729859 0.813065 0.147202 0.638949
C103  C     C_R   0.731064 0.811983 0.853847 0.630615
C104  C     C_R   0.270652 0.186559 0.147423 0.631108
C105  C     C_R   0.269895 0.812911 0.147035 0.638640
C106  C     C_R   0.729633 0.186646 0.852579 0.637847
C107  C     C_R   0.731923 0.188822 0.145080 0.624294
C108  C     C_R   0.269139 0.812243 0.853601 0.634039
C109  C     C_R   0.750614 0.683283 0.316173 -0.202357
C110  C     C_R   0.249876 0.316301 0.683441 -0.201663
C111  C     C_R   0.249754 0.316377 0.316488 -0.200055
C112  C     C_R   0.750945 0.683399 0.683648 -0.196900
C113  C     C_R   0.750390 0.316552 0.683672 -0.201821
C114  C     C_R   0.249116 0.683005 0.315930 -0.201865
C115  C     C_R   0.248703 0.682886 0.684148 -0.198718
C116  C     C_R   0.750637 0.316524 0.316407 -0.196684
C117  C     C_R   0.251089 0.182896 0.815827 -0.201043
C118  C     C_R   0.749424 0.816706 0.183822 -0.202422
C119  C     C_R   0.749683 0.816522 0.816356 -0.200676
C120  C     C_R   0.251031 0.183071 0.183985 -0.199584
C121  C     C_R   0.250266 0.816455 0.183584 -0.201466
C122  C     C_R   0.749246 0.183106 0.816015 -0.201288
C123  C     C_R   0.749565 0.183625 0.183419 -0.196863
C124  C     C_R   0.249950 0.816233 0.816626 -0.200742
C125  C     C_R   0.730499 0.647430 0.312204 0.534790
C126  C     C_R   0.269893 0.352256 0.687470 0.534291
C127  C     C_R   0.269334 0.352748 0.312032 0.536970
C128  C     C_R   0.731932 0.646520 0.688812 0.542728
C129  C     C_R   0.730308 0.352396 0.687646 0.534242
C130  C     C_R   0.269535 0.647506 0.312263 0.535606
C131  C     C_R   0.268912 0.647187 0.688152 0.542047
C132  C     C_R   0.732246 0.353918 0.310780 0.546076
C133  C     C_R   0.230644 0.147383 0.812147 0.537094
C134  C     C_R   0.769465 0.852633 0.187852 0.534896
C135  C     C_R   0.768624 0.853487 0.811344 0.541400
C136  C     C_R   0.230862 0.147285 0.187971 0.538793
C137  C     C_R   0.230265 0.852381 0.187625 0.534157
C138  C     C_R   0.769367 0.147302 0.812064 0.534866
C139  C     C_R   0.767593 0.145930 0.189348 0.544575
C140  C     C_R   0.230514 0.852703 0.812068 0.537561
C141  C     C_R   0.730109 0.615007 0.344464 0.581136
C142  C     C_R   0.270112 0.384819 0.655346 0.579732
C143  C     C_R   0.269571 0.385311 0.344164 0.573459
C144  C     C_R   0.731467 0.614009 0.656631 0.573559
C145  C     C_R   0.729990 0.384879 0.655441 0.580580
C146  C     C_R   0.269992 0.615142 0.344581 0.579453
C147  C     C_R   0.269499 0.614840 0.655811 0.574490
C148  C     C_R   0.731881 0.386453 0.342941 0.572664
C149  C     C_R   0.230132 0.115050 0.844493 0.574487
C150  C     C_R   0.769837 0.885063 0.155598 0.576506
C151  C     C_R   0.768867 0.886015 0.843510 0.578096
C152  C     C_R   0.230356 0.114900 0.155667 0.580464
C153  C     C_R   0.230000 0.884905 0.155461 0.574892
C154  C     C_R   0.769787 0.114913 0.844358 0.575168
C155  C     C_R   0.767895 0.113346 0.157237 0.577856
C156  C     C_R   0.230368 0.885315 0.844154 0.578225
C157  C     C_R   0.749912 0.618225 0.381307 -0.353049
C158  C     C_R   0.250236 0.381645 0.618576 -0.352995
C159  C     C_R   0.250148 0.381719 0.381362 -0.350577
C160  C     C_R   0.750095 0.618164 0.618707 -0.348705
C161  C     C_R   0.749833 0.381731 0.618647 -0.352727
C162  C     C_R   0.249957 0.618070 0.381180 -0.352514
C163  C     C_R   0.249796 0.617985 0.618879 -0.346790
C164  C     C_R   0.750002 0.381830 0.381300 -0.349502
C165  C     C_R   0.250137 0.118024 0.881131 -0.350809
C166  C     C_R   0.750095 0.881775 0.118696 -0.351828
C167  C     C_R   0.750082 0.881806 0.881289 -0.353413
C168  C     C_R   0.250094 0.118097 0.118780 -0.349933
C169  C     C_R   0.249810 0.881715 0.118635 -0.350874
C170  C     C_R   0.750017 0.118123 0.881222 -0.350853
C171  C     C_R   0.750078 0.118228 0.118628 -0.349114
C172  C     C_R   0.249742 0.881679 0.881404 -0.352931
C173  C     C_R   0.771262 0.714249 0.245613 -0.070440
C174  C     C_R   0.229214 0.285278 0.753956 -0.070625
C175  C     C_R   0.228306 0.284511 0.246818 -0.070760
C176  C     C_R   0.773884 0.716945 0.751567 -0.070354
C177  C     C_R   0.771024 0.285646 0.754253 -0.070558
C178  C     C_R   0.228512 0.713843 0.245297 -0.069928
C179  C     C_R   0.226861 0.715069 0.753419 -0.069951
C180  C     C_R   0.774621 0.281764 0.249853 -0.070321
C181  C     C_R   0.271820 0.213914 0.745334 -0.070065
C182  C     C_R   0.728787 0.785747 0.254392 -0.070615
C183  C     C_R   0.726929 0.783167 0.748217 -0.070244
C184  C     C_R   0.272540 0.214937 0.253633 -0.069806
C185  C     C_R   0.270842 0.785592 0.254214 -0.070704
C186  C     C_R   0.728598 0.214000 0.745433 -0.070410
C187  C     C_R   0.725564 0.218426 0.249918 -0.069952
C188  C     C_R   0.271640 0.784114 0.747257 -0.070456
C189  C     C_R   0.270585 0.247306 0.713360 0.680136
C190  C     C_R   0.730017 0.752339 0.286341 0.680515
C191  C     C_R   0.728208 0.749916 0.716098 0.679719
C192  C     C_R   0.271268 0.248271 0.285677 0.679432
C193  C     C_R   0.269628 0.752177 0.286158 0.680265
C194  C     C_R   0.729807 0.247419 0.713487 0.680200
C195  C     C_R   0.726854 0.251508 0.282221 0.679914
C196  C     C_R   0.270382 0.750766 0.715238 0.679574
C197  C     C_R   0.770028 0.747652 0.213658 0.679835
C198  C     C_R   0.230449 0.251884 0.785917 0.679645
C199  C     C_R   0.229588 0.251188 0.214775 0.679887
C200  C     C_R   0.772551 0.750122 0.783769 0.680311
C201  C     C_R   0.769810 0.252230 0.786197 0.679707
C202  C     C_R   0.229717 0.747266 0.213352 0.679792
C203  C     C_R   0.228135 0.748399 0.785475 0.680031
C204  C     C_R   0.773348 0.248650 0.217580 0.680303
C205  C     C_R   0.249640 0.282266 0.717645 -0.006368
C206  C     C_R   0.750888 0.717312 0.281974 -0.006268
C207  C     C_R   0.751290 0.717499 0.717783 -0.008173
C208  C     C_R   0.249516 0.282336 0.282287 -0.006812
C209  C     C_R   0.248826 0.717029 0.281725 -0.006268
C210  C     C_R   0.750657 0.282521 0.717874 -0.006275
C211  C     C_R   0.750984 0.282491 0.282182 -0.009034
C212  C     C_R   0.248370 0.716960 0.718308 -0.007325
C213  C     C_R   0.749157 0.782680 0.218026 -0.006169
C214  C     C_R   0.251387 0.216927 0.781630 -0.006381
C215  C     C_R   0.251333 0.217121 0.218167 -0.006977
C216  C     C_R   0.749446 0.782518 0.782110 -0.007431
C217  C     C_R   0.748964 0.217129 0.781809 -0.006291
C218  C     C_R   0.250521 0.782420 0.217786 -0.006322
C219  C     C_R   0.250163 0.782198 0.782415 -0.006920
C220  C     C_R   0.749221 0.217669 0.217626 -0.008738
C221  C     C_R   0.467564 0.500000 0.500007 -0.244205
C222  C     C_R   0.532436 0.500002 0.499993 -0.244132
C223  C     C_R   0.967564 0.999997 0.000005 -0.244613
C224  C     C_R   0.032437 0.999999 0.999993 -0.244559
C225  C     C_R   0.516162 0.470259 0.473416 0.578541
C226  C     C_R   0.483838 0.529743 0.526584 0.578924
C227  C     C_R   0.483795 0.470258 0.473423 0.578661
C228  C     C_R   0.516206 0.529744 0.526577 0.578761
C229  C     C_R   0.016195 0.029784 0.973482 0.578848
C230  C     C_R   0.983806 0.970212 0.026516 0.578741
C231  C     C_R   0.983828 0.029783 0.973488 0.578681
C232  C     C_R   0.016173 0.970213 0.026510 0.578711
F1    F     F_    0.630036 0.478323 0.576196 -0.512995
F2    F     F_    0.369964 0.521667 0.423801 -0.512325
F3    F     F_    0.369953 0.478344 0.576214 -0.512548
F4    F     F_    0.630047 0.521668 0.423790 -0.513137
F5    F     F_    0.130058 0.021563 0.076243 -0.512454
F6    F     F_    0.869942 0.978453 0.923752 -0.513650
F7    F     F_    0.869981 0.021528 0.076263 -0.514609
F8    F     F_    0.130021 0.978453 0.923741 -0.512967
C233  C     C_3   0.793289 0.674932 0.243180 -0.384100
C234  C     C_3   0.815304 0.671950 0.203568 -0.222772
C235  C     C_3   0.835568 0.630993 0.206242 -0.869104
H17   H     H_    0.850036 0.631682 0.236489 0.268210
H18   H     H_    0.820832 0.601095 0.206424 0.273782
H19   H     H_    0.851239 0.629629 0.177270 0.275255
H20   H     H_    0.801563 0.670208 0.172674 0.280993
H21   H     H_    0.830925 0.700959 0.202900 0.281873
H22   H     H_    0.807830 0.674984 0.273406 0.222529
H23   H     H_    0.778889 0.644671 0.243622 0.222457
C236  C     C_3   0.207131 0.324538 0.756339 -0.384184
C237  C     C_3   0.185122 0.327528 0.795959 -0.222628
C238  C     C_3   0.164850 0.368477 0.793274 -0.869386
H24   H     H_    0.179580 0.398380 0.793085 0.272823
H25   H     H_    0.150382 0.367773 0.763027 0.269215
H26   H     H_    0.149178 0.369841 0.822246 0.275247
H27   H     H_    0.169505 0.298515 0.796642 0.282494
H28   H     H_    0.198869 0.329288 0.826847 0.280306
H29   H     H_    0.221490 0.354837 0.755855 0.221572
H30   H     H_    0.192584 0.324408 0.726119 0.223228
C239  C     C_3   0.205399 0.322871 0.245360 -0.384965
C240  C     C_3   0.182632 0.325076 0.206545 -0.220457
C241  C     C_3   0.161641 0.365238 0.210067 -0.876638
H31   H     H_    0.147753 0.363952 0.240825 0.267702
H32   H     H_    0.175792 0.395688 0.209805 0.272465
H33   H     H_    0.145422 0.366045 0.181675 0.275507
H34   H     H_    0.195777 0.327388 0.175182 0.279630
H35   H     H_    0.167567 0.295486 0.206344 0.282666
H36   H     H_    0.191407 0.322093 0.276078 0.224017
H37   H     H_    0.219146 0.353731 0.245450 0.219768
C242  C     C_3   0.798204 0.680317 0.751196 -0.385829
C243  C     C_3   0.822444 0.679755 0.788245 -0.218970
C244  C     C_3   0.844751 0.641218 0.782952 -0.879487
H38   H     H_    0.831792 0.609756 0.784180 0.271435
H39   H     H_    0.857360 0.643561 0.751170 0.267333
H40   H     H_    0.862052 0.641591 0.810051 0.276258
H41   H     H_    0.836365 0.710425 0.787447 0.283455
H42   H     H_    0.810602 0.676423 0.820538 0.278869
H43   H     H_    0.785628 0.648489 0.751995 0.216577
H44   H     H_    0.811003 0.682142 0.719503 0.226616
C245  C     C_3   0.793025 0.325040 0.756717 -0.384203
C246  C     C_3   0.815020 0.328102 0.796359 -0.222746
C247  C     C_3   0.835248 0.369141 0.793721 -0.869106
H45   H     H_    0.849729 0.368518 0.763492 0.268433
H46   H     H_    0.820485 0.398980 0.793528 0.273524
H47   H     H_    0.850906 0.370560 0.822714 0.275289
H48   H     H_    0.801263 0.329781 0.827235 0.280836
H49   H     H_    0.830668 0.299156 0.797040 0.281998
H50   H     H_    0.807580 0.325041 0.726510 0.222552
H51   H     H_    0.778606 0.355251 0.756258 0.222303
C248  C     C_3   0.206592 0.674364 0.242787 -0.385515
C249  C     C_3   0.184712 0.671136 0.203035 -0.221422
C250  C     C_3   0.164603 0.629975 0.205624 -0.872883
H52   H     H_    0.179456 0.600225 0.205911 0.272812
H53   H     H_    0.150057 0.630533 0.235793 0.268126
H54   H     H_    0.149011 0.628434 0.176567 0.275748
H55   H     H_    0.168981 0.699988 0.202243 0.281976
H56   H     H_    0.198554 0.669513 0.172231 0.280582
H57   H     H_    0.221070 0.644210 0.243382 0.221014
H58   H     H_    0.191954 0.674357 0.272913 0.222791
C251  C     C_3   0.203708 0.676939 0.754536 -0.385806
C252  C     C_3   0.180714 0.674880 0.793075 -0.220173
C253  C     C_3   0.159532 0.634893 0.789230 -0.878351
H59   H     H_    0.145862 0.636309 0.758275 0.267320
H60   H     H_    0.173520 0.604325 0.789664 0.272256
H61   H     H_    0.143118 0.634200 0.817394 0.275875
H62   H     H_    0.193665 0.672432 0.824593 0.279405
H63   H     H_    0.165803 0.704593 0.793129 0.282692
H64   H     H_    0.189882 0.677909 0.723671 0.225401
H65   H     H_    0.217271 0.645942 0.754526 0.217566
C254  C     C_3   0.799929 0.317058 0.251732 -0.385580
C255  C     C_3   0.824963 0.316748 0.215760 -0.218670
C256  C     C_3   0.847954 0.354364 0.222164 -0.880742
H66   H     H_    0.835713 0.386337 0.220409 0.270524
H67   H     H_    0.859771 0.351474 0.254507 0.267947
H68   H     H_    0.865852 0.353329 0.195876 0.276546
H69   H     H_    0.838214 0.285544 0.217074 0.284770
H70   H     H_    0.813905 0.320613 0.182972 0.277648
H71   H     H_    0.788259 0.349533 0.250715 0.213752
H72   H     H_    0.811961 0.314265 0.283946 0.229876
C257  C     C_3   0.293881 0.174631 0.742980 -0.385601
C258  C     C_3   0.315880 0.171572 0.703361 -0.221293
C259  C     C_3   0.336126 0.130597 0.706106 -0.873956
H73   H     H_    0.350584 0.131311 0.736363 0.267780
H74   H     H_    0.321376 0.100712 0.706327 0.273063
H75   H     H_    0.351804 0.129176 0.677145 0.275643
H76   H     H_    0.302129 0.169801 0.672477 0.280472
H77   H     H_    0.331513 0.200566 0.702640 0.281996
H78   H     H_    0.308438 0.174776 0.773190 0.223018
H79   H     H_    0.279504 0.144347 0.743515 0.220676
C260  C     C_3   0.706766 0.825068 0.256832 -0.383575
C261  C     C_3   0.684766 0.828062 0.296462 -0.224096
C262  C     C_3   0.664521 0.869038 0.293812 -0.864850
H80   H     H_    0.679271 0.898922 0.293630 0.273656
H81   H     H_    0.650042 0.868370 0.263575 0.269401
H82   H     H_    0.648859 0.870407 0.322796 0.275222
H83   H     H_    0.669131 0.799067 0.297134 0.282402
H84   H     H_    0.698520 0.829785 0.327346 0.280946
H85   H     H_    0.721169 0.855326 0.256381 0.222881
H86   H     H_    0.692216 0.825017 0.226614 0.223055
C263  C     C_3   0.702719 0.819942 0.748398 -0.385170
C264  C     C_3   0.678899 0.820998 0.710814 -0.219718
C265  C     C_3   0.656937 0.859989 0.715591 -0.877606
H87   H     H_    0.643956 0.857922 0.747091 0.267644
H88   H     H_    0.670225 0.891186 0.714625 0.271510
H89   H     H_    0.639934 0.859944 0.688116 0.276191
H90   H     H_    0.691131 0.824062 0.678784 0.278543
H91   H     H_    0.664645 0.790627 0.711316 0.283882
H92   H     H_    0.689598 0.817975 0.779817 0.227485
H93   H     H_    0.715416 0.851684 0.748079 0.216320
C266  C     C_3   0.295403 0.176528 0.255102 -0.386312
C267  C     C_3   0.318068 0.174174 0.294021 -0.220888
C268  C     C_3   0.338964 0.133908 0.290542 -0.876658
H94   H     H_    0.324736 0.103529 0.290733 0.272578
H95   H     H_    0.352904 0.135141 0.259828 0.267126
H96   H     H_    0.355133 0.133001 0.318987 0.275849
H97   H     H_    0.333208 0.203685 0.294320 0.282211
H98   H     H_    0.304845 0.171905 0.325320 0.279811
H99   H     H_    0.281619 0.145699 0.254863 0.218372
H100  H     H_    0.309473 0.177341 0.224458 0.224152
C269  C     C_3   0.292801 0.825030 0.256723 -0.384159
C270  C     C_3   0.314766 0.828124 0.296396 -0.222836
C271  C     C_3   0.334961 0.869197 0.293789 -0.868390
H101  H     H_    0.349465 0.868598 0.263582 0.269361
H102  H     H_    0.320173 0.899011 0.293576 0.272789
H103  H     H_    0.350597 0.870641 0.322805 0.275335
H104  H     H_    0.300986 0.829781 0.327253 0.280558
H105  H     H_    0.330435 0.799203 0.297099 0.282468
H106  H     H_    0.307377 0.825071 0.226536 0.222750
H107  H     H_    0.278353 0.855213 0.256256 0.222356
C272  C     C_3   0.706606 0.174596 0.742982 -0.384783
C273  C     C_3   0.684612 0.171508 0.703341 -0.222167
C274  C     C_3   0.664404 0.130450 0.705997 -0.870908
H108  H     H_    0.679180 0.100624 0.706197 0.273145
H109  H     H_    0.649927 0.131067 0.736230 0.268242
H110  H     H_    0.648742 0.129007 0.677009 0.275560
H111  H     H_    0.668954 0.200442 0.702653 0.281894
H112  H     H_    0.698370 0.169834 0.672465 0.280888
H113  H     H_    0.721032 0.144392 0.743451 0.222228
H114  H     H_    0.692052 0.174597 0.773189 0.222291
C275  C     C_3   0.700207 0.183206 0.247949 -0.386407
C276  C     C_3   0.675000 0.183748 0.283674 -0.218547
C277  C     C_3   0.651874 0.146333 0.277050 -0.880309
H115  H     H_    0.640211 0.149339 0.244606 0.267598
H116  H     H_    0.663969 0.114254 0.278893 0.270806
H117  H     H_    0.633866 0.147509 0.303181 0.276756
H118  H     H_    0.685879 0.179782 0.316568 0.277996
H119  H     H_    0.661900 0.215074 0.282230 0.284290
H120  H     H_    0.688329 0.185930 0.215612 0.227930
H121  H     H_    0.711812 0.150693 0.249185 0.214657
C278  C     C_3   0.294792 0.822246 0.746078 -0.384893
C279  C     C_3   0.317711 0.824326 0.707441 -0.220814
C280  C     C_3   0.338838 0.864382 0.711115 -0.874609
H122  H     H_    0.324802 0.894907 0.710707 0.272155
H123  H     H_    0.352595 0.863045 0.741994 0.268335
H124  H     H_    0.355176 0.865084 0.682862 0.275572
H125  H     H_    0.332671 0.794664 0.707370 0.283198
H126  H     H_    0.304692 0.826692 0.675972 0.279288
H127  H     H_    0.281230 0.853240 0.746120 0.218845
H128  H     H_    0.308661 0.821268 0.776906 0.224981
F9    F     F_    0.289450 0.246934 0.677606 -0.651965
F10   F     F_    0.711213 0.752753 0.322160 -0.651930
F11   F     F_    0.707338 0.747985 0.682682 -0.651927
F12   F     F_    0.290865 0.248697 0.320644 -0.652538
F13   F     F_    0.288375 0.752706 0.322043 -0.652057
F14   F     F_    0.711007 0.246940 0.677656 -0.652072
F15   F     F_    0.705021 0.254595 0.314282 -0.651344
F16   F     F_    0.290239 0.750081 0.680576 -0.652454
F17   F     F_    0.788828 0.747233 0.177835 -0.652730
F18   F     F_    0.211589 0.252248 0.821677 -0.652757
F19   F     F_    0.210010 0.250777 0.179785 -0.652027
F20   F     F_    0.793355 0.751952 0.817271 -0.651236
F21   F     F_    0.788607 0.252706 0.822032 -0.652765
F22   F     F_    0.210952 0.746743 0.177485 -0.652555
F23   F     F_    0.208287 0.749061 0.820147 -0.651648
F24   F     F_    0.795207 0.245511 0.185560 -0.650596
F25   F     F_    0.567081 0.478504 0.575690 -0.520192
F26   F     F_    0.432919 0.521488 0.424308 -0.519880
F27   F     F_    0.432909 0.478521 0.575711 -0.520064
F28   F     F_    0.567090 0.521491 0.424292 -0.520055
F29   F     F_    0.067104 0.021383 0.075735 -0.520146
F30   F     F_    0.932896 0.978628 0.924260 -0.520359
F31   F     F_    0.932936 0.021354 0.075757 -0.520534
F32   F     F_    0.067066 0.978627 0.924246 -0.520205
C281  C     C_3   0.133535 0.481395 0.418444 -0.430727
C282  C     C_3   0.142890 0.523673 0.394613 -0.358021
C283  C     C_3   0.162723 0.513931 0.354195 -0.847128
H129  H     H_    0.184474 0.496857 0.363939 0.253516
H130  H     H_    0.149589 0.493146 0.330655 0.266355
H131  H     H_    0.169028 0.545096 0.337637 0.255677
H132  H     H_    0.121709 0.541756 0.384226 0.231217
H133  H     H_    0.156415 0.545154 0.417060 0.238612
H134  H     H_    0.154627 0.461963 0.426114 0.213173
H135  H     H_    0.120493 0.459769 0.395791 0.210638
C284  C     C_3   0.866793 0.526740 0.579329 -0.423011
C285  C     C_3   0.861272 0.576443 0.580624 -0.311289
C286  C     C_3   0.842703 0.589619 0.621285 -0.848454
H136  H     H_    0.819604 0.573281 0.621215 0.255445
H137  H     H_    0.855507 0.580418 0.651613 0.259530
H138  H     H_    0.839080 0.625612 0.621345 0.266891
H139  H     H_    0.883791 0.594247 0.580824 0.220205
H140  H     H_    0.848308 0.587061 0.550967 0.258244
H141  H     H_    0.844073 0.509511 0.581030 0.188126
H142  H     H_    0.878803 0.516116 0.609690 0.204440
C287  C     C_3   0.133854 0.514484 0.582164 -0.410457
C288  C     C_3   0.140953 0.562426 0.593691 -0.325496
C289  C     C_3   0.164455 0.565743 0.631174 -0.849379
H143  H     H_    0.155334 0.549154 0.660992 0.262781
H144  H     H_    0.186872 0.550454 0.621499 0.250892
H145  H     H_    0.168774 0.600720 0.639099 0.257657
H146  H     H_    0.150533 0.579669 0.564527 0.251170
H147  H     H_    0.119383 0.579364 0.603973 0.228104
H148  H     H_    0.121908 0.497677 0.609679 0.192441
H149  H     H_    0.156125 0.496256 0.580014 0.193798
C290  C     C_3   0.866420 0.473568 0.420451 -0.423652
C291  C     C_3   0.861866 0.423671 0.419546 -0.310219
C292  C     C_3   0.842927 0.409516 0.379535 -0.847346
H150  H     H_    0.819572 0.425045 0.380142 0.256304
H151  H     H_    0.855128 0.418918 0.348773 0.258802
H152  H     H_    0.839895 0.373408 0.379859 0.266516
H153  H     H_    0.884751 0.406871 0.418696 0.220179
H154  H     H_    0.849585 0.412709 0.449673 0.257530
H155  H     H_    0.843366 0.489872 0.419145 0.188548
H156  H     H_    0.877844 0.484467 0.389744 0.204733
C293  C     C_3   0.632896 0.967593 0.922682 -0.424692
C294  C     C_3   0.644033 0.004711 0.892577 -0.364356
C295  C     C_3   0.663392 0.987011 0.854479 -0.844335
H157  H     H_    0.684364 0.969865 0.867097 0.253421
H158  H     H_    0.649374 0.963915 0.834370 0.265131
H159  H     H_    0.671026 0.014559 0.833244 0.257813
H160  H     H_    0.623639 0.022626 0.879176 0.231174
H161  H     H_    0.658466 0.028302 0.911495 0.228759
H162  H     H_    0.653025 0.947780 0.933548 0.225833
H163  H     H_    0.619138 0.943653 0.903494 0.209336
C296  C     C_3   0.366653 0.009793 0.082442 -0.407911
C297  C     C_3   0.355072 0.055234 0.096656 -0.338580
C298  C     C_3   0.327850 0.051758 0.128704 -0.834591
H164  H     H_    0.307767 0.035258 0.112740 0.244439
H165  H     H_    0.334845 0.032915 0.158315 0.262321
H166  H     H_    0.320524 0.085046 0.139095 0.250313
H167  H     H_    0.374094 0.073114 0.113500 0.217762
H168  H     H_    0.347540 0.074613 0.067656 0.250745
H169  H     H_    0.346578 0.987012 0.079800 0.200907
H170  H     H_    0.380720 0.994727 0.108963 0.192109
C299  C     C_3   0.633763 0.026243 0.079257 -0.407619
C300  C     C_3   0.640647 0.075298 0.084904 -0.316011
C301  C     C_3   0.661660 0.083539 0.124513 -0.851827
H171  H     H_    0.650293 0.071674 0.155056 0.260604
H172  H     H_    0.684280 0.066511 0.120252 0.255108
H173  H     H_    0.666134 0.119197 0.127867 0.261486
H174  H     H_    0.652255 0.088269 0.055016 0.255251
H175  H     H_    0.618803 0.093825 0.089790 0.225716
H176  H     H_    0.621662 0.012814 0.108481 0.192500
H177  H     H_    0.656151 0.008172 0.079624 0.190797
C302  C     C_3   0.366410 0.985640 0.917306 -0.423778
C303  C     C_3   0.354428 0.029258 0.898590 -0.363870
C304  C     C_3   0.336657 0.022295 0.855730 -0.856099
H178  H     H_    0.352098 0.007490 0.830521 0.266022
H179  H     H_    0.316321 0.000511 0.861297 0.257567
H180  H     H_    0.328125 0.054286 0.843266 0.255656
H181  H     H_    0.338656 0.045567 0.922246 0.242433
H182  H     H_    0.374236 0.051801 0.892462 0.228291
H183  H     H_    0.380013 0.969007 0.891495 0.210223
H184  H     H_    0.346559 0.963176 0.923453 0.209089
C305  C     C_3   0.063861 0.482644 0.418301 -0.425158
C306  C     C_3   0.057044 0.433373 0.415698 -0.339325
C307  C     C_3   0.039211 0.421859 0.373928 -0.832972
H185  H     H_    0.016291 0.438563 0.373689 0.255780
H186  H     H_    0.052709 0.431766 0.344431 0.263757
H187  H     H_    0.035228 0.385960 0.372613 0.267099
H188  H     H_    0.079108 0.414483 0.416297 0.230079
H189  H     H_    0.042962 0.423185 0.444550 0.245731
H190  H     H_    0.041605 0.500908 0.416968 0.216386
H191  H     H_    0.076228 0.493941 0.388422 0.205871
C308  C     C_3   0.936480 0.524805 0.579455 -0.418374
C309  C     C_3   0.942655 0.484003 0.607612 -0.335917
C310  C     C_3   0.962757 0.495049 0.647425 -0.838757
H192  H     H_    0.985846 0.507342 0.636632 0.257456
H193  H     H_    0.951204 0.520281 0.668028 0.263723
H194  H     H_    0.966306 0.465163 0.667571 0.262345
H195  H     H_    0.920356 0.469734 0.619185 0.220668
H196  H     H_    0.954713 0.458619 0.587880 0.249025
H197  H     H_    0.958940 0.540610 0.570858 0.213603
H198  H     H_    0.924477 0.549944 0.599406 0.205567
C311  C     C_3   0.064122 0.530049 0.578672 -0.421299
C312  C     C_3   0.054421 0.578271 0.574030 -0.347796
C313  C     C_3   0.039078 0.595136 0.615957 -0.832984
H199  H     H_    0.017899 0.575693 0.623477 0.257740
H200  H     H_    0.055528 0.593036 0.644034 0.263494
H201  H     H_    0.032236 0.629898 0.611481 0.268492
H202  H     H_    0.075029 0.598891 0.566545 0.228675
H203  H     H_    0.037743 0.582298 0.546632 0.248231
H204  H     H_    0.043181 0.509312 0.583600 0.210706
H205  H     H_    0.077273 0.526548 0.609595 0.208481
C314  C     C_3   0.935962 0.479523 0.418468 -0.418380
C315  C     C_3   0.940102 0.521070 0.390628 -0.337225
C316  C     C_3   0.958755 0.511737 0.349041 -0.839027
H206  H     H_    0.982592 0.500769 0.357696 0.257999
H207  H     H_    0.947086 0.486092 0.329056 0.263660
H208  H     H_    0.960573 0.542063 0.329091 0.262541
H209  H     H_    0.917089 0.534562 0.381142 0.221370
H210  H     H_    0.952408 0.546602 0.409920 0.248698
H211  H     H_    0.959151 0.465433 0.426053 0.212064
H212  H     H_    0.924503 0.453632 0.398782 0.205801
C317  C     C_3   0.563436 0.972509 0.921466 -0.428188
C318  C     C_3   0.554658 0.924071 0.926552 -0.340762
C319  C     C_3   0.536551 0.907539 0.886741 -0.828457
H213  H     H_    0.514398 0.925877 0.883237 0.257550
H214  H     H_    0.550605 0.911450 0.856362 0.264586
H215  H     H_    0.531021 0.872292 0.891107 0.268424
H216  H     H_    0.575961 0.903891 0.930547 0.231911
H217  H     H_    0.540069 0.919667 0.956366 0.244457
H218  H     H_    0.542042 0.992014 0.916526 0.215187
H219  H     H_    0.576300 0.978009 0.890399 0.205432
C320  C     C_3   0.434088 0.039250 0.075934 -0.397596
C321  C     C_3   0.432602 0.089533 0.072659 -0.374976
C322  C     C_3   0.454522 0.108238 0.037993 -0.764669
H220  H     H_    0.478590 0.096272 0.043317 0.261610
H221  H     H_    0.446448 0.099066 0.004595 0.266331
H222  H     H_    0.454642 0.144520 0.040282 0.253205
H223  H     H_    0.408648 0.100523 0.064819 0.230357
H224  H     H_    0.439119 0.103641 0.105061 0.221473
H225  H     H_    0.424189 0.029284 0.107918 0.172788
H226  H     H_    0.458724 0.028979 0.078639 0.209416
C323  C     C_3   0.564326 0.042258 0.073512 -0.417506
C324  C     C_3   0.553478 0.088657 0.061343 -0.355703
C325  C     C_3   0.537160 0.110779 0.099953 -0.841469
H227  H     H_    0.516685 0.091175 0.110451 0.261857
H228  H     H_    0.553444 0.114409 0.128072 0.268367
H229  H     H_    0.529041 0.143802 0.089916 0.266977
H230  H     H_    0.573682 0.108963 0.051240 0.230859
H231  H     H_    0.537099 0.087645 0.033300 0.240813
H232  H     H_    0.543988 0.021775 0.082553 0.214945
H233  H     H_    0.577878 0.044553 0.104207 0.209374
C326  C     C_3   0.436627 0.975919 0.920738 -0.396084
C327  C     C_3   0.441029 0.012231 0.886329 -0.334682
C328  C     C_3   0.466837 0.000795 0.853881 -0.842882
H234  H     H_    0.489556 0.998943 0.871157 0.260855
H235  H     H_    0.461880 0.968939 0.837688 0.264101
H236  H     H_    0.468383 0.026589 0.828266 0.261373
H237  H     H_    0.419227 0.017068 0.867543 0.225124
H238  H     H_    0.447008 0.043673 0.902676 0.243125
H239  H     H_    0.459767 0.963498 0.931014 0.215410
H240  H     H_    0.425807 0.946494 0.905805 0.190885
F33   F     F_    0.531675 0.440867 0.448108 -0.529488
F34   F     F_    0.468326 0.559136 0.551892 -0.528750
F35   F     F_    0.468239 0.440865 0.448120 -0.529263
F36   F     F_    0.531761 0.559137 0.551880 -0.528977
F37   F     F_    0.031740 0.059218 0.948239 -0.528534
F38   F     F_    0.968261 0.940777 0.051758 -0.528712
F39   F     F_    0.968305 0.059216 0.948251 -0.528661
F40   F     F_    0.031697 0.940781 0.051748 -0.528702
F41   F     F_    0.789727 0.721593 0.356981 -0.606180
F42   F     F_    0.210775 0.277947 0.642652 -0.605233
F43   F     F_    0.211513 0.277219 0.358088 -0.607141
F44   F     F_    0.787845 0.723574 0.640618 -0.611444
F45   F     F_    0.789514 0.278326 0.642906 -0.606012
F46   F     F_    0.209424 0.720632 0.356161 -0.607034
F47   F     F_    0.209525 0.720893 0.643268 -0.610583
F48   F     F_    0.786361 0.275341 0.360402 -0.611667
F49   F     F_    0.290795 0.220566 0.856093 -0.608119
F50   F     F_    0.710436 0.778259 0.142905 -0.604895
F51   F     F_    0.712728 0.776160 0.859115 -0.608172
F52   F     F_    0.290211 0.221215 0.143183 -0.610351
F53   F     F_    0.289299 0.778127 0.142740 -0.604765
F54   F     F_    0.710126 0.221325 0.856795 -0.606862
F55   F     F_    0.714481 0.225341 0.138910 -0.611523
F56   F     F_    0.287984 0.776922 0.858399 -0.606682
F57   F     F_    0.711337 0.643868 0.276898 -0.562237
F58   F     F_    0.289095 0.355812 0.722733 -0.563119
F59   F     F_    0.288086 0.356709 0.276342 -0.564434
F60   F     F_    0.713950 0.642028 0.725221 -0.563223
F61   F     F_    0.711121 0.355905 0.722917 -0.562793
F62   F     F_    0.288942 0.644247 0.277209 -0.562511
F63   F     F_    0.287994 0.643724 0.723548 -0.563161
F64   F     F_    0.714810 0.358922 0.273907 -0.563016
F65   F     F_    0.211255 0.144089 0.777063 -0.563471
F66   F     F_    0.788568 0.856263 0.223214 -0.563502
F67   F     F_    0.786728 0.858074 0.775067 -0.562269
F68   F     F_    0.211752 0.143764 0.223323 -0.562551
F69   F     F_    0.211113 0.855937 0.222930 -0.564161
F70   F     F_    0.788511 0.143762 0.776749 -0.563788
F71   F     F_    0.784722 0.140676 0.226471 -0.561923
F72   F     F_    0.211833 0.856729 0.776308 -0.562838
F73   F     F_    0.710373 0.580638 0.339432 -0.528187
F74   F     F_    0.289750 0.419288 0.660448 -0.529777
F75   F     F_    0.288754 0.420213 0.338629 -0.537338
F76   F     F_    0.712887 0.578581 0.662852 -0.537596
F77   F     F_    0.710287 0.419237 0.660481 -0.528818
F78   F     F_    0.290052 0.581148 0.339875 -0.529293
F79   F     F_    0.289343 0.580642 0.660829 -0.536890
F80   F     F_    0.713946 0.422408 0.336233 -0.537997
F81   F     F_    0.210044 0.081043 0.839778 -0.536048
F82   F     F_    0.789492 0.919512 0.160700 -0.534563
F83   F     F_    0.787389 0.921524 0.837401 -0.531108
F84   F     F_    0.210554 0.080612 0.160683 -0.529866
F85   F     F_    0.210384 0.919351 0.160577 -0.536444
F86   F     F_    0.789526 0.080592 0.839344 -0.535568
F87   F     F_    0.785445 0.077073 0.164250 -0.532609
F88   F     F_    0.211331 0.920318 0.838512 -0.530856

loop_
_geom_bond_atom_site_label_1
_geom_bond_atom_site_label_2
_geom_bond_distance
_ccdc_geom_bond_type
C317  H219  1.108099 S    
C283  H131  1.110558 S    
C230  C232  1.391304 A    
C296  C297  1.536885 S    
O9    C25   1.281691 A    
C318  C319  1.525522 S    
Zn7   O13   1.926014 S    
C232  F40   1.358081 S    
C262  H80   1.110954 S    
C269  H106  1.112013 S    
C182  C190  1.410639 A    
N8    C75   1.357398 A    
O24   C25   1.278826 A    
Zn5   O51   1.923977 S    
C142  C158  1.411000 A    
C187  C275  1.531946 S    
C138  F70   1.357973 S    
C191  F11   1.357167 S    
C187  C220  1.414435 A    
C293  C294  1.534136 S    
C1    F1    1.358073 S    
O18   C34   1.281326 A    
C315  H210  1.109749 S    
C146  C162  1.410851 A    
C180  C254  1.531948 S    
O42   C44   1.277781 A    
C325  H228  1.110875 S    
C248  H57   1.112116 S    
C117  C214  1.471101 S    
O46   C46   1.280846 A    
C176  C207  1.414298 A    
C306  H188  1.110668 S    
C316  H207  1.110847 S    
C177  C210  1.414440 A    
C147  F79   1.357714 S    
C312  C313  1.525974 S    
Zn10  O38   1.923035 S    
C197  C213  1.403083 A    
Zn5   O20   1.925787 S    
C148  F80   1.357727 S    
C274  H110  1.110432 S    
C293  H162  1.106811 S    
C297  C298  1.527044 S    
C78   H2    1.082989 S    
C9    F25   1.358270 S    
C39   C44   1.469554 S    
C321  H224  1.111715 S    
C6    F6    1.358074 S    
C294  C295  1.526284 S    
C251  C252  1.535152 S    
O11   C27   1.281008 A    
C234  H20   1.111466 S    
C98   C114  1.400333 A    
C275  H121  1.112285 S    
C308  H197  1.110376 S    
C273  C274  1.527122 S    
C84   H8    1.083045 S    
C273  H112  1.111464 S    
C197  F17   1.357157 S    
C314  H212  1.107193 S    
C90   H14   1.082995 S    
C176  C200  1.410623 A    
C188  C278  1.531768 S    
C186  C194  1.410723 A    
C267  H97   1.111369 S    
C177  C201  1.410635 A    
C138  C154  1.394780 A    
C144  F76   1.357718 S    
Zn4   O2    1.939780 S    
Zn3   O45   1.923246 S    
C15   C20   1.400066 A    
C309  H195  1.110074 S    
C173  C197  1.410655 A    
C313  H200  1.110868 S    
O35   C30   1.279412 A    
C291  H153  1.110166 S    
C255  H70   1.111497 S    
C140  F72   1.357979 S    
C5    C13   1.391246 A    
C56   C72   1.418996 A    
C323  C324  1.537605 S    
C186  C217  1.414358 A    
C225  F33   1.358083 S    
Zn15  O4    1.933918 S    
C100  F48   1.357512 S    
C322  H222  1.110323 S    
C314  H211  1.110265 S    
C272  C273  1.535324 S    
C276  H118  1.111490 S    
Zn16  O33   1.928961 S    
Zn14  O30   1.928473 S    
N1    N4    1.331899 A    
C125  C141  1.394754 A    
C282  H132  1.111167 S    
C235  H18   1.110952 S    
Zn4   O7    1.925403 S    
C79   C159  1.406153 A    
C306  C307  1.525132 S    
C298  H166  1.110524 S    
O5    C21   1.281883 A    
C109  C206  1.471093 S    
C304  H178  1.110843 S    
O21   C28   1.278923 A    
C129  C145  1.394840 A    
C36   C167  1.475594 S    
Zn12  O24   1.929061 S    
C112  C207  1.470840 S    
C90   C106  1.394305 A    
O23   C26   1.278851 A    
C277  H116  1.110971 S    
C190  F10   1.357162 S    
C241  H31   1.110947 S    
C136  C152  1.394478 A    
C236  H30   1.111987 S    
C52   C60   1.422542 A    
C51   C287  1.531854 S    
C141  F73   1.357740 S    
C238  H26   1.110439 S    
C254  H72   1.111628 S    
C242  H43   1.112235 S    
C281  H135  1.106701 S    
C146  F78   1.357729 S    
C63   C323  1.532323 S    
O52   C48   1.277943 A    
C328  H234  1.110526 S    
C145  F77   1.357735 S    
C110  C126  1.399897 A    
C47   C71   1.480502 S    
C8    C39   1.409254 A    
Zn7   O3    1.939778 S    
C147  C163  1.410509 A    
C317  C318  1.534390 S    
C262  H82   1.110440 S    
C297  H168  1.111057 S    
C244  H40   1.110420 S    
C52   C70   1.420188 A    
C134  F66   1.357983 S    
C85   H9    1.083002 S    
C319  H213  1.110238 S    
C106  C122  1.400326 A    
C260  C261  1.535384 S    
N5    N8    1.331974 A    
C121  C137  1.399931 A    
C324  C325  1.526280 S    
O30   C35   1.279033 A    
C304  H180  1.110760 S    
O37   C41   1.277777 A    
C237  H27   1.111461 S    
C285  H140  1.109291 S    
C266  H99   1.112154 S    
C139  C155  1.394612 A    
C27   C160  1.475099 S    
C114  C209  1.471139 S    
C247  H45   1.110961 S    
C15   F31   1.358273 S    
C282  C283  1.525979 S    
C78   C158  1.406224 A    
C311  C312  1.537584 S    
C294  H161  1.111032 S    
C40   C43   1.469571 S    
Zn10  O22   1.928473 S    
O12   C28   1.281708 A    
C275  C276  1.535116 S    
Zn8   O14   1.926012 S    
C292  H151  1.110824 S    
C241  H33   1.110411 S    
C79   C95   1.394276 A    
C244  H38   1.110957 S    
C192  F12   1.357112 S    
C184  C266  1.531638 S    
Zn13  O29   1.928476 S    
C302  H183  1.103328 S    
C276  C277  1.527305 S    
O41   C43   1.277783 A    
Zn10  O2    1.934203 S    
C240  H35   1.111414 S    
O32   C33   1.278837 A    
C86   C166  1.406226 A    
C80   H4    1.083043 S    
Zn3   O1    1.939778 S    
C246  H48   1.111464 S    
C90   C170  1.406239 A    
C268  H94   1.110901 S    
C5    C39   1.409263 A    
C252  C253  1.527236 S    
C299  H177  1.109787 S    
C235  H17   1.110962 S    
C10   F26   1.358273 S    
C24   C163  1.475169 S    
C191  C207  1.403166 A    
C58   C66   1.419157 A    
C126  F58   1.357978 S    
C307  H187  1.110324 S    
C326  C327  1.537092 S    
C271  H102  1.110960 S    
C193  F13   1.357161 S    
C104  F52   1.357432 S    
Zn15  O31   1.929058 S    
C131  C147  1.394568 A    
C28   C159  1.475805 S    
C50   C70   1.420385 A    
C264  H91   1.111417 S    
C187  C195  1.410567 A    
C260  H86   1.112015 S    
C265  H88   1.110967 S    
C299  C300  1.536598 S    
C142  F74   1.357741 S    
Zn11  O2    1.933918 S    
C115  C131  1.399961 A    
C104  C120  1.400307 A    
Zn4   O46   1.923246 S    
C254  C255  1.535151 S    
C35   C168  1.475193 S    
C1    C9    1.391257 A    
C308  C309  1.535841 S    
C152  C168  1.410577 A    
C153  C169  1.410978 A    
C12   C17   1.400074 A    
C3    C11   1.391277 A    
C310  H192  1.110617 S    
C305  C306  1.534928 S    
Zn6   O19   1.925784 S    
C188  C219  1.414443 A    
C78   C94   1.394468 A    
C94   C110  1.400419 A    
C173  C206  1.414385 A    
C113  C210  1.471228 S    
C107  C123  1.400529 A    
N2    C73   1.356553 A    
C327  C328  1.525926 S    
C81   C161  1.406260 A    
C82   C98   1.394257 A    
C201  F21   1.357160 S    
C134  C150  1.394747 A    
C178  C202  1.410782 A    
C135  F67   1.357991 S    
C67   C76   1.481505 S    
C55   C71   1.420763 A    
C132  F64   1.357982 S    
C64   C326  1.530226 S    
C243  C244  1.527253 S    
C56   C64   1.423907 A    
C83   C99   1.393800 A    
C50   C284  1.530128 S    
Zn16  O44   1.923180 S    
C125  F57   1.357980 S    
C246  C247  1.527076 S    
C55   C299  1.532215 S    
C226  C228  1.391313 A    
C61   C67   1.419964 A    
C305  H190  1.108542 S    
C16   F32   1.358274 S    
C128  F60   1.357974 S    
Zn5   O17   1.926225 S    
O22   C27   1.279276 A    
C259  H74   1.110966 S    
C97   F45   1.357493 S    
C270  C271  1.527075 S    
C290  H155  1.110096 S    
C258  H77   1.111451 S    
C152  F84   1.357670 S    
C239  H36   1.111883 S    
C320  H225  1.105081 S    
C327  H238  1.111337 S    
O31   C34   1.278911 A    
C309  C310  1.525540 S    
C289  H145  1.110599 S    
C118  C134  1.399888 A    
Zn3   O8    1.925400 S    
C144  C160  1.410445 A    
O8    C24   1.281382 A    
C279  C280  1.527131 S    
C230  F38   1.358081 S    
N1    C74   1.356831 A    
C178  C209  1.414325 A    
C312  H202  1.110183 S    
C174  C236  1.531661 S    
C198  C214  1.403028 A    
O48   C46   1.279936 A    
C127  C143  1.394587 A    
C295  H159  1.110479 S    
C255  C256  1.527293 S    
C1    C37   1.409245 A    
C256  H68   1.110420 S    
C303  H182  1.110437 S    
C234  C235  1.527080 S    
C285  C286  1.526635 S    
C99   C115  1.400303 A    
C184  C192  1.410656 A    
C326  H239  1.109790 S    
C66   C73   1.479189 S    
C185  C193  1.410609 A    
C96   C112  1.400355 A    
C20   C223  1.461030 S    
C263  H93   1.112236 S    
O16   C32   1.281435 A    
C193  C209  1.403036 A    
C267  C268  1.527146 S    
C140  C156  1.394654 A    
O47   C45   1.280530 A    
C243  H41   1.111449 S    
C268  H96   1.110391 S    
C82   C162  1.406221 A    
C280  H122  1.110962 S    
O29   C36   1.278844 A    
C60   C66   1.418913 A    
C14   F30   1.358276 S    
Zn4   O6    1.926012 S    
C143  F75   1.357726 S    
C278  C279  1.535365 S    
C318  H217  1.111156 S    
C64   C68   1.422380 A    
C296  H170  1.108704 S    
C286  H136  1.110880 S    
C102  F50   1.357491 S    
C85   C101  1.394260 A    
C174  C198  1.410561 A    
C91   C171  1.405982 A    
C92   C172  1.406156 A    
C179  C203  1.410732 A    
C258  H76   1.111464 S    
C284  H142  1.107147 S    
C241  H32   1.110932 S    
C233  H23   1.112072 S    
C21   C162  1.475936 S    
C87   H11   1.083001 S    
C200  F20   1.357152 S    
C3    C38   1.409238 A    
C323  H233  1.102924 S    
C56   C302  1.530937 S    
C278  H127  1.112144 S    
C133  F65   1.357978 S    
O40   C41   1.277802 A    
C270  H104  1.111467 S    
C310  H194  1.110332 S    
C308  H198  1.106700 S    
C121  C218  1.471301 S    
C247  H47   1.110439 S    
C317  H218  1.106375 S    
C283  H130  1.110852 S    
C261  C262  1.527060 S    
C110  C205  1.471310 S    
C251  H65   1.112236 S    
N2    N3    1.331805 A    
Zn8   O15   1.925403 S    
C127  F59   1.357968 S    
C115  C212  1.470791 S    
C113  C129  1.399933 A    
C6    C40   1.409264 A    
C65   C74   1.479714 S    
C116  C211  1.471337 S    
C185  C269  1.531633 S    
C154  C170  1.410905 A    
C181  C214  1.414297 A    
C293  H163  1.106488 S    
C137  C153  1.394853 A    
C88   C104  1.393969 A    
C116  C132  1.400099 A    
O14   C30   1.282111 A    
C199  F19   1.357126 S    
C295  H157  1.111343 S    
C301  H173  1.110479 S    
C49   C281  1.529607 S    
C53   C71   1.419963 A    
O49   C47   1.280384 A    
C319  H215  1.110336 S    
C54   C72   1.416543 A    
C4    C12   1.391277 A    
O44   C43   1.277808 A    
C306  H189  1.110922 S    
C316  H206  1.109947 S    
C114  C130  1.399926 A    
C14   C20   1.400055 A    
C136  F68   1.357930 S    
C108  C124  1.400410 A    
O7    C23   1.281417 A    
C46   C70   1.479171 S    
C155  C171  1.410392 A    
C86   H10   1.082989 S    
N5    C76   1.357354 A    
C59   C311  1.531140 S    
N6    C75   1.356940 A    
C234  H21   1.111464 S    
C271  H101  1.110956 S    
C237  C238  1.527077 S    
C81   H5    1.082994 S    
C240  C241  1.527126 S    
C229  F37   1.358081 S    
C289  H143  1.110795 S    
C91   C107  1.393860 A    
C250  H53   1.110985 S    
C49   C57   1.420901 A    
O28   C21   1.279433 A    
C179  C251  1.531688 S    
C38   C41   1.469541 S    
C51   C59   1.424907 A    
C98   F46   1.357491 S    
C8    F8    1.358071 S    
C3    F3    1.358072 S    
C257  C258  1.535248 S    
C309  H196  1.109397 S    
C150  C166  1.410960 A    
C291  H154  1.109666 S    
C290  C291  1.536592 S    
C83   C163  1.406174 A    
C8    C16   1.391270 A    
C321  H223  1.109189 S    
C264  C265  1.527209 S    
C141  C157  1.410941 A    
C320  C321  1.540423 S    
C2    F2    1.358073 S    
C239  C240  1.535322 S    
C25   C158  1.476313 S    
C261  H84   1.111469 S    
C322  H221  1.109686 S    
C288  C289  1.526887 S    
C19   C224  1.461025 S    
O50   C48   1.281300 A    
C18   C221  1.461047 S    
O17   C33   1.281607 A    
C145  C161  1.410962 A    
C226  F34   1.358086 S    
C37   C42   1.469545 S    
C280  H124  1.110436 S    
O19   C35   1.281320 A    
C252  H62   1.111473 S    
C223  C230  1.402546 A    
C282  H133  1.110895 S    
C281  C282  1.534560 S    
C253  H61   1.110420 S    
C298  H165  1.110909 S    
C2    C10   1.391252 A    
C133  C149  1.394699 A    
C95   C111  1.400377 A    
C286  H138  1.110428 S    
C112  C128  1.399996 A    
Zn11  O26   1.928964 S    
C93   C109  1.400344 A    
C225  C227  1.391313 A    
C7    F7    1.358068 S    
C5    F5    1.358073 S    
C105  F53   1.357491 S    
C300  H175  1.106710 S    
C325  H227  1.111096 S    
C97   C113  1.400350 A    
C236  H29   1.112069 S    
Zn12  O1    1.933915 S    
C198  F18   1.357166 S    
Zn1   O12   1.925787 S    
C242  C243  1.535145 S    
Zn2   O11   1.925784 S    
Zn7   O16   1.925400 S    
O15   C31   1.282077 A    
C238  H25   1.110958 S    
C254  H71   1.112309 S    
C245  H51   1.112066 S    
C281  H134  1.108890 S    
C88   H12   1.082988 S    
C287  H149  1.109753 S    
C201  C217  1.403046 A    
C222  C225  1.402547 A    
C80   C96   1.393777 A    
C7    C40   1.409254 A    
C328  H235  1.110972 S    
C101  F49   1.357488 S    
C196  F16   1.357179 S    
C174  C205  1.414481 A    
C262  H81   1.110954 S    
C269  H107  1.112049 S    
C261  H83   1.111464 S    
C117  C133  1.399906 A    
C179  C212  1.414257 A    
C6    C14   1.391246 A    
C118  C213  1.471107 S    
C221  C226  1.402551 A    
C221  C227  1.402558 A    
C304  H179  1.111145 S    
Zn14  O42   1.923035 S    
C237  H28   1.111470 S    
O27   C22   1.279428 A    
C315  H209  1.110095 S    
N6    N7    1.331289 A    
C301  H171  1.110865 S    
Zn14  O4    1.934203 S    
C325  H229  1.110450 S    
C248  H58   1.111988 S    
C84   C100  1.393897 A    
C92   H16   1.082990 S    
C2    C38   1.409248 A    
C316  H208  1.110340 S    
C189  C205  1.403287 A    
C102  C118  1.400349 A    
Zn13  O3    1.934205 S    
C321  C322  1.525424 S    
C82   H6    1.082997 S    
C312  H203  1.106460 S    
C52   C290  1.530422 S    
C267  H98   1.111414 S    
Zn6   O18   1.926228 S    
C176  C242  1.531785 S    
C257  H79   1.112135 S    
C302  C303  1.538150 S    
C188  C196  1.410350 A    
C153  F85   1.357727 S    
C292  H150  1.110823 S    
C89   C105  1.394412 A    
Zn7   O49   1.923246 S    
Zn13  O36   1.929428 S    
C233  C234  1.535381 S    
Zn14  O35   1.929431 S    
C32   C171  1.475022 S    
C189  F9    1.357141 S    
C33   C166  1.476165 S    
O43   C44   1.277806 A    
O6    C22   1.282073 A    
C151  C167  1.410841 A    
C155  F87   1.357740 S    
C279  H125  1.111443 S    
C13   C19   1.400054 A    
C149  C165  1.410804 A    
C29   C170  1.476074 S    
C180  C204  1.410608 A    
C224  C229  1.402540 A    
C307  H186  1.110841 S    
C270  H105  1.111465 S    
C258  C259  1.527193 S    
C313  H201  1.110362 S    
Zn9   O37   1.923035 S    
C255  H69   1.111417 S    
C194  F14   1.357150 S    
C122  C138  1.399915 A    
C17   C222  1.461043 S    
C68   C75   1.480529 S    
Zn11  O39   1.923180 S    
Zn12  O25   1.928961 S    
C260  H85   1.112061 S    
C250  H52   1.110965 S    
C322  H220  1.109405 S    
C251  H64   1.111838 S    
C11   F27   1.358270 S    
C311  H205  1.102961 S    
C92   C108  1.394288 A    
C55   C63   1.424885 A    
Zn15  O43   1.923180 S    
C194  C210  1.403159 A    
C59   C65   1.421194 A    
C53   C61   1.421643 A    
C196  C212  1.403077 A    
C235  H19   1.110441 S    
C253  H59   1.111044 S    
C80   C160  1.406115 A    
Zn5   O3    1.938335 S    
C111  C127  1.399813 A    
C4    F4    1.358070 S    
Zn6   O4    1.938332 S    
O20   C36   1.281681 A    
C45   C69   1.477748 S    
C181  C189  1.410811 A    
C84   C164  1.406058 A    
C175  C199  1.410423 A    
C132  C148  1.394633 A    
C277  H117  1.110424 S    
C7    C15   1.391270 A    
C202  F22   1.357147 S    
Zn16  O3    1.933915 S    
C272  H114  1.112017 S    
C192  C208  1.403216 A    
C242  H44   1.111819 S    
C109  C125  1.399897 A    
C120  C136  1.399842 A    
Zn13  O41   1.923035 S    
C4    C37   1.409238 A    
C183  C216  1.414476 A    
C77   H1    1.082996 S    
C111  C208  1.470916 S    
C297  H167  1.108395 S    
C249  H55   1.111455 S    
C184  C215  1.414243 A    
C11   C18   1.400074 A    
C129  F61   1.357975 S    
C314  C315  1.536246 S    
C182  C213  1.414392 A    
C107  F55   1.357509 S    
C236  C237  1.535388 S    
C154  F86   1.357727 S    
C273  H111  1.111464 S    
C87   C167  1.406060 A    
C266  H100  1.111820 S    
C289  H144  1.110856 S    
C62   C320  1.530984 S    
C16   C19   1.400065 A    
C143  C159  1.410899 A    
C249  C250  1.527175 S    
Zn16  O32   1.929061 S    
C263  H92   1.111755 S    
C283  H129  1.111191 S    
C295  H158  1.110917 S    
C137  F69   1.357974 S    
C13   F29   1.358277 S    
C315  C316  1.525188 S    
C278  H128  1.111878 S    
O38   C42   1.277777 A    
O34   C31   1.279277 A    
Zn8   O4    1.939780 S    
C77   C93   1.394342 A    
C123  C139  1.400056 A    
C195  F15   1.357154 S    
C291  C292  1.526751 S    
C307  H185  1.109857 S    
C292  H152  1.110470 S    
C63   C67   1.421658 A    
C244  H39   1.111065 S    
C135  C151  1.394521 A    
C185  C218  1.414468 A    
C204  F24   1.357155 S    
C139  F71   1.357982 S    
C302  H184  1.110447 S    
C256  H67   1.111082 S    
C131  F63   1.357973 S    
C23   C164  1.475207 S    
C106  F54   1.357495 S    
C240  H34   1.111442 S    
C93   F41   1.357490 S    
O36   C29   1.279419 A    
C299  H176  1.108934 S    
O26   C23   1.279588 A    
Zn15  O34   1.928964 S    
C243  H42   1.111464 S    
C268  H95   1.110950 S    
C60   C314  1.528642 S    
O51   C47   1.281023 A    
C58   C308  1.529180 S    
C12   F28   1.358271 S    
C274  H109  1.110970 S    
C175  C239  1.531699 S    
C130  C146  1.394765 A    
N3    C74   1.357400 A    
C91   H15   1.083049 S    
C300  H174  1.110491 S    
C156  C172  1.410941 A    
C204  C220  1.403378 A    
C296  H169  1.110954 S    
C271  H103  1.110439 S    
C313  H199  1.110453 S    
Zn8   O50   1.923246 S    
C87   C103  1.394288 A    
C181  C257  1.531580 S    
C150  F82   1.357733 S    
C264  H90   1.111503 S    
C200  C216  1.403405 A    
C149  F81   1.357724 S    
C250  H54   1.110430 S    
C223  C231  1.402552 A    
C10   C18   1.400063 A    
C284  H141  1.110219 S    
C300  C301  1.526812 S    
C233  H22   1.112005 S    
C288  H146  1.111156 S    
C228  F36   1.358085 S    
C83   H7    1.083028 S    
Zn1   O9    1.926225 S    
C100  C116  1.400591 A    
C49   C69   1.417920 A    
Zn1   O47   1.923977 S    
C180  C211  1.414551 A    
C272  H113  1.112079 S    
C54   C296  1.531233 S    
C310  H193  1.110851 S    
Zn2   O48   1.923977 S    
C95   F43   1.357479 S    
C247  H46   1.110957 S    
C222  C228  1.402553 A    
C203  C219  1.403369 A    
C51   C69   1.419517 A    
C99   F47   1.357498 S    
C303  C304  1.526161 S    
C126  C142  1.394798 A    
Zn2   O10   1.926228 S    
C311  H204  1.110488 S    
C257  H78   1.111971 S    
C277  H115  1.111084 S    
C108  F56   1.357496 S    
C124  C219  1.471023 S    
C246  H49   1.111465 S    
C229  C231  1.391308 A    
C287  C288  1.535962 S    
C77   C157  1.406230 A    
C294  H160  1.111296 S    
C123  C220  1.471172 S    
C178  C248  1.531577 S    
C324  H230  1.110302 S    
C301  H172  1.110643 S    
C120  C215  1.470762 S    
C319  H214  1.110871 S    
C103  C119  1.400538 A    
N4    C73   1.356715 A    
C249  H56   1.111464 S    
C305  H191  1.108342 S    
C101  C117  1.400355 A    
C259  H73   1.110997 S    
C202  C218  1.403240 A    
C57   C65   1.419075 A    
C86   C102  1.394371 A    
Zn9   O21   1.928476 S    
C274  H108  1.110967 S    
C259  H75   1.110426 S    
C175  C208  1.414368 A    
C279  H126  1.111485 S    
C94   F42   1.357485 S    
Zn11  O23   1.929058 S    
C290  H156  1.106914 S    
C148  C164  1.410428 A    
Zn12  O40   1.923180 S    
C119  C216  1.471098 S    
C324  H231  1.106647 S    
C239  H37   1.112095 S    
C224  C232  1.402550 A    
Zn9   O1    1.934205 S    
C320  H226  1.107774 S    
C22   C161  1.476277 S    
C57   C305  1.527999 S    
C327  H237  1.107703 S    
C173  C233  1.531577 S    
O10   C26   1.281565 A    
C88   C168  1.406108 A    
O39   C42   1.277802 A    
O45   C45   1.278964 A    
C89   C169  1.406255 A    
Zn3   O5    1.926014 S    
C26   C157  1.476113 S    
C183  C191  1.410439 A    
C190  C206  1.403060 A    
C85   C165  1.406195 A    
C183  C263  1.531801 S    
Zn9   O28   1.929428 S    
C288  H147  1.107230 S    
Zn10  O27   1.929431 S    
C128  C144  1.394574 A    
C62   C68   1.420571 A    
Zn2   O2    1.938332 S    
C303  H181  1.107458 S    
C31   C172  1.475910 S    
C122  C217  1.471132 S    
C177  C245  1.531607 S    
C182  C260  1.531574 S    
C276  H119  1.111437 S    
C326  H240  1.108845 S    
C328  H236  1.110405 S    
C284  C285  1.537191 S    
C34   C165  1.475793 S    
O13   C29   1.281966 A    
C156  F88   1.357740 S    
C89   H13   1.082987 S    
C265  H89   1.110430 S    
C227  F35   1.358086 S    
N7    C76   1.357472 A    
C151  F83   1.357752 S    
C266  C267  1.535181 S    
C280  H123  1.110971 S    
C252  H63   1.111436 S    
C245  C246  1.535386 S    
O33   C32   1.279461 A    
C199  C215  1.403049 A    
C253  H60   1.110962 S    
C30   C169  1.476336 S    
C298  H164  1.110965 S    
C103  F51   1.357506 S    
C318  H216  1.110894 S    
Zn6   O52   1.923977 S    
C286  H137  1.110815 S    
C61   C317  1.528832 S    
C186  C272  1.531568 S    
C256  H66   1.110960 S    
C323  H232  1.109367 S    
C269  C270  1.535380 S    
C96   F44   1.357493 S    
C81   C97   1.394365 A    
C119  C135  1.399840 A    
C9    C17   1.400063 A    
C265  H87   1.110997 S    
C79   H3    1.082986 S    
O25   C24   1.279607 A    
C203  F23   1.357141 S    
Zn1   O1    1.938335 S    
C263  C264  1.535311 S    
C287  H148  1.108261 S    
C285  H139  1.109881 S    
C124  C140  1.399843 A    
C195  C211  1.403492 A    
C50   C58   1.422476 A    
C231  F39   1.358081 S    
C238  H24   1.110957 S    
C130  F62   1.357973 S    
C245  H50   1.112004 S    
C54   C62   1.420347 A    
C53   C293  1.530466 S    
C248  C249  1.535267 S    
C275  H120  1.111705 S    
C105  C121  1.400368 A    
C48   C72   1.477005 S    
