data_mof_unit_53360.cif
_audit_creation_date              2013-03-05T15:59:21-0500
_audit_creation_method            fapswitch 2.2
_symmetry_space_group_name_H-M    P1
_symmetry_Int_Tables_number       1
_space_group_crystal_system       triclinic
_cell_length_a                    10.481472
_cell_length_b                    12.740277
_cell_length_c                    13.210717
_cell_angle_alpha                 82.763397
_cell_angle_beta                  92.323959
_cell_angle_gamma                 100.778872
_cell_volume                      1718.9264274

loop_
_atom_site_label
_atom_site_type_symbol
_atom_site_description
_atom_site_fract_x
_atom_site_fract_y
_atom_site_fract_z
_atom_type_partial_charge
O1    O     O_R   0.467970 0.366730 0.627150 -0.604881
O2    O     O_R   0.510820 0.544830 0.662520 -0.590755
C1    C     C_R   0.490028 0.439822 0.690421 0.846379
O3    O     O_R   0.664630 0.410960 0.482340 -0.598655
O4    O     O_R   0.707470 0.589060 0.517710 -0.596744
C2    C     C_R   0.741397 0.499564 0.500668 0.896061
Zn1   Zn    Zn3+2 0.471390 0.381080 0.476380 0.991611
Zn2   Zn    Zn3+2 0.528610 0.618920 0.523620 1.030085
O5    O     O_R   0.489180 0.455170 0.337480 -0.581027
O6    O     O_R   0.532030 0.633270 0.372850 -0.612884
O7    O     O_R   0.292530 0.410940 0.482290 -0.640473
O8    O     O_R   0.335370 0.589040 0.517660 -0.543612
C3    C     C_R   0.522073 0.559733 0.310043 0.950201
C4    C     C_R   0.258269 0.498762 0.503247 0.901645
C5    C     C_3   0.950120 0.456818 0.597278 -0.252287
C6    C     C_3   0.055191 0.556861 0.573056 0.197959
H1    H     H_    0.907253 0.425910 0.673162 0.156283
C7    C     C_3   0.122328 0.497099 0.505336 0.002333
C8    C     C_3   0.018245 0.395496 0.527878 -0.220362
C9    C     C_3   0.940732 0.436102 0.433635 -0.143762
C10   C     C_3   0.046777 0.537529 0.411332 -0.147546
C11   C     C_3   0.979759 0.599857 0.480293 -0.057462
C12   C     C_3   0.876275 0.498170 0.502667 -0.031477
H2    H     H_    0.037671 0.312463 0.546859 0.173760
H3    H     H_    0.890200 0.384962 0.376849 0.215427
H4    H     H_    0.087249 0.568365 0.334753 0.198615
H5    H     H_    0.960741 0.683118 0.462228 0.184565
C13   C     C_R   0.465514 0.706748 0.059874 -0.171105
H6    H     H_    0.496196 0.752245 0.209976 0.193539
H7    H     H_    0.423347 0.776778 0.032853 0.183520
C14   C     C_R   0.540366 0.595680 0.201670 -0.154808
C15   C     C_R   0.599070 0.330727 0.822257 0.096439
C16   C     C_R   0.675131 0.335373 0.911820 0.106540
C17   C     C_R   0.663338 0.411814 0.976264 -0.103099
C18   C     C_R   0.562866 0.472581 0.961768 0.104559
C19   C     C_R   0.489304 0.470101 0.870347 0.062104
C20   C     C_R   0.538810 0.541598 0.032097 -0.053196
C21   C     C_R   0.469104 0.625813 0.998009 0.145412
C22   C     C_R   0.397933 0.623454 0.906184 0.111713
C23   C     C_R   0.399487 0.539924 0.848364 -0.182995
C24   C     C_R   0.571254 0.525034 0.137014 0.241777
C25   C     C_R   0.505673 0.692866 0.160959 -0.217243
C26   C     C_R   0.514515 0.404978 0.797833 -0.113640
H8    H     H_    0.736135 0.424957 0.035660 0.175768
H9    H     H_    0.336380 0.534808 0.781744 0.130909
C27   C     C_R   0.395925 0.121691 0.303952 0.288484
H10   H     H_    0.349144 0.277897 0.306017 0.190487
N1    N     N_R   0.432930 0.222190 0.444670 -0.143415
C28   C     C_R   0.647782 0.798272 0.636459 0.446159
C29   C     C_R   0.682026 0.902859 0.663161 0.002577
C30   C     C_R   0.634282 0.986250 0.604768 -0.264980
C31   C     C_R   0.551609 0.966866 0.520127 0.005981
C32   C     C_R   0.518773 0.860024 0.494249 0.016948
C33   C     C_R   0.498125 0.050673 0.462057 -0.043894
C34   C     C_R   0.441801 0.035487 0.364191 -0.018314
C35   C     C_R   0.413399 0.931563 0.335837 -0.014441
C36   C     C_R   0.434788 0.843951 0.406876 0.289504
C37   C     C_R   0.492968 0.148252 0.499799 -0.032536
C38   C     C_R   0.385007 0.211428 0.349596 -0.012245
N2    N     N_R   0.566370 0.776980 0.554790 -0.200537
H11   H     H_    0.533554 0.167064 0.572949 0.146377
H12   H     H_    0.667177 0.066606 0.624616 0.149251
N3    N     N_3   0.121884 0.621552 0.649331 -0.394917
H13   H     H_    0.056437 0.665213 0.673693 0.243983
H14   H     H_    0.141012 0.568138 0.712235 0.142106
N4    N     N_R   0.618353 0.430296 0.181249 0.188493
O9    O     O_R   0.722094 0.439228 0.239327 -0.448159
O10   O     O_R   0.551987 0.335199 0.170622 -0.366985
N5    N     N_3   0.618172 0.259228 0.750833 -0.442955
H15   H     H_    0.596906 0.180222 0.786789 0.189412
H16   H     H_    0.715760 0.275899 0.730123 0.183898
N6    N     N_3   0.770887 0.267718 0.932513 -0.461232
H17   H     H_    0.721189 0.188654 0.949579 0.212775
H18   H     H_    0.826056 0.286564 0.997696 0.211697
N7    N     N_3   0.327774 0.912759 0.249238 -0.377339
H19   H     H_    0.363089 0.864612 0.203086 0.217125
H20   H     H_    0.234028 0.877465 0.273261 0.243450
N8    N     N_R   0.368027 0.122810 0.196359 0.242641
O11   O     O_R   0.450796 0.097096 0.137267 -0.353074
O12   O     O_R   0.273336 0.167417 0.155101 -0.383220
N9    N     N_R   0.705845 0.715379 0.692312 0.234326
O13   O     O_R   0.819045 0.702757 0.664663 -0.418558
O14   O     O_R   0.671287 0.682217 0.786020 -0.425915
N10   N     N_3   0.768978 0.923782 0.748280 -0.392300
H21   H     H_    0.717904 0.891370 0.814776 0.218764
H22   H     H_    0.795462 0.006536 0.752019 0.180920
N11   N     N_R   0.329053 0.756548 0.411508 0.226844
O15   O     O_R   0.305273 0.699629 0.335408 -0.482809
O16   O     O_R   0.232963 0.761869 0.468828 -0.418348
N12   N     N_3   0.318842 0.702406 0.873901 -0.461386
H23   H     H_    0.347976 0.738857 0.801032 0.211576
H24   H     H_    0.222555 0.662659 0.868269 0.194588

loop_
_geom_bond_atom_site_label_1
_geom_bond_atom_site_label_2
_geom_bond_distance
_ccdc_geom_bond_type
N4    O10   1.300452 A    
N11   O15   1.301694 A    
N3    H14   1.043502 S    
C14   C25   1.392599 A    
H6    C25   1.076196 S    
C7    C10   1.531754 S    
C4    C7    1.422392 S    
C8    C9    1.546190 S    
C34   C35   1.396579 A    
N9    O13   1.299368 A    
C29   N10   1.437939 S    
Zn1   O7    1.987838 S    
C1    C26   1.459752 S    
C28   N2    1.370498 A    
C18   C20   1.416941 A    
N10   H22   1.045755 S    
C7    C8    1.534749 S    
C21   C22   1.398691 A    
C27   C38   1.382746 A    
O7    C4    1.301496 A    
N8    O12   1.301604 A    
C9    H3    1.108898 S    
C5    C6    1.529896 S    
C35   C36   1.410513 A    
Zn1   O5    1.954079 S    
C17   C18   1.412898 A    
C28   N9    1.427506 S    
N5    H16   1.045469 S    
O5    C3    1.319696 A    
C16   N6    1.437704 S    
C18   C19   1.406807 A    
C27   C34   1.420203 A    
C6    N3    1.455989 S    
C22   N12   1.433886 S    
C37   H11   1.076634 S    
C5    C12   1.531986 S    
N4    O9    1.300769 A    
C35   N7    1.441183 S    
C10   C11   1.548139 S    
C30   H12   1.078881 S    
O3    Zn1   1.989909 S    
N9    O14   1.299838 A    
C32   N2    1.399937 A    
C31   C33   1.423193 A    
C29   C30   1.391153 A    
C23   H9    1.080487 S    
C30   C31   1.404676 A    
C19   C23   1.409927 A    
C17   H8    1.078282 S    
N10   H21   1.045394 S    
N6    H18   1.045628 S    
C22   C23   1.388710 A    
C27   N8    1.438320 S    
C32   C36   1.434875 A    
N8    O11   1.301931 A    
C36   N11   1.413752 S    
O1    C1    1.311165 A    
C5    C8    1.550165 S    
N7    H19   1.040425 S    
C20   C21   1.425683 A    
N12   H24   1.045349 S    
C9    C12   1.531295 S    
C13   C21   1.400690 A    
Zn2   O8    1.989911 S    
C16   C17   1.396767 A    
C6    C7    1.516028 S    
N7    H20   1.045217 S    
C24   N4    1.436588 S    
O3    C2    1.301404 A    
O8    C4    1.306612 A    
C11   H5    1.110574 S    
N11   O16   1.301037 A    
C31   C32   1.421491 A    
N1    C38   1.347257 A    
C33   C37   1.407301 A    
C5    H1    1.110317 S    
C33   C34   1.419820 A    
C6    C11   1.530105 S    
C14   C24   1.403420 A    
O1    Zn1   1.978254 S    
C3    C14   1.456181 S    
O2    Zn2   1.954077 S    
N6    H17   1.045400 S    
O6    C3    1.315039 A    
O4    Zn2   1.987835 S    
N1    C37   1.351105 A    
C15   N5    1.435360 S    
Zn1   N1    2.080987 S    
C13   H7    1.083159 S    
O2    C1    1.321502 A    
C15   C16   1.400895 A    
N12   H23   1.045837 S    
O4    C2    1.303854 A    
C2    C12   1.416292 S    
C10   H4    1.109100 S    
C13   C25   1.383668 A    
C15   C26   1.413485 A    
C8    H2    1.110408 S    
C20   C24   1.412861 A    
N5    H15   1.045314 S    
H10   C38   1.080994 S    
N3    H13   1.043695 S    
C9    C10   1.544503 S    
Zn2   O6    1.978257 S    
C28   C29   1.399288 A    
C11   C12   1.531721 S    
C19   C26   1.406654 A    
Zn2   N2    2.068547 S    
