data_mof_unit_6945.cif
_audit_creation_date              2012-12-10T18:48:21-0500
_audit_creation_method            fapswitch 2.2
_symmetry_space_group_name_H-M    P1
_symmetry_Int_Tables_number       1
_space_group_crystal_system       triclinic
_cell_length_a                    10.823464
_cell_length_b                    9.82219
_cell_length_c                    11.551232
_cell_angle_alpha                 89.967962
_cell_angle_beta                  90.136146
_cell_angle_gamma                 90.074194
_cell_volume                      1228.00817219

loop_
_atom_site_label
_atom_site_type_symbol
_atom_type_description
_atom_site_fract_x
_atom_site_fract_y
_atom_site_fract_z
_atom_type_partial_charge
C1    C     C_R   0.260049 0.500013 0.499801 1.047482
C2    C     C_R   0.939615 0.624955 0.495208 0.296415
C3    C     C_R   0.939418 0.375154 0.501997 0.301514
C4    C     C_R   0.062978 0.620599 0.526497 0.303392
C5    C     C_R   0.873644 0.500050 0.498926 -0.418504
C6    C     C_R   0.127835 0.500138 0.499387 -0.420963
C7    C     C_R   0.536814 0.071844 0.595775 0.025286
C8    C     C_R   0.462597 0.928109 0.404488 -0.017300
C9    C     C_R   0.463038 0.071941 0.404350 0.035486
C10   C     C_R   0.537020 0.927947 0.595765 0.008354
C11   C     C_R   0.740518 0.500032 0.499795 1.015170
C12   C     C_R   0.499966 0.500048 0.281768 0.931261
C13   C     C_R   0.500013 0.499955 0.718232 0.926261
C14   C     C_1   0.499734 0.500171 0.161389 -0.125579
C15   C     C_1   0.499763 0.499841 0.838608 -0.128350
C16   C     C_1   0.499592 0.500129 0.059304 0.027517
C17   C     C_1   0.499604 0.499890 0.940692 0.028621
C18   C     C_R   0.062803 0.379880 0.471457 0.308996
H1    H     H_    0.566484 0.126018 0.672370 0.147627
H2    H     H_    0.431930 0.873860 0.328342 0.142026
H3    H     H_    0.432754 0.126378 0.328138 0.150216
H4    H     H_    0.567408 0.873401 0.671990 0.139155
H5    H     H_    0.222488 0.245626 0.220947 0.374740
H6    H     H_    0.737589 0.831819 0.312619 0.378823
H7    H     H_    0.802051 0.174890 0.729111 0.377246
H8    H     H_    0.271598 0.769325 0.740423 0.376360
N1    N     N_R   0.500000 0.857200 0.500000 -0.085006
N2    N     N_R   0.500000 0.142800 0.500000 -0.083115
O1    O     O_R   0.316770 0.614620 0.499990 -0.570397
O2    O     O_2   0.020616 0.174758 0.321389 -0.220002
O3    O     O_3   0.221674 0.312437 0.285283 -0.589958
O4    O     O_2   0.810116 0.854842 0.529307 -0.236603
O5    O     O_2   0.984158 0.869378 0.394837 -0.154411
O6    O     O_3   0.786270 0.747495 0.323986 -0.551312
O7    O     O_2   0.804878 0.146782 0.470770 -0.209844
O8    O     O_2   0.985209 0.129151 0.598368 -0.175644
O9    O     O_3   0.792417 0.254206 0.677003 -0.581007
O10   O     O_2   0.194004 0.853979 0.537464 -0.217665
O11   O     O_2   0.023586 0.829037 0.674895 -0.200447
O12   O     O_R   0.683230 0.385380 0.500010 -0.551897
O13   O     O_3   0.222636 0.690466 0.712709 -0.569007
O14   O     O_R   0.683230 0.614620 0.500010 -0.566359
O15   O     O_R   0.316770 0.385380 0.499990 -0.560784
O16   O     O_R   0.500020 0.614670 0.334450 -0.630814
O17   O     O_R   0.499980 0.385330 0.665550 -0.621544
O18   O     O_R   0.499980 0.614670 0.665550 -0.630147
O19   O     O_R   0.500020 0.385330 0.334450 -0.616870
O20   O     O_2   0.191742 0.146004 0.458519 -0.203053
S1    S     S_3+6 0.123980 0.246642 0.383791 0.104829
S2    S     S_3+6 0.880413 0.780378 0.436867 0.136164
S3    S     S_3+6 0.880684 0.219701 0.560682 0.126678
S4    S     S_3+6 0.125334 0.755094 0.613072 0.117769
Zn1   Zn    Zn3+2 0.500000 0.653120 0.500000 1.041490
Zn2   Zn    Zn3+2 0.500000 0.346880 0.500000 1.067704

loop_
_geom_bond_atom_site_label_1
_geom_bond_atom_site_label_2
_ccdc_geom_bond_type
C10   N1    A    
C7    C10   A    
C2    C4    A    
N1    Zn1   S    
C2    S2    S    
O13   S4    S    
C7    H1    S    
C13   C15   S    
O4    S2    D    
C1    O1    A    
O11   S4    D    
C9    N2    A    
C12   O16   A    
C10   H4    S    
C13   O17   A    
C9    H3    S    
C8    H2    S    
O8    S3    D    
O1    Zn1   S    
C4    S4    S    
O19   Zn2   S    
C6    C18   A    
O18   Zn1   S    
O20   S1    D    
O2    S1    D    
O3    S1    S    
O17   Zn2   S    
C5    C11   S    
O12   Zn2   S    
C12   O19   A    
O14   Zn1   S    
O7    S3    D    
C11   O12   A    
O9    S3    S    
C14   C16   T    
O6    S2    S    
C2    C5    A    
O10   S4    D    
C1    C6    S    
H8    O13   S    
C3    C18   A    
C4    C6    A    
C15   C17   T    
C8    N1    A    
C3    S3    S    
C13   O18   A    
C8    C9    A    
N2    Zn2   S    
C11   O14   A    
O15   Zn2   S    
H7    O9    S    
O5    S2    D    
O16   Zn1   S    
C1    O15   A    
H6    O6    S    
C7    N2    A    
C18   S1    S    
C12   C14   S    
C16   C17   S    
C3    C5    A    
H5    O3    S    
