data_mof_unit_62276.cif
_audit_creation_date              2012-12-10T16:58:28-0500
_audit_creation_method            fapswitch 2.2
_symmetry_space_group_name_H-M    P1
_symmetry_Int_Tables_number       1
_space_group_crystal_system       triclinic
_cell_length_a                    30.860487
_cell_length_b                    30.619089
_cell_length_c                    24.826507
_cell_angle_alpha                 90.004522
_cell_angle_beta                  128.756281
_cell_angle_gamma                 89.999563
_cell_volume                      18293.7493116

loop_
_atom_site_label
_atom_site_type_symbol
_atom_type_description
_atom_site_fract_x
_atom_site_fract_y
_atom_site_fract_z
_atom_type_partial_charge
C1    C     C_R   0.807515 0.809691 0.496436 0.959358
C2    C     C_R   0.192489 0.809690 0.503579 0.959304
C3    C     C_R   0.307515 0.309691 0.496436 0.959358
C4    C     C_R   0.692489 0.309690 0.503579 0.959303
C5    C     C_R   0.643891 0.749590 0.289923 -0.184435
C6    C     C_R   0.356251 0.749456 0.710048 -0.181574
C7    C     C_R   0.143890 0.249589 0.289923 -0.184436
C8    C     C_R   0.856251 0.249456 0.710048 -0.181576
C9    C     C_R   0.466856 0.747483 0.930886 0.355808
C10   C     C_R   0.532337 0.748115 0.070217 0.368016
C11   C     C_R   0.966856 0.247482 0.930886 0.355809
C12   C     C_R   0.032337 0.248114 0.070217 0.368017
C13   C     C_2   0.879220 0.877180 0.445937 -0.165690
C14   C     C_2   0.120637 0.877109 0.553957 -0.165715
C15   C     C_2   0.379220 0.377180 0.445937 -0.165690
C16   C     C_2   0.620637 0.377109 0.553957 -0.165715
C17   C     C_2   0.913352 0.902443 0.501449 -0.367789
C18   C     C_2   0.086647 0.902456 0.498523 -0.367810
C19   C     C_2   0.413352 0.402443 0.501449 -0.367789
C20   C     C_2   0.586647 0.402456 0.498523 -0.367810
C21   C     C_2   0.850699 0.840378 0.449122 0.221341
C22   C     C_2   0.149123 0.840297 0.550730 0.221585
C23   C     C_2   0.350699 0.340378 0.449122 0.221340
C24   C     C_2   0.649123 0.340297 0.550730 0.221585
C25   C     C_2   0.835599 0.843770 0.489285 -0.363332
C26   C     C_2   0.164432 0.843766 0.510792 -0.363599
C27   C     C_2   0.335599 0.343770 0.489285 -0.363332
C28   C     C_2   0.664432 0.343766 0.510792 -0.363599
C29   C     C_R   0.832501 0.753942 0.746220 0.211666
C30   C     C_R   0.167498 0.753914 0.253781 0.211644
C31   C     C_R   0.332501 0.253941 0.746220 0.211666
C32   C     C_R   0.667498 0.253913 0.253782 0.211643
C33   C     C_R   0.869334 0.753854 0.818357 -0.226853
C34   C     C_R   0.130664 0.753826 0.181645 -0.226766
C35   C     C_R   0.369334 0.253853 0.818357 -0.226853
C36   C     C_R   0.630664 0.253825 0.181645 -0.226765
C37   C     C_R   0.926352 0.747068 0.854463 0.053048
C38   C     C_R   0.073641 0.747060 0.145538 0.053026
C39   C     C_R   0.426352 0.247068 0.854463 0.053048
C40   C     C_R   0.573641 0.247061 0.145538 0.053026
C41   C     C_R   0.946488 0.740274 0.817808 -0.151651
C42   C     C_R   0.053503 0.740286 0.182193 -0.151705
C43   C     C_R   0.446488 0.240275 0.817808 -0.151652
C44   C     C_R   0.553502 0.240287 0.182193 -0.151705
C45   C     C_R   0.682538 0.750023 0.365314 0.969533
C46   C     C_R   0.317469 0.750015 0.634674 0.970080
C47   C     C_R   0.182538 0.250023 0.365314 0.969532
C48   C     C_R   0.817469 0.250015 0.634674 0.970080
C49   C     C_R   0.910258 0.740562 0.746113 -0.233141
C50   C     C_R   0.089734 0.740573 0.253888 -0.233159
C51   C     C_R   0.410258 0.240563 0.746113 -0.233141
C52   C     C_R   0.589734 0.240574 0.253888 -0.233160
C53   C     C_R   0.853444 0.747932 0.709931 -0.054897
C54   C     C_R   0.146552 0.747925 0.290070 -0.054848
C55   C     C_R   0.353444 0.247932 0.709931 -0.054897
C56   C     C_R   0.646552 0.247925 0.290070 -0.054847
C57   C     C_R   0.035340 0.746888 0.069850 0.307045
C58   C     C_R   0.964653 0.746892 0.930151 0.307038
C59   C     C_R   0.535340 0.246889 0.069850 0.307045
C60   C     C_R   0.464653 0.246893 0.930151 0.307038
C61   C     C_2   0.652818 0.592290 0.555562 0.214239
C62   C     C_2   0.347182 0.592271 0.444460 0.214246
C63   C     C_2   0.152818 0.092290 0.555561 0.214238
C64   C     C_2   0.847182 0.092271 0.444460 0.214243
C65   C     C_2   0.600297 0.583626 0.499223 -0.435721
C66   C     C_2   0.399710 0.583626 0.500790 -0.435768
C67   C     C_2   0.100297 0.083626 0.499223 -0.435720
C68   C     C_2   0.899710 0.083626 0.500790 -0.435766
C69   C     C_2   0.685722 0.618714 0.543731 0.175787
C70   C     C_2   0.314283 0.618698 0.456295 0.175971
C71   C     C_2   0.185723 0.118713 0.543731 0.175788
C72   C     C_2   0.814283 0.118697 0.456296 0.175972
C73   C     C_2   0.665447 0.658548 0.516803 -0.446145
C74   C     C_2   0.334544 0.658545 0.483183 -0.445779
C75   C     C_2   0.165447 0.158548 0.516803 -0.446148
C76   C     C_2   0.834543 0.158545 0.483182 -0.445782
C77   C     C_R   0.438834 0.558173 0.499837 0.946935
C78   C     C_R   0.561167 0.558173 0.500167 0.946965
C79   C     C_R   0.938834 0.058173 0.499837 0.946936
C80   C     C_R   0.061167 0.058173 0.500167 0.946967
C81   C     C_R   0.941622 0.939255 0.500047 0.957843
C82   C     C_R   0.058378 0.939260 0.499947 0.957862
C83   C     C_R   0.441622 0.439255 0.500047 0.957843
C84   C     C_R   0.558378 0.439260 0.499947 0.957862
C85   C     C_R   0.692171 0.690316 0.503361 0.980793
C86   C     C_R   0.307820 0.690317 0.496622 0.981640
C87   C     C_R   0.192171 0.190316 0.503362 0.980793
C88   C     C_R   0.807820 0.190317 0.496622 0.981641
C89   C     C_R   0.816885 0.749439 0.634652 0.865499
C90   C     C_R   0.183114 0.749436 0.365349 0.865455
C91   C     C_R   0.316885 0.249439 0.634652 0.865499
C92   C     C_R   0.683113 0.249437 0.365349 0.865456
C93   C     C_R   0.632252 0.788739 0.253159 0.078652
C94   C     C_R   0.366180 0.788093 0.746979 0.070017
C95   C     C_R   0.132252 0.288738 0.253159 0.078652
C96   C     C_R   0.866181 0.288092 0.746979 0.070017
C97   C     C_R   0.593258 0.788617 0.180668 0.145001
C98   C     C_R   0.403920 0.787659 0.819524 0.157233
C99   C     C_R   0.093257 0.288617 0.180668 0.145001
C100  C     C_R   0.903920 0.287659 0.819524 0.157232
C101  C     C_R   0.568325 0.749056 0.145578 -0.052767
C102  C     C_R   0.431598 0.748541 0.854882 -0.060045
C103  C     C_R   0.068324 0.249055 0.145578 -0.052767
C104  C     C_R   0.931597 0.248540 0.854882 -0.060045
C105  C     C_R   0.580275 0.709866 0.182068 0.155140
C106  C     C_R   0.423244 0.710297 0.817584 0.148847
C107  C     C_R   0.080275 0.209865 0.182069 0.155140
C108  C     C_R   0.923243 0.210296 0.817584 0.148846
C109  C     C_R   0.617695 0.710188 0.254644 0.059201
C110  C     C_R   0.384503 0.710552 0.744992 0.060653
C111  C     C_R   0.117695 0.210187 0.254644 0.059201
C112  C     C_R   0.884503 0.210552 0.744992 0.060655
H1    H     H_    0.853085 0.758670 0.845970 0.152637
H2    H     H_    0.146915 0.758627 0.154033 0.152722
H3    H     H_    0.353085 0.258669 0.845970 0.152637
H4    H     H_    0.646916 0.258626 0.154033 0.152722
H5    H     H_    0.990255 0.734709 0.844424 0.162221
H6    H     H_    0.009732 0.734736 0.155576 0.162195
H7    H     H_    0.490256 0.234710 0.844424 0.162221
H8    H     H_    0.509731 0.234738 0.155576 0.162195
H9    H     H_    0.926792 0.735715 0.718824 0.170023
H10   H     H_    0.073198 0.735743 0.281177 0.170010
H11   H     H_    0.426793 0.235717 0.718824 0.170022
H12   H     H_    0.573198 0.235745 0.281178 0.170009
H13   H     H_    0.586634 0.593166 0.448456 0.168648
H14   H     H_    0.413383 0.593182 0.551558 0.168618
H15   H     H_    0.086633 0.093167 0.448456 0.168648
H16   H     H_    0.913384 0.093183 0.551558 0.168618
H17   H     H_    0.628683 0.669971 0.509568 0.147175
H18   H     H_    0.371293 0.669973 0.490387 0.147084
H19   H     H_    0.128684 0.169971 0.509570 0.147175
H20   H     H_    0.871292 0.169973 0.490385 0.147085
H21   H     H_    0.873395 0.882702 0.398546 0.192132
H22   H     H_    0.126348 0.882559 0.601287 0.192195
H23   H     H_    0.373395 0.382702 0.398546 0.192132
H24   H     H_    0.626348 0.382559 0.601287 0.192195
H25   H     H_    0.923621 0.894455 0.550910 0.160806
H26   H     H_    0.076472 0.894533 0.449093 0.160808
H27   H     H_    0.423621 0.394455 0.550910 0.160806
H28   H     H_    0.576472 0.394533 0.449093 0.160808
H29   H     H_    0.839813 0.874588 0.513886 0.147901
H30   H     H_    0.160394 0.874640 0.486424 0.148132
H31   H     H_    0.339813 0.374588 0.513886 0.147900
H32   H     H_    0.660394 0.374640 0.486424 0.148132
N1    N     N_R   0.548787 0.726874 0.037900 -0.149943
N2    N     N_R   0.516615 0.726711 0.969349 -0.157714
N3    N     N_R   0.048787 0.226874 0.037900 -0.149944
N4    N     N_R   0.016615 0.226710 0.969349 -0.157715
N5    N     N_R   0.450269 0.768227 0.963535 -0.144538
N6    N     N_R   0.482513 0.768617 0.032064 -0.174018
N7    N     N_R   0.950268 0.268225 0.963535 -0.144538
N8    N     N_R   0.982512 0.268615 0.032064 -0.174018
N9    N     N_R   0.020380 0.746839 0.965464 -0.175251
N10   N     N_R   0.979612 0.746856 0.034538 -0.175327
N11   N     N_R   0.520380 0.246839 0.965464 -0.175252
N12   N     N_R   0.479612 0.246857 0.034538 -0.175328
N13   N     N_R   0.055085 0.746886 0.034055 -0.174509
N14   N     N_R   0.944908 0.746907 0.965946 -0.174595
N15   N     N_R   0.555085 0.246887 0.034055 -0.174509
N16   N     N_R   0.444908 0.246908 0.965946 -0.174595
O1    O     O_R   0.820760 0.769680 0.499980 -0.594115
O2    O     O_R   0.179240 0.769680 0.500020 -0.594045
O3    O     O_R   0.320760 0.269680 0.499980 -0.594115
O4    O     O_R   0.679240 0.269680 0.500020 -0.594045
O5    O     O_R   0.483490 0.545220 0.557520 -0.620902
O6    O     O_R   0.516510 0.545220 0.442480 -0.620716
O7    O     O_R   0.983490 0.045220 0.557520 -0.620902
O8    O     O_R   0.016510 0.045220 0.442480 -0.620716
O9    O     O_R   0.926010 0.954760 0.442510 -0.613671
O10   O     O_R   0.073990 0.954760 0.557490 -0.613563
O11   O     O_R   0.426010 0.454760 0.442510 -0.613671
O12   O     O_R   0.573990 0.454760 0.557490 -0.613563
O13   O     O_R   0.983520 0.954760 0.557520 -0.623731
O14   O     O_R   0.016480 0.954760 0.442480 -0.623736
O15   O     O_R   0.483520 0.454760 0.557520 -0.623731
O16   O     O_R   0.516480 0.454760 0.442480 -0.623736
O17   O     O_R   0.769670 0.820760 0.499990 -0.608990
O18   O     O_R   0.230330 0.820760 0.500010 -0.609130
O19   O     O_R   0.269670 0.320760 0.499990 -0.608990
O20   O     O_R   0.730330 0.320760 0.500010 -0.609130
O21   O     O_R   0.724610 0.724460 0.398130 -0.581230
O22   O     O_R   0.275390 0.724460 0.601870 -0.581266
O23   O     O_R   0.224610 0.224460 0.398130 -0.581230
O24   O     O_R   0.775390 0.224460 0.601870 -0.581266
O25   O     O_R   0.673520 0.775530 0.398150 -0.604242
O26   O     O_R   0.326480 0.775530 0.601850 -0.604200
O27   O     O_R   0.173520 0.275530 0.398150 -0.604241
O28   O     O_R   0.826480 0.275530 0.601850 -0.604200
O29   O     O_R   0.730310 0.679220 0.500010 -0.567248
O30   O     O_R   0.269690 0.679220 0.499990 -0.566955
O31   O     O_R   0.230310 0.179220 0.500010 -0.567248
O32   O     O_R   0.769690 0.179220 0.499990 -0.566955
O33   O     O_R   0.679220 0.730290 0.500020 -0.628699
O34   O     O_R   0.320780 0.730290 0.499980 -0.628709
O35   O     O_R   0.179220 0.230290 0.500020 -0.628698
O36   O     O_R   0.820780 0.230290 0.499980 -0.628708
O37   O     O_R   0.826460 0.724450 0.601850 -0.623318
O38   O     O_R   0.173540 0.724450 0.398150 -0.623368
O39   O     O_R   0.326460 0.224450 0.601850 -0.623319
O40   O     O_R   0.673540 0.224450 0.398150 -0.623368
O41   O     O_R   0.775370 0.775520 0.601870 -0.597384
O42   O     O_R   0.224630 0.775520 0.398130 -0.597375
O43   O     O_R   0.275370 0.275520 0.601870 -0.597384
O44   O     O_R   0.724630 0.275520 0.398130 -0.597376
O45   O     O_R   0.425990 0.545230 0.442510 -0.606537
O46   O     O_R   0.574010 0.545230 0.557490 -0.606582
O47   O     O_R   0.925990 0.045230 0.442510 -0.606538
O48   O     O_R   0.074010 0.045230 0.557490 -0.606583
Zn1   Zn    Zn3+2 0.784100 0.715890 0.499990 1.063612
Zn2   Zn    Zn3+2 0.215900 0.715890 0.500010 1.063564
Zn3   Zn    Zn3+2 0.284100 0.215890 0.499990 1.063612
Zn4   Zn    Zn3+2 0.715900 0.215890 0.500010 1.063564
Zn5   Zn    Zn3+2 0.715880 0.784090 0.500010 1.015105
Zn6   Zn    Zn3+2 0.284120 0.784090 0.499990 1.015153
Zn7   Zn    Zn3+2 0.215880 0.284090 0.500010 1.015106
Zn8   Zn    Zn3+2 0.784120 0.284090 0.499990 1.015153
Zn9   Zn    Zn3+2 0.461590 0.499990 0.423210 0.985079
Zn10  Zn    Zn3+2 0.538410 0.499990 0.576790 0.985015
Zn11  Zn    Zn3+2 0.961590 0.999990 0.423210 0.985078
Zn12  Zn    Zn3+2 0.038410 0.999990 0.576790 0.985015
I1    I     I_    0.675581 0.847831 0.306491 -0.346217
I2    I     I_    0.323434 0.847341 0.693454 -0.342013
I3    I     I_    0.175580 0.347831 0.306490 -0.346216
I4    I     I_    0.823435 0.347341 0.693455 -0.342012
N17   N     N_2   0.671577 0.583852 0.623956 -0.271773
H33   H     H_    0.648486 0.599773 0.634979 0.233763
C113  C     C_3   0.730610 0.584487 0.680771 -0.720955
H34   H     H_    0.737876 0.577039 0.729627 0.230699
H35   H     H_    0.748327 0.617200 0.685722 0.233508
H36   H     H_    0.751905 0.558974 0.673265 0.274774
N18   N     N_2   0.328405 0.583809 0.376061 -0.271763
H37   H     H_    0.351475 0.599733 0.365010 0.233856
C114  C     C_3   0.269368 0.584420 0.319266 -0.721221
H38   H     H_    0.262086 0.576953 0.270404 0.230689
H39   H     H_    0.251640 0.617129 0.314301 0.233539
H40   H     H_    0.248094 0.558909 0.326807 0.274719
N19   N     N_2   0.171578 0.083850 0.623956 -0.271773
H41   H     H_    0.148489 0.099771 0.634980 0.233764
C115  C     C_3   0.230611 0.084484 0.680769 -0.720955
H42   H     H_    0.237878 0.077035 0.729626 0.230699
H43   H     H_    0.248329 0.117195 0.685722 0.233508
H44   H     H_    0.251905 0.058971 0.673260 0.274774
N20   N     N_2   0.828404 0.083807 0.376061 -0.271765
H45   H     H_    0.851472 0.099731 0.365008 0.233856
C116  C     C_3   0.769366 0.084415 0.319268 -0.721218
H46   H     H_    0.762084 0.076947 0.270405 0.230689
H47   H     H_    0.751637 0.117124 0.314302 0.233539
H48   H     H_    0.748094 0.058904 0.326812 0.274719
I5    I     I_    0.756694 0.589258 0.562187 -0.299205
I6    I     I_    0.243349 0.589225 0.437919 -0.299374
I7    I     I_    0.256692 0.089257 0.562183 -0.299204
I8    I     I_    0.743351 0.089224 0.437923 -0.299374
N21   N     N_2   0.581046 0.827556 0.142074 -0.298384
H49   H     H_    0.615549 0.845087 0.157204 0.257405
C117  C     C_3   0.538382 0.854606 0.132860 -0.694776
H50   H     H_    0.553246 0.868863 0.182937 0.253670
H51   H     H_    0.500198 0.835298 0.111029 0.252184
H52   H     H_    0.527717 0.881598 0.096555 0.238257
N22   N     N_2   0.414855 0.826579 0.857723 -0.287428
H53   H     H_    0.380890 0.846171 0.838592 0.262182
C118  C     C_3   0.463325 0.850521 0.877719 -0.709932
H54   H     H_    0.456958 0.863020 0.831202 0.252300
H55   H     H_    0.500740 0.829277 0.907777 0.241596
H56   H     H_    0.470592 0.878621 0.910751 0.240793
N23   N     N_2   0.081045 0.327555 0.142073 -0.298384
H57   H     H_    0.115548 0.345086 0.157203 0.257405
C119  C     C_3   0.038380 0.354605 0.132859 -0.694775
H58   H     H_    0.053245 0.368862 0.182936 0.253670
H59   H     H_    0.000197 0.335296 0.111028 0.252184
H60   H     H_    0.027716 0.381597 0.096553 0.238257
N24   N     N_2   0.914855 0.326578 0.857724 -0.287427
H61   H     H_    0.880891 0.346170 0.838593 0.262182
C120  C     C_3   0.963326 0.350520 0.877720 -0.709933
H62   H     H_    0.956959 0.363019 0.831204 0.252300
H63   H     H_    0.000741 0.329276 0.907778 0.241596
H64   H     H_    0.970592 0.378620 0.910753 0.240793
N25   N     N_2   0.554401 0.670314 0.144950 -0.291280
H65   H     H_    0.579317 0.642987 0.166094 0.262399
C121  C     C_3   0.499433 0.663196 0.124070 -0.718651
H66   H     H_    0.501584 0.659235 0.170179 0.251231
H67   H     H_    0.481383 0.633099 0.092245 0.242753
H68   H     H_    0.471631 0.691010 0.092556 0.245789
N26   N     N_2   0.452101 0.671209 0.853672 -0.289806
H69   H     H_    0.427111 0.643958 0.836981 0.256829
C122  C     C_3   0.502255 0.663475 0.861854 -0.689866
H70   H     H_    0.492052 0.655396 0.811491 0.247239
H71   H     H_    0.525382 0.635658 0.897726 0.241796
H72   H     H_    0.529608 0.692685 0.883595 0.247960
N27   N     N_2   0.054402 0.170313 0.144951 -0.291280
H73   H     H_    0.079318 0.142986 0.166095 0.262400
C123  C     C_3   0.999434 0.163194 0.124071 -0.718651
H74   H     H_    0.001584 0.159234 0.170180 0.251230
H75   H     H_    0.981383 0.133098 0.092246 0.242753
H76   H     H_    0.971631 0.191009 0.092557 0.245789
N28   N     N_2   0.952101 0.171208 0.853671 -0.289806
H77   H     H_    0.927110 0.143957 0.836981 0.256828
C124  C     C_3   0.002254 0.163473 0.861854 -0.689865
H78   H     H_    0.992051 0.155394 0.811491 0.247239
H79   H     H_    0.025381 0.135657 0.897727 0.241796
H80   H     H_    0.029607 0.192684 0.883594 0.247960
I9    I     I_    0.630648 0.651686 0.310531 -0.345225
I10   I     I_    0.370500 0.652241 0.688061 -0.351940
I11   I     I_    0.130649 0.151686 0.310532 -0.345224
I12   I     I_    0.870500 0.152241 0.688060 -0.351939
I13   I     I_    0.829847 0.786618 0.382440 -0.291660
I14   I     I_    0.169509 0.786380 0.616963 -0.291492
I15   I     I_    0.329847 0.286618 0.382440 -0.291659
I16   I     I_    0.669509 0.286380 0.616963 -0.291492
N29   N     N_2   0.774527 0.759054 0.710683 -0.290034
H81   H     H_    0.765385 0.778345 0.736475 0.226587
C125  C     C_3   0.743835 0.718422 0.687477 -0.759168
H82   H     H_    0.756808 0.698207 0.732565 0.230695
H83   H     H_    0.750922 0.699763 0.655271 0.235245
H84   H     H_    0.698701 0.725412 0.655733 0.241845
N30   N     N_2   0.225475 0.759005 0.289320 -0.290015
H85   H     H_    0.234630 0.778283 0.263532 0.226726
C126  C     C_3   0.256141 0.718362 0.312516 -0.759136
H86   H     H_    0.243155 0.698141 0.267422 0.230762
H87   H     H_    0.249039 0.699717 0.344715 0.235123
H88   H     H_    0.301279 0.725336 0.344264 0.241895
N31   N     N_2   0.274526 0.259052 0.710682 -0.290035
H89   H     H_    0.265384 0.278343 0.736474 0.226587
C127  C     C_3   0.243835 0.218420 0.687477 -0.759169
H90   H     H_    0.256809 0.198204 0.732566 0.230696
H91   H     H_    0.250924 0.199761 0.655272 0.235245
H92   H     H_    0.198702 0.225408 0.655732 0.241845
N32   N     N_2   0.725476 0.259002 0.289320 -0.290017
H93   H     H_    0.734631 0.278279 0.263533 0.226727
C128  C     C_3   0.756140 0.218359 0.312516 -0.759139
H94   H     H_    0.743153 0.198137 0.267422 0.230762
H95   H     H_    0.749037 0.199714 0.344714 0.235124
H96   H     H_    0.801278 0.225331 0.344263 0.241895

loop_
_geom_bond_atom_site_label_1
_geom_bond_atom_site_label_2
_ccdc_geom_bond_type
C99   C103  A    
C117  H51   S    
C51   H11   S    
C88   O36   A    
C123  H74   S    
C30   N30   S    
N1    N2    A    
C9    N5    A    
O43   Zn7   S    
N10   N14   A    
C95   C99   A    
C85   O29   A    
N24   H61   S    
C29   C33   A    
C100  C104  A    
C120  H64   S    
C62   C70   S    
C82   O14   A    
C6    C94   A    
C83   O11   A    
C70   C74   D    
C27   H31   S    
C35   H3    S    
C28   H32   S    
C81   O9    A    
C68   H16   S    
C69   I5    S    
C116  H46   S    
C41   C49   A    
C63   C67   D    
C127  H90   S    
O17   Zn5   S    
C47   O23   A    
C48   O24   A    
C62   C66   D    
O2    Zn2   S    
C98   C102  A    
C126  H88   S    
C58   N9    A    
C77   O45   A    
C38   C57   S    
C113  H34   S    
C16   C20   D    
C13   C21   S    
C2    C26   S    
O42   Zn6   S    
O33   Zn5   S    
C63   C71   S    
O16   Zn9   S    
C53   C89   S    
O12   Zn10  S    
N21   C117  S    
C66   C77   S    
C13   H21   S    
N22   C118  S    
C63   N19   S    
C48   O28   A    
C74   C86   S    
C57   N10   A    
C22   I14   S    
O30   Zn2   S    
C60   N11   A    
C87   O35   A    
C122  H71   S    
C52   H12   S    
C45   O25   A    
O4    Zn4   S    
C79   O47   A    
C39   C60   S    
C18   C82   S    
C51   C55   A    
C121  H67   S    
C61   C65   D    
C19   H27   S    
N31   H89   S    
C116  H48   S    
C44   H8    S    
C103  C107  A    
C79   O7    A    
C80   O8    A    
O31   Zn3   S    
C90   O42   A    
C100  N24   S    
C46   O22   A    
C12   N8    A    
N3    N4    A    
C2    O2    A    
N28   C124  S    
C64   N20   S    
C30   C54   A    
O45   Zn9   S    
C5    C109  A    
C64   C68   D    
C123  H75   S    
C54   C90   S    
C118  H54   S    
C119  H60   S    
C49   C53   A    
C11   N4    A    
C77   O5    A    
C9    N2    A    
O22   Zn2   S    
C126  H87   S    
O32   Zn4   S    
C112  I12   S    
C114  H38   S    
C44   C52   A    
C68   C79   S    
N25   H65   S    
C124  H79   S    
C19   C83   S    
C108  N28   S    
C120  H62   S    
N29   C125  S    
C86   O30   A    
C30   C34   A    
N11   N15   A    
N12   N16   A    
N32   C128  S    
C95   I3    S    
C66   H14   S    
C127  H91   S    
C81   O13   A    
C121  H66   S    
C49   H9    S    
N27   H73   S    
C115  H43   S    
N23   C119  S    
O6    Zn9   S    
C73   C85   S    
C42   C50   A    
C11   N7    A    
C80   O48   A    
C20   C84   S    
C47   O27   A    
C16   H24   S    
C110  I10   S    
C93   C97   A    
C97   N21   S    
C75   C87   S    
C105  C109  A    
C113  H35   S    
C107  C111  A    
C24   C28   D    
C84   O12   A    
C118  H56   S    
C17   H25   S    
C59   N12   A    
C89   O37   A    
O44   Zn8   S    
C33   H1    S    
C13   C17   D    
C14   C22   S    
N19   C115  S    
C86   O34   A    
C76   H20   S    
C96   C100  A    
C120  H63   S    
O25   Zn5   S    
C37   C41   A    
O38   Zn2   S    
C114  H40   S    
C40   C44   A    
O19   Zn7   S    
N26   H69   S    
C94   I2    S    
C2    O18   A    
C41   H5    S    
C92   O40   A    
N22   H53   S    
C43   H7    S    
C36   H4    S    
C98   N22   S    
C23   I15   S    
C115  H42   S    
C50   H10   S    
O28   Zn8   S    
C45   O21   A    
C15   C19   D    
C50   C54   A    
C12   N3    A    
C8    C112  A    
O36   Zn8   S    
C94   C98   A    
N20   H45   S    
C128  H94   S    
C71   I7    S    
C18   H26   S    
O13   Zn12  S    
C55   C91   S    
C59   N15   A    
C9    C102  S    
N7    N8    A    
C69   C73   D    
C11   C104  S    
C70   I6    S    
O35   Zn7   S    
C92   O44   A    
C3    O3    A    
C117  H52   S    
C1    O1    A    
N30   H85   S    
C29   N29   S    
C4    O20   A    
C73   H17   S    
C109  I9    S    
C78   O6    A    
O18   Zn6   S    
O20   Zn8   S    
C12   C103  S    
N20   C116  S    
C21   C25   D    
N28   H77   S    
C42   H6    S    
C5    C45   S    
C33   C37   A    
C108  C112  A    
C7    C47   S    
C35   C39   A    
C8    C48   S    
C122  H70   S    
C119  H58   S    
N18   C114  S    
O41   Zn5   S    
O11   Zn9   S    
O9    Zn11  S    
C116  H47   S    
O15   Zn10  S    
C31   C35   A    
C74   H18   S    
C32   C36   A    
C104  C108  A    
C87   O31   A    
C88   O32   A    
C65   C78   S    
C10   C101  S    
C25   H29   S    
C67   C80   S    
O34   Zn6   S    
C20   H28   S    
N32   H93   S    
O29   Zn1   S    
N5    N6    A    
C10   N6    A    
C128  H96   S    
C119  H59   S    
C43   C51   A    
N21   H49   S    
O1    Zn1   S    
C3    C27   S    
C7    C111  A    
C32   N32   S    
C17   C81   S    
O8    Zn11  S    
N9    N13   A    
C62   N18   S    
C22   C26   D    
O14   Zn11  S    
C31   C55   A    
C84   O16   A    
C32   C56   A    
C91   O43   A    
O48   Zn12  S    
C89   O41   A    
C125  H82   S    
C82   O10   A    
C83   O15   A    
N26   C122  S    
C105  N25   S    
C124  H78   S    
C14   C18   D    
C8    C96   A    
C72   C76   D    
C78   O46   A    
N29   H81   S    
O46   Zn10  S    
O40   Zn4   S    
C38   C42   A    
C122  H72   S    
C15   H23   S    
O23   Zn3   S    
O21   Zn1   S    
C106  N26   S    
C121  H68   S    
C31   N31   S    
C3    O19   A    
N17   C113  S    
C1    O17   A    
N31   C127  S    
C4    O4    A    
C23   C27   D    
N23   H57   S    
C76   C88   S    
C37   C58   S    
C91   O39   A    
C15   C23   S    
C16   C24   S    
C40   C59   S    
C1    C25   S    
C6    C110  A    
C4    C28   S    
C75   H19   S    
O24   Zn4   S    
O10   Zn12  S    
C101  C105  A    
O27   Zn7   S    
N30   C126  S    
C36   C40   A    
C123  H76   S    
C58   N14   A    
C118  H55   S    
O3    Zn3   S    
C39   C43   A    
C14   H22   S    
C96   I4    S    
C125  H83   S    
C61   N17   S    
C65   H13   S    
C24   I16   S    
C67   H15   S    
C21   I13   S    
N17   H33   S    
C128  H95   S    
C72   I8    S    
C114  H39   S    
O5    Zn10  S    
N25   C121  S    
C124  H80   S    
C117  H50   S    
O7    Zn12  S    
C106  C110  A    
C61   C69   S    
N24   C120  S    
C57   N13   A    
C99   N23   S    
C6    C46   S    
C34   C38   A    
C60   N16   A    
C5    C93   A    
C90   O38   A    
C34   H2    S    
C7    C95   A    
O47   Zn11  S    
C127  H92   S    
C71   C75   D    
C85   O33   A    
C29   C53   A    
C111  I11   S    
O26   Zn6   S    
N27   C123  S    
C102  C106  A    
C115  H44   S    
O39   Zn3   S    
C64   C72   S    
C126  H86   S    
N19   H41   S    
O37   Zn1   S    
C10   N1    A    
C107  N27   S    
C56   C92   S    
C113  H36   S    
C46   O26   A    
C125  H84   S    
N18   H37   S    
C93   I1    S    
C26   H30   S    
C97   C101  A    
C52   C56   A    
