data_mof_unit_41587.cif
_audit_creation_date              2012-10-26T21:05:36-0400
_audit_creation_method            fapswitch 2.2
_symmetry_space_group_name_H-M    P1
_symmetry_Int_Tables_number       1
_space_group_crystal_system       triclinic
_cell_length_a                    13.084267
_cell_length_b                    9.092267
_cell_length_c                    7.769496
_cell_angle_alpha                 90.006401
_cell_angle_beta                  94.946662
_cell_angle_gamma                 90.024611
_cell_volume                      920.860381496

loop_
_atom_site_label
_atom_site_type_symbol
_atom_type_description
_atom_site_fract_x
_atom_site_fract_y
_atom_site_fract_z
_atom_type_partial_charge
C1    C     C_R   0.500192 0.219979 0.500021 0.533000
C2    C     C_R   0.864047 0.479881 0.706194 -0.157866
C3    C     C_R   0.133814 0.434106 0.600067 -0.008533
C4    C     C_R   0.866453 0.445382 0.394546 -0.007390
C5    C     C_R   0.026057 0.449802 0.582448 0.047823
C6    C     C_R   0.974045 0.460192 0.415254 0.047379
C7    C     C_1   0.500118 0.065401 0.500022 -0.072180
C8    C     C_1   0.500040 0.934680 0.500034 -0.063721
C9    C     C_3   0.814741 0.387471 0.222867 -0.242295
C10   C     C_3   0.765225 0.235808 0.244843 -0.283032
C11   C     C_3   0.707685 0.183949 0.076394 -0.422547
C12   C     C_R   0.499985 0.780041 0.500008 0.561539
C13   C     C_3   0.186804 0.360917 0.762063 -0.243813
C14   C     C_3   0.237533 0.214293 0.718961 -0.282934
C15   C     C_3   0.299519 0.150637 0.877107 -0.422557
C16   C     C_R   0.300450 0.491988 0.470565 0.538057
C17   C     C_R   0.699547 0.490694 0.529250 0.538556
C18   C     C_R   0.811227 0.471263 0.542031 0.007072
C19   C     C_R   0.188705 0.475686 0.456873 0.008019
C20   C     C_R   0.030355 0.492215 0.274400 -0.150774
C21   C     C_R   0.969312 0.462733 0.726905 -0.149119
C22   C     C_R   0.135720 0.504895 0.296445 -0.157033
Cu1   Cu    Cu3+1 0.500010 0.500000 0.669080 0.972376
Cu2   Cu    Cu3+1 0.499990 0.500000 0.330920 0.975129
H1    H     H_    0.993419 0.520480 0.149248 0.097164
H2    H     H_    0.361814 0.227644 0.923637 0.184044
H3    H     H_    0.249115 0.130414 0.982624 0.145909
H4    H     H_    0.334619 0.044726 0.842244 0.150646
H5    H     H_    0.176949 0.134209 0.673050 0.153026
H6    H     H_    0.289209 0.227368 0.614391 0.179389
H7    H     H_    0.241716 0.437507 0.832006 0.176875
H8    H     H_    0.132288 0.331469 0.857540 0.124330
H9    H     H_    0.823787 0.498365 0.820413 0.128150
H10   H     H_    0.175895 0.537218 0.186148 0.131163
H11   H     H_    0.005668 0.472989 0.856210 0.094942
H12   H     H_    0.644908 0.261784 0.035418 0.185088
H13   H     H_    0.760810 0.175725 0.972707 0.146175
H14   H     H_    0.673685 0.073896 0.095808 0.148887
H15   H     H_    0.826219 0.154561 0.284741 0.153025
H16   H     H_    0.710965 0.237458 0.346692 0.183964
H17   H     H_    0.759645 0.468750 0.162383 0.175958
H18   H     H_    0.870311 0.369408 0.125457 0.120531
N1    N     N_1   0.499980 0.500000 0.076820 -0.103854
N2    N     N_1   0.500020 0.500000 0.923180 -0.106081
O1    O     O_R   0.500000 0.288400 0.642760 -0.508579
O2    O     O_R   0.500000 0.711600 0.357240 -0.489217
O3    O     O_R   0.500000 0.288400 0.357240 -0.506745
O4    O     O_R   0.500000 0.711600 0.642760 -0.489652
O5    O     O_R   0.349000 0.500000 0.619590 -0.510258
O6    O     O_R   0.651000 0.500000 0.380410 -0.511900
O7    O     O_R   0.348990 0.500000 0.334020 -0.508792
O8    O     O_R   0.651010 0.500000 0.665980 -0.509344

loop_
_geom_bond_atom_site_label_1
_geom_bond_atom_site_label_2
_ccdc_geom_bond_type
C17   O6    A    
C11   H14   S    
N1    N2    T    
C3    C19   A    
Cu1   O1    S    
C2    C18   A    
C6    C20   A    
C9    C10   S    
C13   H8    S    
C9    H17   S    
C3    C13   S    
C16   O7    A    
C8    C12   S    
C12   O4    A    
C4    C18   A    
Cu2   O7    S    
C17   C18   S    
C15   H4    S    
Cu2   O2    S    
C7    C8    T    
C13   C14   S    
C1    O1    A    
Cu1   O8    S    
C2    C21   A    
C14   H6    S    
C16   C19   S    
C21   H11   S    
C17   O8    A    
C4    C6    A    
C11   H12   S    
C20   C22   A    
C9    H18   S    
Cu2   O6    S    
C5    C6    A    
C22   H10   S    
Cu1   O5    S    
C10   C11   S    
C14   H5    S    
C19   C22   A    
C5    C21   A    
C16   O5    A    
C2    H9    S    
C10   H16   S    
C20   H1    S    
C11   H13   S    
Cu2   N1    S    
C14   C15   S    
C1    O3    A    
C15   H2    S    
Cu1   O4    S    
Cu1   Cu2   S    
C4    C9    S    
C1    C7    S    
Cu2   O3    S    
C15   H3    S    
C13   H7    S    
Cu1   N2    S    
C10   H15   S    
C3    C5    A    
C12   O2    A    
