data_mof_unit_39619.cif
_audit_creation_date              2012-12-11T16:17:58-0500
_audit_creation_method            fapswitch 2.2
_symmetry_space_group_name_H-M    P1
_symmetry_Int_Tables_number       1
_space_group_crystal_system       triclinic
_cell_length_a                    14.05522
_cell_length_b                    14.052194
_cell_length_c                    30.122508
_cell_angle_alpha                 97.410001
_cell_angle_beta                  97.489802
_cell_angle_gamma                 61.239369
_cell_volume                      5155.92229912

loop_
_atom_site_label
_atom_site_type_symbol
_atom_type_description
_atom_site_fract_x
_atom_site_fract_y
_atom_site_fract_z
_atom_type_partial_charge
C1    C     C_R   0.385587 0.710581 0.442196 0.540986
C2    C     C_R   0.352889 0.236552 0.223053 -0.115637
C3    C     C_R   0.359852 0.243750 0.269858 -0.069291
C4    C     C_R   0.318546 0.345801 0.293751 -0.001263
C5    C     C_R   0.305352 0.331143 0.199896 0.049214
C6    C     C_1   0.298353 0.319626 0.151736 0.063176
C7    C     C_1   0.339074 0.353307 0.341608 -0.029672
C8    C     C_1   0.290262 0.302138 0.111689 0.088331
C9    C     C_R   0.775405 0.359218 0.403199 -0.014487
C10   C     C_R   0.762576 0.276864 0.375495 -0.143860
C11   C     C_R   0.798466 0.247820 0.332783 -0.138820
C12   C     C_R   0.398482 0.381009 0.426487 0.553082
C13   C     C_R   0.847671 0.300373 0.316741 -0.007174
C14   C     C_R   0.869515 0.377384 0.344823 0.052738
C15   C     C_R   0.835840 0.405137 0.389060 0.026121
C16   C     C_R   0.952958 0.328729 0.176164 0.071714
C17   C     C_R   0.958673 0.340572 0.131189 0.169545
C18   C     C_R   0.871288 0.226124 0.106731 0.202727
C19   C     C_R   0.859728 0.220999 0.151536 -0.098430
C20   C     C_R   0.902199 0.269679 0.185944 -0.065675
C21   C     C_1   0.884228 0.269314 0.231529 0.047447
C22   C     C_1   0.869016 0.279176 0.270413 0.046129
C23   C     C_R   0.711958 0.404074 0.443122 0.570476
C24   C     C_R   0.922719 0.284214 0.095891 0.013160
C25   C     C_R   0.362908 0.771057 0.402363 -0.023485
C26   C     C_R   0.446632 0.781631 0.386293 -0.087565
C27   C     C_R   0.434071 0.816244 0.343551 0.255809
C28   C     C_R   0.336504 0.841897 0.316815 0.042174
C29   C     C_R   0.249931 0.839680 0.333972 -0.149085
C30   C     C_R   0.262840 0.804651 0.376594 -0.129537
C31   C     C_R   0.245856 0.852273 0.155472 -0.132951
C32   C     C_R   0.237435 0.859229 0.109168 0.025882
C33   C     C_R   0.392654 0.896376 0.118637 -0.001960
C34   C     C_R   0.389802 0.711841 0.568224 0.546781
C35   C     C_R   0.401391 0.886548 0.165378 0.034255
C36   C     C_R   0.322980 0.870973 0.183524 -0.036138
C37   C     C_1   0.325380 0.864722 0.230809 0.067507
C38   C     C_1   0.328994 0.857186 0.270248 0.081759
C39   C     C_R   0.302711 0.894308 0.091043 -0.037560
C40   C     C_R   0.364134 0.359227 0.591239 -0.003937
C41   C     C_R   0.431200 0.259538 0.610566 -0.165503
C42   C     C_R   0.414586 0.241450 0.652903 0.040052
C43   C     C_R   0.328581 0.326131 0.676185 -0.029653
C44   C     C_R   0.255264 0.420721 0.655421 -0.104773
C45   C     C_R   0.401934 0.382850 0.552317 0.564342
C46   C     C_R   0.271314 0.437870 0.613092 0.222472
C47   C     C_R   0.206297 0.368259 0.825363 -0.084699
C48   C     C_R   0.197806 0.358025 0.869664 -0.132572
C49   C     C_R   0.395845 0.266088 0.883096 0.052600
C50   C     C_R   0.402802 0.275838 0.837888 -0.087573
C51   C     C_R   0.308462 0.323978 0.809132 0.039489
C52   C     C_1   0.315714 0.324327 0.762355 0.068862
C53   C     C_1   0.320817 0.324270 0.722947 0.069266
C54   C     C_R   0.291630 0.302570 0.898472 0.017397
C55   C     C_1   0.765268 0.375333 0.612096 0.043831
C56   C     C_R   0.713380 0.407761 0.568491 0.557225
C57   C     C_R   0.931446 0.302374 0.718387 0.066747
C58   C     C_R   0.948106 0.288644 0.764815 -0.102910
C59   C     C_R   0.762215 0.324148 0.767115 -0.097282
C60   C     C_R   0.743867 0.338303 0.721258 -0.126179
C61   C     C_R   0.826869 0.328647 0.696707 0.017100
C62   C     C_R   0.864012 0.300125 0.788995 0.011979
C63   C     C_1   0.883340 0.289779 0.836614 -0.032222
C64   C     C_1   0.798156 0.352000 0.650195 0.023081
C65   C     C_1   0.908241 0.280886 0.876232 0.016201
C66   C     C_1   0.376013 0.759953 0.613401 0.022181
C67   C     C_1   0.362740 0.362993 0.381120 0.021109
C68   C     C_R   0.327425 0.917137 0.720402 -0.041915
C69   C     C_R   0.314525 0.939101 0.766570 0.268786
C70   C     C_R   0.361779 0.750303 0.772580 -0.143580
C71   C     C_R   0.374592 0.728872 0.726560 -0.111371
C72   C     C_R   0.356815 0.812241 0.700341 -0.003453
C73   C     C_R   0.331203 0.855298 0.792764 0.045729
C74   C     C_1   0.312495 0.877908 0.839765 0.012835
C75   C     C_1   0.366619 0.788699 0.652750 -0.024862
C76   C     C_1   0.292187 0.904864 0.878448 0.034877
C77   C     C_R   0.956736 0.271464 0.050063 0.598759
C78   C     C_R   0.268779 0.440766 0.270735 -0.085396
C79   C     C_R   0.275491 0.270124 0.065502 0.566666
C80   C     C_R   0.262305 0.952085 0.048701 0.561115
C81   C     C_R   0.952334 0.268942 0.921975 0.554105
C82   C     C_R   0.276333 0.266765 0.939722 0.580921
C83   C     C_R   0.261190 0.951134 0.922781 0.557168
C84   C     C_R   0.261597 0.433930 0.223766 0.267677
Cr1   Cr    Cr6+3 0.581000 0.584320 0.508140 1.075348
Cr2   Cr    Cr6+3 0.339110 0.576430 0.496080 1.112470
Cr3   Cr    Cr6+3 0.579910 0.339270 0.495810 1.055656
Cr4   Cr    Cr6+3 0.082090 0.079210 0.982490 1.122206
Cr5   Cr    Cr6+3 0.082460 0.324610 0.994920 1.110404
Cr6   Cr    Cr6+3 0.323630 0.087860 0.996130 1.118835
H1    H     H_    0.237870 0.519892 0.289262 0.143356
H2    H     H_    0.818252 0.178078 0.159575 0.175488
H3    H     H_    0.782751 0.187906 0.311363 0.140983
H4    H     H_    0.192636 0.830667 0.169895 0.183814
H5    H     H_    0.174454 0.859324 0.313457 0.140152
H6    H     H_    0.196744 0.797866 0.388200 0.159237
H7    H     H_    0.524305 0.756700 0.405662 0.177191
H8    H     H_    0.117060 0.386898 0.880310 0.145478
H9    H     H_    0.132991 0.406365 0.803220 0.142586
H10   H     H_    0.187809 0.484161 0.673204 0.163074
H11   H     H_    0.499940 0.196848 0.593323 0.194475
H12   H     H_    0.481584 0.245184 0.824876 0.153402
H13   H     H_    0.385489 0.157086 0.204813 0.174670
H14   H     H_    0.026712 0.269666 0.782535 0.179763
H15   H     H_    0.696690 0.333333 0.785560 0.128187
H16   H     H_    0.663682 0.358653 0.704918 0.118333
H17   H     H_    0.313513 0.981841 0.700227 0.180182
H18   H     H_    0.374383 0.685345 0.792298 0.122737
H19   H     H_    0.397192 0.647428 0.711289 0.127448
H20   H     H_    0.399633 0.169901 0.287383 0.178593
H21   H     H_    0.718458 0.238872 0.385649 0.159082
O1    O     O_R   0.688580 0.499770 0.460490 -0.474722
O2    O     O_R   0.348600 0.476260 0.536540 -0.432226
O3    O     O_R   0.494840 0.313840 0.539010 -0.522022
O4    O     O_R   0.672120 0.351750 0.545910 -0.494585
O5    O     O_3   0.500010 0.500010 0.500010 -0.275639
O6    O     O_R   0.167510 0.972920 0.030390 -0.467630
O7    O     O_R   0.990840 0.178580 0.027590 -0.458037
O8    O     O_R   0.972840 0.345510 0.038590 -0.444956
O9    O     O_R   0.181550 0.320660 0.045200 -0.454156
O10   O     O_R   0.346150 0.177650 0.050510 -0.492462
O11   O     O_R   0.314200 0.996600 0.036060 -0.482193
O12   O     O_R   0.480400 0.672610 0.462660 -0.503193
O13   O     O_R   0.168690 0.969990 0.933130 -0.495363
O14   O     O_R   0.991920 0.175870 0.937430 -0.480653
O15   O     O_R   0.974010 0.342590 0.941330 -0.508460
O16   O     O_R   0.182630 0.317940 0.955040 -0.513794
O17   O     O_R   0.347320 0.174720 0.953250 -0.461846
O18   O     O_R   0.315290 0.993890 0.945900 -0.480179
O19   O     O_3   0.162730 0.163890 0.991180 -0.299164
O20   O     O_R   0.315310 0.685650 0.451800 -0.506488
O21   O     O_R   0.346220 0.474990 0.446280 -0.486855
O22   O     O_R   0.492270 0.312460 0.441630 -0.504522
O23   O     O_R   0.669740 0.350480 0.455640 -0.507330
O24   O     O_R   0.691150 0.501150 0.557860 -0.487270
O25   O     O_R   0.482790 0.673890 0.552920 -0.499860
O26   O     O_R   0.317880 0.687030 0.549170 -0.462014
Cl1   Cl    Cl    0.817640 0.160643 0.065171 -0.523196
C85   C     C_2   0.161753 0.826611 0.080692 0.640614
O27   O     O_2   0.077471 0.842257 0.095042 -0.452857
O28   O     O_R   0.188841 0.774320 0.037955 -0.655102
H22   H     H_    0.131422 0.755290 0.021966 0.353648
C86   C     C_2   0.493325 0.889954 0.195080 0.632511
O29   O     O_2   0.475616 0.948181 0.230117 -0.489819
O30   O     O_R   0.600167 0.825936 0.182981 -0.616577
H23   H     H_    0.655369 0.835202 0.205842 0.374689
C87   C     C_2   0.476185 0.911294 0.099318 0.647088
O31   O     O_2   0.521862 0.852053 0.066941 -0.455072
O32   O     O_R   0.502091 0.993150 0.118041 -0.682005
H24   H     H_    0.559737 0.995373 0.101821 0.362167
Cl2   Cl    Cl    0.198998 0.554793 0.195918 -0.520236
Cl3   Cl    Cl    0.544999 0.818298 0.323245 -0.492757
Cl4   Cl    Cl    0.174876 0.561726 0.590819 -0.546463
C88   C     C_2   0.497486 0.219567 0.913226 0.596880
O33   O     O_2   0.584155 0.155640 0.897704 -0.488324
O34   O     O_R   0.495080 0.251556 0.959182 -0.664324
H25   H     H_    0.569553 0.214878 0.976008 0.372138
C89   C     C_2   0.490516 0.135501 0.672171 0.580968
O35   O     O_2   0.465634 0.106130 0.703297 -0.482397
O36   O     O_R   0.590342 0.067698 0.653944 -0.696597
H26   H     H_    0.634452 0.997825 0.669596 0.354783
C90   C     C_2   0.023821 0.289600 0.694261 0.581558
O37   O     O_2   0.108857 0.277251 0.715470 -0.504850
O38   O     O_R   0.015257 0.290431 0.647528 -0.684873
H27   H     H_    0.083777 0.281059 0.635646 0.352319
Cl5   Cl    Cl    0.275767 0.072607 0.790461 -0.580826
Cl6   Cl    Cl    0.018296 0.421279 0.120960 -0.465800
C91   C     C_2   0.004465 0.374280 0.212976 0.649706
O39   O     O_2   0.070200 0.315115 0.241000 -0.520097
O40   O     O_R   0.978271 0.484162 0.215485 -0.560759
H28   H     H_    0.019840 0.504602 0.241645 0.358344
C92   C     C_2   0.924994 0.430299 0.327679 0.639072
O41   O     O_2   0.879784 0.490708 0.297275 -0.449611
O42   O     O_R   0.027420 0.413046 0.347060 -0.654545
H29   H     H_    0.056761 0.453806 0.332546 0.347052
C93   C     C_2   0.862928 0.481557 0.420058 0.623468
O43   O     O_2   0.847358 0.567567 0.407426 -0.455996
O44   O     O_R   0.906012 0.454730 0.463931 -0.661462
H30   H     H_    0.920849 0.512975 0.481941 0.358892

loop_
_geom_bond_atom_site_label_1
_geom_bond_atom_site_label_2
_ccdc_geom_bond_type
C58   C62   A    
C89   O36   S    
C55   C56   S    
C63   C65   T    
C40   C41   A    
C27   Cl3   S    
C81   O15   A    
C85   O28   S    
C41   C42   A    
Cr3   O22   S    
C35   C36   A    
C87   O31   D    
Cr4   O13   S    
Cr1   O1    S    
C34   C66   S    
O44   H30   S    
O32   H24   S    
C80   O11   A    
C52   C53   T    
C40   C46   A    
C23   O1    A    
C79   O10   A    
C26   C27   A    
C59   H15   S    
C74   C76   T    
C15   C93   S    
Cr2   O2    S    
C18   C24   A    
O38   H27   S    
C87   O32   S    
C37   C38   T    
C83   O18   A    
C4    C7    S    
C5    C6    S    
Cr2   O20   S    
O40   H28   S    
C3    H20   S    
C49   C54   A    
C47   H9    S    
Cr2   O5    S    
C18   C19   A    
C73   C74   S    
C32   C39   A    
C18   Cl1   S    
C69   Cl5   S    
Cr3   O3    S    
C30   H6    S    
C19   H2    S    
C33   C87   S    
Cr2   O26   S    
C33   C35   A    
O42   H29   S    
Cr6   O18   S    
C45   O3    A    
C43   C53   S    
C57   C90   S    
Cr5   O8    S    
C44   C46   A    
C16   C17   A    
C8    C79   S    
C69   C73   A    
C70   C71   A    
C68   H17   S    
C34   O25   A    
C83   O13   A    
C9    C10   A    
Cr3   O4    S    
C68   C72   A    
C11   H3    S    
C91   O40   S    
C59   C60   A    
C13   C14   A    
C79   O9    A    
C1    C25   S    
Cr6   O11   S    
Cr3   O23   S    
C42   C89   S    
C70   C73   A    
C72   C75   S    
C76   C83   S    
C92   O42   S    
O30   H23   S    
C90   O38   S    
Cr5   O15   S    
C40   C45   S    
C12   C67   S    
C17   C24   A    
C51   C52   S    
C47   C48   A    
C91   O39   D    
C49   C88   S    
C32   C85   S    
C14   C92   S    
C77   O7    A    
C17   Cl6   S    
C29   H5    S    
C5    C84   A    
C9    C23   S    
C47   C51   A    
C26   H7    S    
C1    O20   A    
C25   C26   A    
C44   H10   S    
Cr5   O19   S    
C60   C61   A    
O34   H25   S    
C61   C64   S    
C48   C54   A    
C43   C44   A    
C1    O12   A    
C4    C78   A    
C29   C30   A    
C78   C84   A    
C65   C81   S    
C31   C32   A    
Cr5   O9    S    
C28   C38   S    
C16   C20   A    
C55   C64   T    
C62   C63   S    
C50   C51   A    
C88   O33   D    
C10   H21   S    
C33   C39   A    
C82   O17   A    
Cr3   O5    S    
Cr1   O24   S    
C93   O43   D    
C50   H12   S    
C12   O22   A    
C89   O35   D    
Cr6   O10   S    
C2    C5    A    
C58   H14   S    
C42   C43   A    
Cr4   O7    S    
C3    C4    A    
C54   C82   S    
C56   O24   A    
C60   H16   S    
C92   O41   D    
C90   O37   D    
Cr5   O16   S    
C25   C30   A    
C86   O30   S    
C46   Cl4   S    
C80   O6    A    
C28   C29   A    
C59   C62   A    
C12   O21   A    
C23   O23   A    
C81   O14   A    
C31   C36   A    
C88   O34   S    
C68   C69   A    
Cr1   O5    S    
C77   O8    A    
C6    C8    T    
C85   O27   D    
C57   C61   A    
C78   H1    S    
C31   H4    S    
C48   H8    S    
C34   O26   A    
C39   C80   S    
C19   C20   A    
C2    C3    A    
C9    C15   A    
C71   C72   A    
C70   H18   S    
O28   H22   S    
O36   H26   S    
C11   C13   A    
Cr2   O21   S    
C57   C58   A    
C2    H13   S    
C16   C91   S    
C66   C75   T    
C71   H19   S    
C93   O44   S    
Cr4   O19   S    
C56   O4    A    
C41   H11   S    
C13   C22   S    
Cr1   O12   S    
C82   O16   A    
Cr4   O14   S    
C10   C11   A    
Cr1   O25   S    
C7    C67   T    
Cr6   O19   S    
C84   Cl2   S    
C45   O2    A    
C24   C77   S    
C20   C21   S    
C36   C37   S    
C49   C50   A    
C27   C28   A    
Cr6   O17   S    
C14   C15   A    
Cr4   O6    S    
C21   C22   T    
C86   O29   D    
C35   C86   S    
