data_mof_unit_32708.cif
_audit_creation_date              2012-12-10T18:42:35-0500
_audit_creation_method            fapswitch 2.2
_symmetry_space_group_name_H-M    P1
_symmetry_Int_Tables_number       1
_space_group_crystal_system       triclinic
_cell_length_a                    8.637015
_cell_length_b                    10.623788
_cell_length_c                    9.896776
_cell_angle_alpha                 90.387957
_cell_angle_beta                  98.45745
_cell_angle_gamma                 90.770786
_cell_volume                      898.114797632

loop_
_atom_site_label
_atom_site_type_symbol
_atom_type_description
_atom_site_fract_x
_atom_site_fract_y
_atom_site_fract_z
_atom_type_partial_charge
C1    C     C_R   0.502611 0.260446 0.500021 0.905729
C2    C     C_R   0.614703 0.064796 0.592156 0.216882
C3    C     C_R   0.496106 0.871890 0.500670 -0.067335
C4    C     C_R   0.504117 0.128041 0.500027 -0.078220
C5    C     C_R   0.594518 0.581219 0.086307 0.162488
C6    C     C_R   0.404700 0.418508 0.914585 0.105443
C7    C     C_R   0.593254 0.583003 0.942711 0.067260
C8    C     C_R   0.404431 0.418838 0.059579 0.095829
C9    C     C_3   0.132916 0.829612 0.384790 -0.788929
C10   C     C_3   0.713320 0.136325 0.820839 -0.752403
C11   C     C_R   0.498617 0.739543 0.500212 0.894794
C12   C     C_R   0.201967 0.498921 0.464847 0.925512
C13   C     C_R   0.798074 0.500707 0.535119 0.927906
C14   C     C_2   0.038567 0.481100 0.448781 -0.106728
C15   C     C_2   0.961454 0.518822 0.550972 -0.103087
C16   C     C_R   0.391160 0.064790 0.408272 -0.322521
C17   C     C_R   0.610782 0.935128 0.590613 -0.323739
C18   C     C_R   0.384482 0.935125 0.409297 0.224349
H1    H     H_    0.305725 0.116335 0.339368 0.150986
H2    H     H_    0.052122 0.770359 0.312294 0.235882
H3    H     H_    0.845695 0.100774 0.667724 0.214089
H4    H     H_    0.721581 0.040608 0.865786 0.220796
H5    H     H_    0.597597 0.176344 0.831180 0.259624
H6    H     H_    0.805543 0.197659 0.878611 0.226838
H7    H     H_    0.809332 0.651661 0.158968 0.169083
H8    H     H_    0.663850 0.758295 0.144862 0.179222
H9    H     H_    0.329142 0.242214 0.857231 0.152180
H10   H     H_    0.188136 0.352805 0.838717 0.161948
H11   H     H_    0.615027 0.742712 0.836167 0.216957
H12   H     H_    0.698250 0.883807 0.657636 0.144713
H13   H     H_    0.761680 0.635875 0.829561 0.219203
H14   H     H_    0.331032 0.242415 0.096717 0.157295
H15   H     H_    0.188188 0.351932 0.078442 0.150408
H16   H     H_    0.981923 0.458737 0.243300 0.193145
H17   H     H_    0.020367 0.323204 0.330007 0.169442
H18   H     H_    0.017987 0.542663 0.756343 0.190785
H19   H     H_    0.979872 0.677627 0.668261 0.159842
H20   H     H_    0.231026 0.913769 0.229066 0.218956
H21   H     H_    0.068750 0.913199 0.413929 0.230220
H22   H     H_    0.171710 0.773210 0.477320 0.242397
N1    N     N_R   0.499960 0.499970 0.857200 -0.095298
N2    N     N_3   0.304161 0.334853 0.120343 -0.404972
N3    N     N_R   0.500040 0.500030 0.142800 -0.092067
N4    N     N_3   0.964861 0.410003 0.331485 -0.433005
N5    N     N_3   0.035111 0.590646 0.667726 -0.438980
N6    N     N_2   0.265433 0.868926 0.320507 -0.294089
N7    N     N_2   0.735278 0.131181 0.678794 -0.304270
N8    N     N_3   0.693544 0.666247 0.173810 -0.389022
N9    N     N_3   0.304027 0.334639 0.827015 -0.390746
N10   N     N_3   0.687607 0.677055 0.890231 -0.498179
O1    O     O_R   0.499990 0.316750 0.614620 -0.587109
O2    O     O_R   0.500010 0.683250 0.385380 -0.585395
O3    O     O_R   0.499990 0.316780 0.385290 -0.609889
O4    O     O_R   0.500010 0.683220 0.614710 -0.644990
O5    O     O_R   0.271750 0.499990 0.587840 -0.574793
O6    O     O_R   0.728250 0.500010 0.412160 -0.577801
O7    O     O_R   0.271750 0.500010 0.358510 -0.612681
O8    O     O_R   0.728250 0.499990 0.641490 -0.650002
Zn1   Zn    Zn3+2 0.500000 0.499980 0.653120 0.953225
Zn2   Zn    Zn3+2 0.500000 0.500020 0.346880 0.982821

loop_
_geom_bond_atom_site_label_1
_geom_bond_atom_site_label_2
_ccdc_geom_bond_type
C4    C16   A    
C2    C4    A    
C17   H12   S    
O5    Zn1   S    
C2    N7    S    
H10   N9    S    
C9    H2    S    
C8    N3    A    
H8    N8    S    
H11   N10   S    
C1    C4    S    
C13   O6    A    
C7    N1    A    
C5    N3    A    
H16   N4    S    
H18   N5    S    
C10   H4    S    
C2    C17   A    
H17   N4    S    
C1    O1    A    
H7    N8    S    
C9    H21   S    
C11   O4    A    
N3    Zn2   S    
C16   H1    S    
C6    C8    A    
H15   N2    S    
C18   N6    S    
C14   N4    S    
O3    Zn2   S    
C12   C14   S    
C3    C17   A    
O4    Zn1   S    
C13   C15   S    
C6    N9    S    
C13   O8    A    
C10   H5    S    
C5    N8    S    
H20   N6    S    
C12   O5    A    
C3    C11   S    
C12   O7    A    
H13   N10   S    
H19   N5    S    
O6    Zn2   S    
C9    N6    S    
O1    Zn1   S    
N1    Zn1   S    
C3    C18   A    
C16   C18   A    
C15   N5    S    
C10   N7    S    
C5    C7    A    
C1    O3    A    
C14   C15   D    
O7    Zn2   S    
H14   N2    S    
C11   O2    A    
O2    Zn2   S    
C10   H6    S    
O8    Zn1   S    
C9    H22   S    
H9    N9    S    
C7    N10   S    
C8    N2    S    
H3    N7    S    
C6    N1    A    
