data_mof_unit_31769.cif
_audit_creation_date              2012-12-11T15:11:51-0500
_audit_creation_method            fapswitch 2.2
_symmetry_space_group_name_H-M    P1
_symmetry_Int_Tables_number       1
_space_group_crystal_system       triclinic
_cell_length_a                    30.444597
_cell_length_b                    22.119004
_cell_length_c                    18.012438
_cell_angle_alpha                 89.999195
_cell_angle_beta                  124.063341
_cell_angle_gamma                 89.999936
_cell_volume                      10048.431591

loop_
_atom_site_label
_atom_site_type_symbol
_atom_type_description
_atom_site_fract_x
_atom_site_fract_y
_atom_site_fract_z
_atom_type_partial_charge
C1    C     C_R   0.533431 0.608912 0.709373 -0.113956
C2    C     C_R   0.214577 0.639040 0.420645 0.148291
C3    C     C_R   0.307933 0.346630 0.927900 -0.250828
C4    C     C_R   0.873819 0.314332 0.128407 -0.269547
C5    C     C_R   0.193218 0.847114 0.072555 -0.245159
C6    C     C_R   0.126181 0.314338 0.871558 -0.269612
C7    C     C_R   0.806775 0.847114 0.927450 -0.245126
C8    C     C_R   0.299819 0.816987 0.143991 -0.156258
C9    C     C_R   0.772609 0.357501 0.072981 -0.193758
C10   C     C_R   0.700177 0.816985 0.856023 -0.156225
C11   C     C_R   0.227394 0.357499 0.926999 -0.193858
C12   C     C_R   0.798807 0.316524 0.144705 -0.156136
C13   C     C_R   0.303919 0.216263 0.415542 0.140209
C14   C     C_R   0.273038 0.856748 0.070912 -0.191213
C15   C     C_R   0.201211 0.316499 0.855304 -0.156302
C16   C     C_R   0.726961 0.856738 0.929109 -0.191192
C17   C     C_R   0.802822 0.389090 0.047480 0.369671
C18   C     C_R   0.278570 0.806983 0.196006 0.289136
C19   C     C_R   0.197169 0.389105 0.952460 0.369519
C20   C     C_R   0.721418 0.806997 0.803996 0.289116
C21   C     C_R   0.302669 0.887390 0.043400 0.369934
C22   C     C_R   0.776683 0.304941 0.195096 0.303351
C23   C     C_R   0.697335 0.887370 0.956635 0.369935
C24   C     C_R   0.785421 0.639047 0.579362 0.148336
C25   C     C_R   0.223357 0.304879 0.804954 0.303941
C26   C     C_R   0.852493 0.365976 0.072404 0.494031
C27   C     C_R   0.224781 0.820681 0.158953 0.457136
C28   C     C_R   0.147496 0.365997 0.927527 0.493914
C29   C     C_R   0.775206 0.820697 0.841044 0.457197
C30   C     C_R   0.352286 0.864121 0.068262 0.493011
C31   C     C_R   0.722814 0.318614 0.157313 0.433103
C32   C     C_R   0.647722 0.864095 0.931784 0.493036
C33   C     C_R   0.277220 0.318571 0.842741 0.432380
C34   C     C_R   0.596288 0.580044 0.425152 -0.129573
C35   C     C_R   0.195775 0.716050 0.583982 0.141127
C36   C     C_R   0.426258 0.387199 0.574498 -0.128869
C37   C     C_R   0.403712 0.580043 0.574848 -0.129590
C38   C     C_R   0.573738 0.387193 0.425508 -0.128757
C39   C     C_R   0.096244 0.080020 0.425074 -0.131209
C40   C     C_R   0.926307 0.887210 0.574545 -0.120578
C41   C     C_R   0.903760 0.080023 0.574929 -0.131182
C42   C     C_R   0.073694 0.887210 0.425457 -0.120575
C43   C     C_R   0.392960 0.609096 0.290657 -0.074150
C44   C     C_R   0.618121 0.417422 0.743863 -0.147013
C45   C     C_R   0.607040 0.609094 0.709345 -0.074121
C46   C     C_R   0.714587 0.138583 0.421243 0.145124
C47   C     C_R   0.381876 0.417440 0.256126 -0.146939
C48   C     C_R   0.892853 0.108998 0.290663 -0.073738
C49   C     C_R   0.118156 0.917480 0.743818 -0.147620
C50   C     C_R   0.107151 0.108991 0.709348 -0.073730
C51   C     C_R   0.881845 0.917477 0.256185 -0.147598
C52   C     C_R   0.579217 0.641894 0.736890 0.096998
C53   C     C_R   0.401414 0.401782 0.204963 0.107373
C54   C     C_R   0.420783 0.641897 0.263113 0.096969
C55   C     C_R   0.598581 0.401746 0.795017 0.107369
C56   C     C_R   0.079450 0.141912 0.736935 0.095646
C57   C     C_R   0.804227 0.716054 0.416026 0.141090
C58   C     C_R   0.901286 0.901829 0.204920 0.105684
C59   C     C_R   0.920558 0.141923 0.263084 0.095637
C60   C     C_R   0.098715 0.901833 0.795085 0.105657
C61   C     C_R   0.646852 0.592464 0.498835 0.101163
C62   C     C_R   0.391469 0.352284 0.499754 0.077666
C63   C     C_R   0.353147 0.592462 0.501166 0.101181
C64   C     C_R   0.608526 0.352279 0.500258 0.077643
C65   C     C_R   0.146830 0.092374 0.498691 0.100880
C66   C     C_R   0.891560 0.852256 0.499853 0.075489
C67   C     C_R   0.853174 0.092381 0.501314 0.100877
C68   C     C_R   0.285415 0.138590 0.578794 0.145030
C69   C     C_R   0.108441 0.852256 0.500150 0.075497
C70   C     C_R   0.611039 0.261836 0.420306 -0.234705
C71   C     C_R   0.311518 0.616110 0.583690 -0.244196
C72   C     C_R   0.388945 0.261865 0.579732 -0.234718
C73   C     C_R   0.688484 0.616114 0.416316 -0.244038
C74   C     C_R   0.110959 0.762036 0.419903 -0.234876
C75   C     C_R   0.811793 0.116318 0.584130 -0.234645
C76   C     C_R   0.889042 0.762037 0.580103 -0.234910
C77   C     C_R   0.188234 0.116278 0.415897 -0.234703
C78   C     C_R   0.626847 0.290650 0.501127 0.111673
C79   C     C_R   0.685434 0.193606 0.502839 0.035439
C80   C     C_R   0.306144 0.605905 0.501991 0.112001
C81   C     C_R   0.373150 0.290658 0.498904 0.111667
C82   C     C_R   0.693856 0.605910 0.498013 0.112011
C83   C     C_R   0.126682 0.790623 0.500830 0.112686
C84   C     C_R   0.806233 0.105776 0.502346 0.108799
C85   C     C_R   0.873320 0.790624 0.499176 0.112676
C86   C     C_R   0.193776 0.105764 0.497672 0.108714
C87   C     C_R   0.665646 0.263715 0.583018 -0.241136
C88   C     C_R   0.256380 0.613291 0.420932 -0.204236
C89   C     C_R   0.334376 0.263698 0.417025 -0.241180
C90   C     C_R   0.222440 0.656284 0.502575 0.034202
C91   C     C_R   0.743617 0.613299 0.579073 -0.204294
C92   C     C_R   0.165346 0.763481 0.582624 -0.243104
C93   C     C_R   0.756347 0.112801 0.421409 -0.194189
C94   C     C_R   0.834655 0.763484 0.417383 -0.243034
C95   C     C_R   0.243653 0.112809 0.578616 -0.193896
C96   C     C_3   0.475205 0.777135 0.093575 -0.239903
C97   C     C_3   0.603740 0.401989 0.100242 -0.145957
C98   C     C_3   0.524821 0.777085 0.906499 -0.239938
C99   C     C_3   0.395277 0.402133 0.898300 -0.145732
C100  C     C_3   0.975315 0.279882 0.096438 -0.237741
C101  C     C_R   0.314582 0.193599 0.497209 0.035460
C102  C     C_3   0.068568 0.815751 0.030382 -0.282158
C103  C     C_3   0.024681 0.279924 0.903519 -0.237738
C104  C     C_3   0.931401 0.815701 0.969611 -0.282217
C105  C     C_3   0.861305 0.369386 0.955410 -0.063522
C106  C     C_3   0.185639 0.747387 0.191388 -0.029759
C107  C     C_3   0.138665 0.369473 0.044497 -0.062389
C108  C     C_3   0.814325 0.747426 0.808525 -0.029877
C109  C     C_3   0.360238 0.864930 0.950270 -0.059277
C110  C     C_3   0.681210 0.244777 0.183377 -0.002378
C111  C     C_3   0.639789 0.864879 0.049794 -0.059285
C112  C     C_R   0.454752 0.417219 0.256288 -0.139504
C113  C     C_R   0.777560 0.656289 0.497433 0.034208
C114  C     C_3   0.318936 0.244687 0.817016 -0.002578
C115  C     C_R   0.185229 0.693646 0.502262 0.033216
C116  C     C_R   0.722626 0.156194 0.503172 0.033311
C117  C     C_R   0.814771 0.693650 0.497746 0.033228
C118  C     C_R   0.277392 0.156180 0.496870 0.033263
C119  C     C_R   0.640689 0.213758 0.420557 0.143896
C120  C     C_R   0.270090 0.641841 0.584540 0.143935
C121  C     C_R   0.359305 0.213780 0.579488 0.143852
C122  C     C_R   0.729912 0.641846 0.415468 0.143894
C123  C     C_R   0.140618 0.714045 0.420007 0.148120
C124  C     C_R   0.466569 0.608914 0.290628 -0.113955
C125  C     C_R   0.770411 0.142053 0.585094 0.140843
C126  C     C_R   0.859382 0.714048 0.580000 0.148142
C127  C     C_R   0.229623 0.142012 0.414946 0.140857
C128  C     C_R   0.740759 0.196249 0.666050 -0.187790
C129  C     C_R   0.166935 0.653252 0.339500 -0.195744
C130  C     C_R   0.259296 0.196184 0.334003 -0.187815
C131  C     C_R   0.833061 0.653261 0.660507 -0.195825
C132  C     C_R   0.240275 0.695731 0.665492 -0.186912
C133  C     C_R   0.666792 0.152462 0.340163 -0.187039
C134  C     C_R   0.759727 0.695736 0.334516 -0.186825
C135  C     C_R   0.545246 0.417202 0.743704 -0.139434
C136  C     C_R   0.333197 0.152491 0.659880 -0.186645
C137  C     C_R   0.277449 0.658821 0.665766 -0.191604
C138  C     C_R   0.630015 0.190282 0.339739 -0.178507
C139  C     C_R   0.722554 0.658825 0.334243 -0.191471
C140  C     C_R   0.369969 0.190323 0.660308 -0.178479
C141  C     C_R   0.777935 0.159341 0.666336 -0.182584
C142  C     C_R   0.130113 0.690952 0.339113 -0.181142
C143  C     C_R   0.222120 0.159271 0.333711 -0.182596
C144  C     C_R   0.869884 0.690959 0.660895 -0.181170
C145  C     C_R   0.406283 0.701989 0.218918 0.052482
C146  C     C_R   0.033553 0.109033 0.709395 -0.108199
C147  C     C_R   0.630534 0.385253 0.891454 0.041173
C148  C     C_R   0.593718 0.701982 0.781093 0.052473
C149  C     C_R   0.369460 0.385308 0.108522 0.040680
C150  C     C_R   0.905860 0.202158 0.219226 0.052541
C151  C     C_R   0.130917 0.884983 0.891424 0.052531
C152  C     C_R   0.094152 0.202145 0.780797 0.052533
C153  C     C_R   0.869083 0.884974 0.108583 0.052509
C154  C     C_R   0.422355 0.786062 0.148583 0.707168
C155  C     C_R   0.636932 0.357608 0.028292 0.660546
C156  C     C_R   0.577655 0.786037 0.851463 0.707177
C157  C     C_R   0.954672 0.917214 0.256217 -0.142480
C158  C     C_R   0.363067 0.357695 0.971694 0.660103
C159  C     C_R   0.922294 0.287441 0.151234 0.705207
C160  C     C_R   0.137937 0.857198 0.029272 0.701851
C161  C     C_R   0.077703 0.287453 0.848725 0.705195
C162  C     C_R   0.862057 0.857195 0.970733 0.701899
C163  C     C_R   0.438477 0.731370 0.197274 -0.358926
C164  C     C_R   0.606763 0.375712 0.938284 -0.359860
C165  C     C_R   0.561530 0.731351 0.802760 -0.358919
C166  C     C_R   0.393227 0.375823 0.061673 -0.358812
C167  C     C_R   0.938326 0.232349 0.198922 -0.356432
C168  C     C_R   0.966451 0.109038 0.290616 -0.108193
C169  C     C_R   0.107868 0.877777 0.939791 -0.380310
C170  C     C_R   0.061675 0.232354 0.801060 -0.356387
C171  C     C_R   0.892128 0.877772 0.060213 -0.380265
C172  C     C_R   0.360455 0.731031 0.200220 -0.076095
C173  C     C_R   0.685517 0.379077 0.937457 -0.087702
C174  C     C_R   0.639541 0.731030 0.799781 -0.076003
C175  C     C_R   0.314478 0.379105 0.062524 -0.087533
C176  C     C_R   0.859603 0.230588 0.199773 -0.074962
C177  C     C_R   0.185541 0.876781 0.935921 -0.093667
C178  C     C_R   0.140421 0.230559 0.800279 -0.074966
C179  C     C_R   0.045328 0.917215 0.743785 -0.142484
C180  C     C_R   0.814461 0.876766 0.064093 -0.093606
C181  C     C_R   0.346031 0.788308 0.160407 0.056495
C182  C     C_R   0.717098 0.363770 0.028589 0.069420
C183  C     C_R   0.653968 0.788302 0.839610 0.056495
C184  C     C_R   0.282902 0.363788 0.971395 0.069953
C185  C     C_R   0.845283 0.288293 0.161324 0.054312
C186  C     C_R   0.217594 0.862836 0.027385 0.065159
C187  C     C_R   0.154732 0.288275 0.838685 0.054301
C188  C     C_R   0.782404 0.862827 0.972629 0.065131
C189  C     C_R   0.646178 0.580031 0.573455 -0.058147
C190  C     C_R   0.696112 0.216291 0.584507 0.140205
C191  C     C_R   0.375768 0.387799 0.425360 -0.122738
C192  C     C_R   0.353821 0.580030 0.426546 -0.058131
C193  C     C_R   0.624230 0.387800 0.574646 -0.122702
C194  C     C_R   0.146198 0.079953 0.573370 -0.052924
C195  C     C_R   0.875818 0.887750 0.425411 -0.122612
C196  C     C_R   0.853802 0.079959 0.426633 -0.053055
C197  C     C_R   0.124183 0.887750 0.574591 -0.122634
C198  C     C_R   0.374032 0.813266 0.125836 -0.269981
C199  C     C_R   0.692075 0.346603 0.072098 -0.250049
C200  C     C_R   0.625974 0.813247 0.874200 -0.269974
H1    H     H_    0.502355 0.620420 0.718584 0.095469
H2    H     H_    0.334142 0.707902 0.212751 0.139256
H3    H     H_    0.987982 0.256982 0.849653 0.144681
H4    H     H_    0.013830 0.308104 0.941860 0.170226
H5    H     H_    0.927321 0.776289 0.003888 0.115659
H6    H     H_    0.966085 0.843710 0.018350 0.145745
H7    H     H_    0.939218 0.797466 0.920694 0.168043
H8    H     H_    0.829982 0.546563 0.025378 0.363794
H9    H     H_    0.303242 0.875966 0.354218 0.350441
H10   H     H_    0.170209 0.546991 0.973080 0.363705
H11   H     H_    0.696727 0.876012 0.645787 0.350468
H12   H     H_    0.328486 0.044372 0.016181 0.365093
H13   H     H_    0.296094 0.382450 0.098861 0.136781
H14   H     H_    0.800565 0.371079 0.354530 0.345370
H15   H     H_    0.671513 0.044346 0.983861 0.365108
H16   H     H_    0.199486 0.370917 0.645481 0.345173
H17   H     H_    0.818838 0.380044 0.905521 0.127501
H18   H     H_    0.867161 0.319575 0.958368 0.069920
H19   H     H_    0.884454 0.389825 0.931380 0.164756
H20   H     H_    0.219356 0.715764 0.230393 0.146111
H21   H     H_    0.162888 0.735057 0.119031 0.058680
H22   H     H_    0.158616 0.741435 0.213729 0.147752
H23   H     H_    0.181125 0.380162 0.094388 0.127373
H24   H     H_    0.665848 0.707909 0.787231 0.139254
H25   H     H_    0.132832 0.319660 0.041596 0.069535
H26   H     H_    0.115497 0.389920 0.068484 0.164666
H27   H     H_    0.780602 0.715820 0.769446 0.146197
H28   H     H_    0.837052 0.735048 0.880866 0.058584
H29   H     H_    0.841366 0.741504 0.786218 0.147791
H30   H     H_    0.317627 0.875002 0.900529 0.126402
H31   H     H_    0.366430 0.815136 0.955012 0.067383
H32   H     H_    0.382908 0.884617 0.924831 0.166415
H33   H     H_    0.714197 0.211608 0.215673 0.129615
H34   H     H_    0.655658 0.236354 0.109814 0.093714
H35   H     H_    0.203367 0.878422 0.898526 0.134602
H36   H     H_    0.656359 0.237117 0.209640 0.148279
H37   H     H_    0.682400 0.874952 0.099526 0.126405
H38   H     H_    0.633599 0.815085 0.045042 0.067403
H39   H     H_    0.617125 0.884555 0.075249 0.166410
H40   H     H_    0.285985 0.211458 0.784909 0.129522
H41   H     H_    0.344530 0.236429 0.890626 0.093894
H42   H     H_    0.343772 0.236957 0.790733 0.148187
H43   H     H_    0.832981 0.206749 0.210884 0.140192
H44   H     H_    0.796639 0.878401 0.101493 0.134602
H45   H     H_    0.167054 0.206702 0.789215 0.140224
H46   H     H_    0.564410 0.380561 0.905194 0.145273
H47   H     H_    0.475998 0.711665 0.217310 0.139835
H48   H     H_    0.435568 0.380764 0.094708 0.145427
H49   H     H_    0.480329 0.421131 0.232642 0.087243
H50   H     H_    0.524014 0.711642 0.782733 0.139828
H51   H     H_    0.066284 0.887319 0.908012 0.141758
H52   H     H_    0.976039 0.213003 0.219335 0.140658
H53   H     H_    0.933710 0.887316 0.091987 0.141765
H54   H     H_    0.023956 0.213018 0.780631 0.140669
H55   H     H_    0.679985 0.575682 0.641833 0.090143
H56   H     H_    0.348934 0.375874 0.355860 0.096152
H57   H     H_    0.320014 0.575682 0.358168 0.090192
H58   H     H_    0.651067 0.375881 0.644148 0.096161
H59   H     H_    0.180040 0.075585 0.641715 0.092539
H60   H     H_    0.497644 0.620424 0.281417 0.095468
H61   H     H_    0.848985 0.875769 0.355929 0.096952
H62   H     H_    0.819959 0.075596 0.358287 0.092504
H63   H     H_    0.151016 0.875768 0.644073 0.096945
H64   H     H_    0.584153 0.575520 0.356450 0.080714
H65   H     H_    0.446441 0.374285 0.643848 0.097832
H66   H     H_    0.415848 0.575518 0.643551 0.080675
H67   H     H_    0.553552 0.374272 0.356161 0.097855
H68   H     H_    0.084052 0.075485 0.356343 0.087519
H69   H     H_    0.946510 0.874335 0.643906 0.098162
H70   H     H_    0.915954 0.075484 0.643661 0.087509
H71   H     H_    0.519673 0.421114 0.767358 0.087207
H72   H     H_    0.053492 0.874336 0.356096 0.098166
H73   H     H_    0.355843 0.620651 0.281595 0.118611
H74   H     H_    0.659274 0.421652 0.767271 0.132878
H75   H     H_    0.644158 0.620650 0.718411 0.118560
H76   H     H_    0.340723 0.421674 0.232718 0.132797
H77   H     H_    0.855769 0.120434 0.281779 0.121430
H78   H     H_    0.159287 0.921771 0.767157 0.139076
H79   H     H_    0.144236 0.120425 0.718232 0.121535
H80   H     H_    0.840713 0.921768 0.232846 0.139102
H81   H     H_    0.579177 0.280012 0.356708 0.120988
H82   H     H_    0.002512 0.120733 0.718619 0.096546
H83   H     H_    0.348982 0.608846 0.646917 0.113469
H84   H     H_    0.420787 0.280062 0.643325 0.120982
H85   H     H_    0.651021 0.608848 0.353089 0.113484
H86   H     H_    0.079195 0.780362 0.356347 0.118236
H87   H     H_    0.849361 0.109343 0.647298 0.117509
H88   H     H_    0.920806 0.780362 0.643658 0.118230
H89   H     H_    0.150677 0.109281 0.352728 0.117535
H90   H     H_    0.676207 0.283080 0.646095 0.116742
H91   H     H_    0.250820 0.603723 0.357341 0.118847
H92   H     H_    0.323830 0.283050 0.353954 0.116758
H93   H     H_    0.980332 0.920859 0.232721 0.095022
H94   H     H_    0.749175 0.603733 0.642663 0.118781
H95   H     H_    0.175824 0.782691 0.645742 0.116551
H96   H     H_    0.750650 0.102923 0.357787 0.120678
H97   H     H_    0.824178 0.782694 0.354265 0.116564
H98   H     H_    0.249337 0.102955 0.642233 0.120751
H99   H     H_    0.748911 0.212683 0.729293 0.128313
H100  H     H_    0.159883 0.638789 0.276202 0.120402
H101  H     H_    0.251159 0.212593 0.270761 0.128349
H102  H     H_    0.840110 0.638803 0.723805 0.120332
H103  H     H_    0.248319 0.711937 0.728762 0.126703
H104  H     H_    0.997494 0.120738 0.281398 0.096556
H105  H     H_    0.659572 0.137609 0.276903 0.122810
H106  H     H_    0.751684 0.711943 0.271247 0.126745
H107  H     H_    0.340408 0.137646 0.723136 0.122724
H108  H     H_    0.313500 0.646995 0.729239 0.125372
H109  H     H_    0.595175 0.204418 0.276118 0.135260
H110  H     H_    0.686504 0.647000 0.270770 0.125408
H111  H     H_    0.404793 0.204481 0.723930 0.135231
H112  H     H_    0.814098 0.147751 0.729791 0.131045
H113  H     H_    0.095405 0.705343 0.275497 0.124279
H114  H     H_    0.185973 0.147653 0.270254 0.131075
H115  H     H_    0.019667 0.920862 0.767278 0.095024
H116  H     H_    0.904591 0.705350 0.724509 0.124266
H117  H     H_    0.445547 0.742930 0.047040 0.092806
H118  H     H_    0.512071 0.754775 0.148008 0.143547
H119  H     H_    0.485808 0.804619 0.054320 0.170899
H120  H     H_    0.576315 0.432048 0.042975 0.099318
H121  H     H_    0.642220 0.425284 0.146860 0.144173
H122  H     H_    0.585415 0.392816 0.137739 0.158110
H123  H     H_    0.554483 0.742877 0.953017 0.092840
H124  H     H_    0.487953 0.754730 0.852069 0.143546
H125  H     H_    0.514227 0.804558 0.945775 0.170877
H126  H     H_    0.703901 0.382437 0.901120 0.136905
H127  H     H_    0.421856 0.433207 0.954712 0.098888
H128  H     H_    0.356343 0.424226 0.850631 0.145820
H129  H     H_    0.414085 0.393105 0.861547 0.157659
H130  H     H_    0.945525 0.246159 0.048875 0.096620
H131  H     H_    0.012021 0.256962 0.150322 0.144690
H132  H     H_    0.986155 0.308045 0.058065 0.170208
H133  H     H_    0.072607 0.776353 0.996034 0.115623
H134  H     H_    0.033898 0.843801 0.981703 0.145809
H135  H     H_    0.060758 0.797494 0.079300 0.168036
H136  H     H_    0.054479 0.246220 0.951116 0.096619
N1    N     N_R   0.532970 0.559900 0.665210 -0.045605
N2    N     N_R   0.402100 0.440070 0.454470 -0.045973
N3    N     N_R   0.402100 0.559930 0.454470 -0.046957
N4    N     N_R   0.597900 0.440070 0.545530 -0.045977
N5    N     N_R   0.097900 0.059930 0.545530 -0.048607
N6    N     N_R   0.902100 0.940070 0.454470 -0.046631
N7    N     N_R   0.902100 0.059930 0.454470 -0.048585
N8    N     N_R   0.097900 0.940070 0.545530 -0.046637
N9    N     N_R   0.567170 0.559950 0.454460 -0.041317
N10   N     N_R   0.432830 0.440050 0.545540 -0.046493
N11   N     N_R   0.432830 0.559950 0.545540 -0.041314
N12   N     N_R   0.467030 0.440100 0.334790 -0.042318
N13   N     N_R   0.567170 0.440050 0.454460 -0.046496
N14   N     N_R   0.067170 0.059950 0.454460 -0.042448
N15   N     N_R   0.932830 0.940050 0.545540 -0.046720
N16   N     N_R   0.932830 0.059950 0.545540 -0.042443
N17   N     N_R   0.067170 0.940050 0.454460 -0.046721
N18   N     N_R   0.421470 0.559970 0.334770 -0.046631
N19   N     N_R   0.578530 0.440030 0.665230 -0.042919
N20   N     N_R   0.578530 0.559970 0.665230 -0.046628
N21   N     N_R   0.421470 0.440030 0.334770 -0.042925
N22   N     N_R   0.921470 0.059970 0.334770 -0.047195
N23   N     N_R   0.467030 0.559900 0.334790 -0.045601
N24   N     N_R   0.078530 0.940030 0.665230 -0.043904
N25   N     N_R   0.078530 0.059970 0.665230 -0.047206
N26   N     N_R   0.921470 0.940030 0.334770 -0.043909
N27   N     N_R   0.532970 0.440100 0.665210 -0.042315
N28   N     N_R   0.032970 0.059900 0.665210 -0.045609
N29   N     N_R   0.967030 0.940100 0.334790 -0.043068
N30   N     N_R   0.967030 0.059900 0.334790 -0.045613
N31   N     N_R   0.032970 0.940100 0.665210 -0.043067
N32   N     N_R   0.597900 0.559930 0.545530 -0.046952
Ni1   Ni    Ni4+2 0.483030 0.500000 0.604430 0.214090
Ni2   Ni    Ni4+2 0.516970 0.500000 0.395570 0.214136
Ni3   Ni    Ni4+2 0.983030 0.000000 0.604430 0.220014
Ni4   Ni    Ni4+2 0.016970 0.000000 0.395570 0.220009
Ni5   Ni    Ni4+2 0.587400 0.500000 0.604430 0.239549
Ni6   Ni    Ni4+2 0.412600 0.500000 0.395570 0.239530
Ni7   Ni    Ni4+2 0.087400 0.000000 0.604430 0.240511
Ni8   Ni    Ni4+2 0.912600 0.000000 0.395570 0.240524
O1    O     O_3   0.455166 0.816324 0.129847 -0.549885
O2    O     O_2   0.747923 0.491879 0.023122 -0.287025
O3    O     O_3   0.841507 0.506657 0.055341 -0.464632
O4    O     O_2   0.318931 0.726782 0.332463 -0.314762
O5    O     O_2   0.377195 0.809561 0.349345 -0.242002
O6    O     O_3   0.300571 0.833283 0.367918 -0.438932
O7    O     O_2   0.238335 0.464637 0.094347 -0.359691
O8    O     O_2   0.252038 0.491879 0.976688 -0.288233
O9    O     O_3   0.158472 0.506674 0.944555 -0.464655
O10   O     O_2   0.681035 0.726824 0.667503 -0.314773
O11   O     O_2   0.622789 0.809604 0.650675 -0.242002
O12   O     O_3   0.611169 0.346488 0.070227 -0.602062
O13   O     O_3   0.699403 0.833333 0.632084 -0.438958
O14   O     O_2   0.260478 0.960363 0.898656 -0.361882
O15   O     O_2   0.247392 0.990356 0.016118 -0.278495
O16   O     O_3   0.340536 0.004555 0.046275 -0.461631
O17   O     O_2   0.814243 0.222193 0.327672 -0.316138
O18   O     O_2   0.874660 0.304097 0.350239 -0.246382
O19   O     O_3   0.797325 0.328220 0.366762 -0.443974
O20   O     O_2   0.739526 0.960333 0.101385 -0.361876
O21   O     O_2   0.752605 0.990341 0.983922 -0.278510
O22   O     O_3   0.659463 0.004528 0.953774 -0.461624
O23   O     O_3   0.544850 0.816287 0.870223 -0.549895
O24   O     O_2   0.185912 0.222037 0.672535 -0.316148
O25   O     O_2   0.125399 0.303885 0.649761 -0.246493
O26   O     O_3   0.202746 0.328054 0.633290 -0.444077
O27   O     O_3   0.879553 0.393749 0.040538 -0.509325
O28   O     O_3   0.203253 0.808001 0.207477 -0.527065
O29   O     O_3   0.120420 0.393792 0.959346 -0.509091
O30   O     O_3   0.796726 0.808045 0.792501 -0.527075
O31   O     O_3   0.378804 0.890850 0.034652 -0.508222
O32   O     O_3   0.700514 0.304660 0.204234 -0.547513
O33   O     O_3   0.621212 0.890811 0.965414 -0.508233
O34   O     O_3   0.388863 0.346703 0.929793 -0.602384
O35   O     O_3   0.299550 0.304528 0.795896 -0.548067
O36   O     O_3   0.955365 0.318320 0.133664 -0.551982
O37   O     O_3   0.114949 0.851490 0.077305 -0.562053
O38   O     O_3   0.044623 0.318345 0.866262 -0.551997
O39   O     O_3   0.885045 0.851482 0.922707 -0.562071
O40   O     O_2   0.761674 0.464558 0.905543 -0.360821
S1    S     S_3+6 0.786096 0.464361 0.004770 -0.028221
S2    S     S_3+6 0.320856 0.792548 0.313571 0.005522
S3    S     S_3+6 0.213888 0.464389 0.995115 -0.028343
S4    S     S_3+6 0.679123 0.792585 0.686426 0.005495
S5    S     S_3+6 0.285365 0.961948 0.997992 -0.024360
S6    S     S_3+6 0.817786 0.288220 0.312071 0.001423
S7    S     S_3+6 0.714636 0.961925 0.002050 -0.024363
S8    S     S_3+6 0.182294 0.288069 0.688007 0.001352

loop_
_geom_bond_atom_site_label_1
_geom_bond_atom_site_label_2
_ccdc_geom_bond_type
C44   H74   S    
C7    C29   A    
C102  H135  S    
C131  H102  S    
C163  H47   S    
C74   C83   A    
C136  C140  A    
C66   C85   S    
C21   S5    S    
C41   C67   A    
C99   H129  S    
C111  H37   S    
C49   C60   A    
O24   S8    D    
C108  O30   S    
N3    Ni6   S    
C195  H61   S    
C122  C139  A    
C147  C164  A    
C74   H86   S    
C107  H26   S    
C103  H136  S    
N10   Ni1   S    
C2    C90   A    
C9    C182  A    
N29   Ni4   S    
O22   S7    S    
C11   C15   A    
C113  C122  A    
C10   C20   A    
H8    O3    S    
C3    C158  A    
O7    S3    D    
C13   C130  A    
N16   Ni3   S    
C35   C115  A    
C72   H84   S    
C117  C126  A    
C107  H23   S    
C47   C53   A    
C194  N5    A    
C74   C123  A    
C153  C180  A    
C156  O23   S    
H10   O9    S    
C61   C189  A    
C148  C165  A    
C39   C65   A    
C5    C186  A    
C36   C62   A    
C38   N13   A    
C37   C63   A    
C38   C64   A    
C26   O27   S    
N25   N28   A    
O21   S7    D    
C68   C95   A    
C115  C123  A    
C107  O29   S    
C176  C185  A    
C177  H35   S    
C160  O37   S    
C16   C188  A    
C96   H118  S    
N14   Ni4   S    
H12   O16   S    
C129  C142  A    
C108  H28   S    
C132  C137  A    
C100  H130  S    
C34   C61   A    
C148  C174  A    
C177  C186  A    
N11   Ni1   S    
C93   H96   S    
C149  C175  A    
C60   C151  S    
C174  C183  A    
C58   C153  S    
C152  C170  A    
C109  H30   S    
C7    C188  A    
C43   C54   A    
C43   N18   A    
C141  H112  S    
N7    N16   A    
C135  H71   S    
C193  H58   S    
C127  C143  A    
C104  H5    S    
C137  H108  S    
N12   N21   A    
C54   C145  S    
C62   C81   S    
C173  C182  A    
C105  H17   S    
C130  H101  S    
C102  H133  S    
N22   N30   A    
C124  N23   A    
C191  N2    A    
C97   H121  S    
C20   S4    S    
O13   S4    S    
N22   Ni8   S    
C121  C140  A    
C114  H40   S    
C65   C194  A    
C99   H127  S    
H16   O26   S    
C168  N30   A    
N26   Ni8   S    
C182  C199  A    
N24   N31   A    
C46   C116  A    
C191  H56   S    
C61   C82   S    
C166  H48   S    
O40   S1    D    
C169  H51   S    
C112  N12   A    
N7    Ni8   S    
C80   C88   A    
C10   C16   A    
C44   C55   A    
C139  H110  S    
C12   C185  A    
C102  O37   S    
C159  C167  A    
C128  C190  A    
C84   C93   A    
C97   H120  S    
C42   H72   S    
C86   C95   A    
C14   C21   A    
C106  H21   S    
C32   C200  A    
C168  H104  S    
C142  H113  S    
N13   Ni2   S    
C76   C85   A    
C78   C87   A    
C24   C131  A    
C48   N22   A    
C112  H49   S    
C60   C179  A    
C100  H132  S    
C92   H95   S    
O2    S1    D    
C101  C118  A    
O11   S4    D    
C154  C198  A    
C109  H32   S    
C146  N28   A    
C75   C84   A    
C151  C177  A    
C140  H111  S    
C63   C192  A    
C12   C22   A    
C114  O35   S    
C87   H90   S    
C194  H59   S    
C104  H7    S    
N27   Ni1   S    
C68   C118  A    
C5    C27   A    
C189  N32   A    
C172  C181  A    
C6    C28   A    
C97   O12   S    
C125  C141  A    
C105  H19   S    
C132  H103  S    
N8    N17   A    
C77   C127  A    
C110  H33   S    
C37   H66   S    
C145  C172  A    
C52   C148  S    
C53   C149  S    
C153  C171  A    
C51   N26   A    
O17   S6    D    
C63   C80   S    
C162  C171  A    
C165  H50   S    
C144  H116  S    
C134  C139  A    
C138  H109  S    
C47   H76   S    
C145  C163  A    
C45   C52   A    
C45   N20   A    
O8    S3    D    
C50   C56   A    
C167  H52   S    
C90   C120  A    
O19   S6    S    
C38   H67   S    
C47   N21   A    
C154  O1    S    
C98   O23   S    
N5    N14   A    
C6    C161  A    
C5    C160  A    
C197  N8    A    
O14   S5    D    
C189  H55   S    
N8    Ni7   S    
C172  H2    S    
C19   C28   A    
C87   C190  A    
C113  C117  A    
C30   C198  A    
C98   H123  S    
C73   C122  A    
C16   C23   A    
C110  O32   S    
C57   C94   A    
C109  O31   S    
C44   N19   A    
C118  C127  A    
N2    Ni6   S    
C67   C196  A    
C105  O27   S    
C158  O34   S    
C106  O28   S    
C48   C59   A    
C3    C184  A    
C193  N4    A    
C114  H42   S    
C29   O30   S    
C119  C138  A    
C64   C78   S    
C11   C184  A    
C58   C157  A    
C97   H122  S    
C62   C191  A    
N20   Ni5   S    
N3    N11   A    
C91   H94   S    
C183  C200  A    
C151  C169  A    
C116  C125  A    
C71   H83   S    
C134  H106  S    
C35   C132  A    
C126  C144  A    
C143  H114  S    
C135  N27   A    
C59   C168  A    
C20   C29   A    
C42   N17   A    
C75   H87   S    
C76   H88   S    
N31   Ni3   S    
C173  H126  S    
O6    S2    S    
C1    N1    A    
C25   C33   A    
O25   S8    D    
C8    C181  A    
C106  H20   S    
C99   O34   S    
C10   C183  A    
C72   C121  A    
C76   C126  A    
C36   H65   S    
C1    H1    S    
C31   C199  A    
C66   C195  A    
C155  C199  A    
C65   C86   S    
C48   H77   S    
C11   C19   A    
N28   Ni3   S    
O3    S1    S    
N21   Ni6   S    
C4    C159  A    
O16   S5    S    
C3    C33   A    
C157  H93   S    
C196  N7    A    
C103  H4    S    
C180  C188  A    
N4    Ni5   S    
C79   C119  A    
C100  H131  S    
C160  C169  A    
C104  H6    S    
C56   C152  S    
C128  C141  A    
C72   C81   A    
C146  H82   S    
N24   Ni7   S    
C81   C89   A    
C35   C92   A    
C133  C138  A    
C40   C66   A    
C31   O32   S    
C102  H134  S    
C30   O31   S    
C110  H36   S    
N18   Ni6   S    
C111  H38   S    
C149  C166  A    
C161  O38   S    
C39   H68   S    
C45   H75   S    
C6    C187  A    
C101  C121  A    
C75   C125  A    
C4    C185  A    
C83   C92   A    
N19   Ni5   S    
C178  H45   S    
C51   C58   A    
C90   C115  A    
C178  C187  A    
C95   H98   S    
C57   C134  A    
H11   O13   S    
C18   S2    S    
N30   Ni4   S    
C73   C82   A    
C158  C166  A    
C128  H99   S    
C57   C117  A    
C59   C150  S    
O10   S4    D    
C54   C124  A    
C96   H117  S    
C50   N25   A    
C4    C26   A    
C147  C173  A    
C192  N3    A    
C43   H73   S    
C108  H27   S    
C70   H81   S    
C21   C30   A    
C34   H64   S    
C23   C32   A    
C28   O29   S    
C197  H63   S    
C46   C133  A    
C109  H31   S    
C156  C165  A    
C150  C167  A    
C123  C142  A    
C51   H80   S    
N4    N13   A    
C25   S8    S    
C56   C146  A    
C1    C52   A    
C8    C18   A    
C15   C25   A    
N6    N15   A    
C82   C91   A    
C73   H85   S    
C124  H60   S    
C105  H18   S    
C195  N6    A    
C120  C137  A    
C104  O39   S    
C131  C144  A    
C110  H34   S    
C175  C184  A    
N26   N29   A    
C99   H128  S    
C150  C176  A    
C39   N14   A    
C70   C78   A    
C88   H91   S    
O5    S2    D    
C162  O39   S    
C2    C129  A    
C19   S3    S    
C40   H69   S    
C155  O12   S    
C111  O33   S    
N9    N32   A    
C17   S1    S    
C71   C120  A    
C23   S7    S    
C17   C26   A    
C175  H13   S    
C77   H89   S    
N32   Ni5   S    
C14   C186  A    
C40   N15   A    
N18   N23   A    
C107  H25   S    
O9    S3    S    
C36   N10   A    
N5    Ni7   S    
C89   H92   S    
C79   C190  A    
C33   O35   S    
C2    C88   A    
H9    O6    S    
C164  H46   S    
O20   S7    D    
C34   N9    A    
C98   H124  S    
C24   C113  A    
C79   C116  A    
C69   C197  A    
C156  C200  A    
H14   O19   S    
C181  C198  A    
C96   H119  S    
C157  N29   A    
C71   C80   A    
C9    C12   A    
O4    S2    D    
C108  H29   S    
C180  H44   S    
C7    C162  A    
C22   C31   A    
C170  H54   S    
C22   S6    S    
C154  C163  A    
C68   C136  A    
N23   Ni2   S    
C174  H24   S    
C192  H57   S    
N15   Ni3   S    
C37   N11   A    
C98   H125  S    
C15   C187  A    
C50   H79   S    
C42   C69   A    
C111  H39   S    
C69   C83   S    
C85   C94   A    
C55   C147  S    
C70   C119  A    
C64   C193  A    
C171  H53   S    
C49   N24   A    
O15   S5    D    
C41   H70   S    
N17   Ni4   S    
C130  C143  A    
C133  H105  S    
C96   O1    S    
C161  C170  A    
C53   C112  A    
C9    C17   A    
C77   C86   A    
C176  H43   S    
H15   O22   S    
C41   N16   A    
C13   C101  A    
C24   C91   A    
O26   S8    S    
N9    Ni2   S    
C8    C14   A    
C13   C89   A    
C32   O33   S    
C18   C27   A    
C27   O28   S    
C103  O38   S    
C179  N31   A    
N1    N20   A    
C155  C164  A    
N19   N27   A    
C129  H100  S    
N2    N10   A    
O18   S6    D    
C100  O36   S    
C196  H62   S    
C159  O36   S    
C136  H107  S    
C106  H22   S    
C46   C93   A    
N12   Ni2   S    
C49   H78   S    
C55   C135  A    
C94   H97   S    
C152  C178  A    
C103  H3    S    
C179  H115  S    
C67   C84   S    
C114  H41   S    
N1    Ni1   S    
N25   Ni7   S    
N6    Ni8   S    
