data_mof_unit_39160.cif
_audit_creation_date              2012-12-11T17:14:10-0500
_audit_creation_method            fapswitch 2.2
_symmetry_space_group_name_H-M    P1
_symmetry_Int_Tables_number       1
_space_group_crystal_system       triclinic
_cell_length_a                    18.288791
_cell_length_b                    7.115129
_cell_length_c                    13.022029
_cell_angle_alpha                 89.98505
_cell_angle_beta                  72.455524
_cell_angle_gamma                 90.181962
_cell_volume                      1615.6859648

loop_
_atom_site_label
_atom_site_type_symbol
_atom_type_description
_atom_site_fract_x
_atom_site_fract_y
_atom_site_fract_z
_atom_type_partial_charge
O1    O     O_R   0.453880 0.506200 0.150010 -0.509767
O2    O     O_R   0.546120 0.006200 0.849990 -0.542670
O3    O     O_R   0.604080 0.177770 0.007280 -0.554172
O4    O     O_R   0.395920 0.677770 0.992720 -0.552523
C1    C     C_R   0.636021 0.344674 0.001486 0.727384
C2    C     C_R   0.363799 0.844397 0.999324 0.728342
O5    O     O_R   0.458010 0.176640 0.159130 -0.564796
O6    O     O_R   0.541990 0.676640 0.840870 -0.543797
O7    O     O_R   0.399010 0.004010 0.002930 -0.532278
O8    O     O_R   0.600990 0.504010 0.997070 -0.532264
C3    C     C_R   0.441303 0.345500 0.202149 0.772570
C4    C     C_R   0.557662 0.846260 0.798734 0.752225
O9    O     O_3   0.480810 0.338440 0.948570 -0.386962
O10   O     O_3   0.519190 0.838440 0.051430 -0.378685
V1    V     V_3+5 0.503560 0.064490 0.009540 1.404114
V2    V     V_3+5 0.496440 0.564490 0.990460 1.440317
C5    C     C_R   0.578790 0.950219 0.509422 0.316963
C6    C     C_R   0.411205 0.531542 0.483455 0.356133
C7    C     C_R   0.592918 0.863061 0.682044 -0.322412
C8    C     C_R   0.409343 0.363486 0.320880 -0.286751
C9    C     C_R   0.943941 0.790477 0.380381 0.386173
C10   C     C_R   0.054587 0.271432 0.618236 0.285654
C11   C     C_R   0.908913 0.702299 0.479176 0.181749
C12   C     C_R   0.086158 0.263463 0.505220 0.225059
C13   C     C_R   0.827778 0.697351 0.519810 0.326229
C14   C     C_R   0.164091 0.310125 0.456974 0.396323
C15   C     C_R   0.783113 0.803525 0.467963 0.008432
C16   C     C_R   0.212059 0.352163 0.522114 -0.014560
C17   C     C_R   0.817720 0.860762 0.359418 -0.238246
C18   C     C_R   0.177302 0.386941 0.634191 -0.224860
C19   C     C_R   0.704424 0.848383 0.520462 -0.007625
C20   C     C_R   0.293446 0.374487 0.476915 -0.025992
C21   C     C_R   0.657862 0.916609 0.458448 -0.261051
C22   C     C_R   0.333814 0.482297 0.534102 -0.201378
C23   C     C_R   0.691468 0.960348 0.348666 0.419814
C24   C     C_R   0.296904 0.532836 0.642271 0.440044
C25   C     C_R   0.769764 0.926989 0.298739 0.386590
C26   C     C_R   0.223596 0.461080 0.694967 0.355305
C27   C     C_R   0.673038 0.847841 0.634787 0.362539
C28   C     C_R   0.335988 0.290721 0.377507 0.367264
C29   C     C_R   0.547130 0.922874 0.619882 0.395047
C30   C     C_R   0.446281 0.485560 0.374724 0.310962
C31   C     C_R   0.899325 0.852122 0.316429 -0.204168
C32   C     C_R   0.097384 0.349504 0.681263 -0.182530
C33   C     C_1   0.216051 0.859346 0.001628 -0.154581
C34   C     C_1   0.783702 0.358516 0.999545 -0.150603
C35   C     C_1   0.283207 0.852977 0.000803 -0.180755
C36   C     C_1   0.716474 0.352884 0.000656 -0.183450
O11   O     O_R   0.899030 0.205490 0.002790 -0.516144
O12   O     O_R   0.100970 0.705490 0.997210 -0.515937
O13   O     O_R   0.042000 0.536370 0.840840 -0.527179
O14   O     O_R   0.958000 0.036370 0.159160 -0.516414
C37   C     C_R   0.058476 0.367209 0.798190 0.880174
C38   C     C_R   0.939512 0.868226 0.200835 0.854621
O15   O     O_R   0.895930 0.535070 0.992690 -0.570731
O16   O     O_R   0.104070 0.035070 0.007310 -0.559152
O17   O     O_R   0.953870 0.707520 0.150040 -0.568583
O18   O     O_R   0.046130 0.207520 0.849960 -0.555748
C39   C     C_R   0.864185 0.366547 0.998548 0.749659
C40   C     C_R   0.135752 0.866950 0.001809 0.749114
O19   O     O_3   0.019200 0.374340 0.051340 -0.383912
O20   O     O_3   0.980800 0.874340 0.948660 -0.398203
V3    V     V_3+5 0.996440 0.648350 0.990470 1.424396
V4    V     V_3+5 0.003560 0.148350 0.009530 1.463701
O21   O     O_3   0.469070 0.941789 0.666706 -0.523232
C41   C     C_3   0.450733 0.133333 0.682996 -0.126251
H1    H     H_    0.453934 0.204881 0.605961 0.164228
H2    H     H_    0.487533 0.207704 0.724379 0.114036
H3    H     H_    0.390746 0.142269 0.735506 0.127816
O22   O     O_3   0.514446 0.574031 0.319950 -0.574417
C42   C     C_3   0.575875 0.449213 0.309346 -0.241235
H4    H     H_    0.568498 0.359264 0.381864 0.194641
H5    H     H_    0.629232 0.531376 0.298720 0.139127
H6    H     H_    0.584122 0.362814 0.236138 0.164682
O23   O     O_3   0.653301 0.079721 0.298147 -0.553416
C43   C     C_3   0.626233 0.983828 0.221926 -0.176010
H7    H     H_    0.622435 0.829005 0.232525 0.127489
H8    H     H_    0.662372 0.021651 0.139930 0.166208
H9    H     H_    0.567506 0.033078 0.229310 0.169711
O24   O     O_3   0.326988 0.674412 0.691229 -0.508119
C44   C     C_3   0.358986 0.598517 0.767986 0.008459
H10   H     H_    0.391437 0.468015 0.740135 0.054147
H11   H     H_    0.314738 0.578662 0.846378 0.122862
H12   H     H_    0.400114 0.700118 0.783135 0.173302
O25   O     O_3   0.529655 0.002345 0.452955 -0.618080
H13   H     H_    0.528346 0.895409 0.405160 0.338653
O26   O     O_3   0.451922 0.625301 0.541156 -0.596947
H14   H     H_    0.507412 0.604331 0.507107 0.290782
O27   O     O_3   0.722519 0.860465 0.696963 -0.630286
H15   H     H_    0.694199 0.872805 0.774311 0.280058
O28   O     O_3   0.305748 0.135096 0.341030 -0.609215
H16   H     H_    0.347140 0.065060 0.288975 0.305739
O29   O     O_3   0.022888 0.814483 0.342732 -0.540600
C45   C     C_3   0.059636 0.640702 0.310791 -0.098193
H17   H     H_    0.023729 0.534774 0.284792 0.120062
H18   H     H_    0.078684 0.583626 0.377427 0.201757
H19   H     H_    0.111644 0.665619 0.241563 0.131565
O30   O     O_3   0.979111 0.218438 0.667350 -0.578112
C46   C     C_3   0.975501 0.020474 0.675119 -0.198416
H20   H     H_    0.992406 0.953386 0.594414 0.195976
H21   H     H_    0.915440 0.978329 0.717036 0.169733
H22   H     H_    0.012077 0.965558 0.722767 0.154587
O31   O     O_3   0.790947 0.577691 0.603063 -0.621599
H23   H     H_    0.818467 0.580320 0.657891 0.311409
O32   O     O_3   0.192653 0.336036 0.346582 -0.626425
H24   H     H_    0.155582 0.290907 0.310248 0.328035
O33   O     O_3   0.955691 0.619595 0.531783 -0.653323
H25   H     H_    0.929906 0.506806 0.570476 0.312832
O34   O     O_3   0.042017 0.215058 0.439523 -0.642416
H26   H     H_    0.987085 0.211678 0.481741 0.330642
O35   O     O_3   0.799269 0.974894 0.191407 -0.549904
C47   C     C_3   0.797921 0.813839 0.128425 -0.189370
H27   H     H_    0.740769 0.782103 0.121310 0.090514
H28   H     H_    0.817404 0.684913 0.160610 0.121149
H29   H     H_    0.835182 0.842098 0.045675 0.191694
O36   O     O_3   0.196533 0.476822 0.805551 -0.554646
C48   C     C_3   0.213306 0.307554 0.850730 -0.214440
H30   H     H_    0.275710 0.281281 0.829725 0.082015
H31   H     H_    0.186725 0.183525 0.824176 0.143911
H32   H     H_    0.191121 0.318877 0.939616 0.178810

loop_
_geom_bond_atom_site_label_1
_geom_bond_atom_site_label_2
_ccdc_geom_bond_type
C41   H2    S    
O26   H14   S    
C33   C40   S    
O29   C45   S    
C10   O30   S    
O15   C39   A    
C34   C39   S    
C15   C17   A    
O35   C47   S    
O1    C3    A    
C43   H9    S    
O2    C4    A    
C2    O7    A    
C47   H28   S    
C44   H10   S    
O25   H13   S    
O5    C3    A    
C23   O23   S    
C5    O25   S    
C23   C25   A    
C12   C14   A    
C48   H31   S    
C8    C28   A    
C41   H3    S    
C30   O22   S    
O36   C48   S    
C18   C26   A    
O19   V3    S    
O20   V4    S    
C9    C31   A    
C32   C37   S    
C10   C32   A    
C16   C18   A    
O15   V3    S    
O33   H25   S    
O16   V4    S    
O22   C42   S    
O5    V1    S    
C41   H1    S    
O6    V2    S    
O11   V4    S    
C17   C31   A    
O12   V3    S    
C18   C32   A    
C5    C21   A    
C14   O32   S    
C47   H27   S    
C44   H11   S    
O14   C38   A    
O17   V3    S    
C33   C35   T    
O18   V4    S    
C1    C36   S    
C34   C36   T    
C3    C8    S    
C2    C35   S    
C15   C19   A    
C16   C20   A    
O13   V3    S    
C43   H7    S    
O4    C2    A    
O14   V4    S    
C48   H32   S    
O28   H16   S    
C42   H5    S    
C13   O31   S    
C29   O21   S    
C45   H19   S    
O16   C40   A    
O13   C37   A    
C20   C22   A    
O4    V2    S    
O19   V4    S    
O23   C43   S    
O20   V3    S    
C26   O36   S    
C31   C38   S    
C46   H20   S    
O6    C4    A    
C11   O33   S    
C19   C21   A    
O1    V2    S    
C45   H18   S    
O2    V1    S    
C6    C22   A    
C7    C27   A    
C46   H21   S    
O30   C46   S    
C20   C28   A    
C9    C11   A    
C24   O24   S    
C10   C12   A    
C44   H12   S    
O3    V1    S    
C12   O34   S    
C43   H8    S    
O24   C44   S    
O3    C1    A    
C42   H6    S    
C8    C30   A    
C37   O18   A    
C13   C15   A    
O32   H24   S    
C14   C16   A    
C6    O26   S    
O11   C39   A    
O12   C40   A    
C6    C30   A    
O7    V1    S    
C42   H4    S    
O8    V2    S    
O34   H26   S    
C9    O29   S    
C4    C7    S    
C24   C26   A    
C21   C23   A    
C19   C27   A    
C22   C24   A    
C11   C13   A    
C28   O28   S    
C45   H17   S    
C5    C29   A    
C25   O35   S    
C1    O8    A    
C46   H22   S    
O21   C41   S    
O9    V2    S    
C17   C25   A    
O31   H23   S    
O10   V1    S    
O27   H15   S    
C48   H30   S    
C27   O27   S    
C47   H29   S    
C7    C29   A    
C38   O17   A    
