data_mof_unit_37781.cif
_audit_creation_date              2013-03-05T16:03:51-0500
_audit_creation_method            fapswitch 2.2
_symmetry_space_group_name_H-M    P1
_symmetry_Int_Tables_number       1
_space_group_crystal_system       triclinic
_cell_length_a                    6.926207
_cell_length_b                    17.650236
_cell_length_c                    19.584373
_cell_angle_alpha                 108.825074
_cell_angle_beta                  90.372887
_cell_angle_gamma                 90.846021
_cell_volume                      2265.69712193

loop_
_atom_site_label
_atom_site_type_symbol
_atom_site_description
_atom_site_fract_x
_atom_site_fract_y
_atom_site_fract_z
_atom_type_partial_charge
O1    O     O_R   0.505700 0.440210 0.561730 -0.600510
O2    O     O_R   0.169350 0.406300 0.412660 -0.592009
O3    O     O_R   0.005650 0.559790 0.438270 -0.599826
C1    C     C_R   0.337856 0.383435 0.384527 0.940973
O4    O     O_R   0.175560 0.430650 0.559600 -0.600468
O5    O     O_R   0.011900 0.584320 0.586250 -0.592541
C2    C     C_R   0.344395 0.416444 0.581937 0.919736
O6    O     O_R   0.499450 0.415680 0.413750 -0.586253
O7    O     O_3   0.341370 0.550390 0.508570 -0.273588
V1    V     V_3+5 0.063940 0.490650 0.498410 1.151943
O8    O     O_R   0.682570 0.593700 0.587340 -0.593890
C3    C     C_R   0.853430 0.616999 0.614325 0.925546
O9    O     O_R   0.676370 0.569350 0.440400 -0.601205
C4    C     C_R   0.845512 0.584374 0.418926 0.935053
V2    V     V_3+5 0.564750 0.509350 0.501590 1.153871
O10   O     O_3   0.837190 0.449610 0.491430 -0.271572
C5    C     C_R   0.022903 0.666311 0.272032 0.200111
C6    C     C_R   0.008295 0.621197 0.319945 -0.190188
H1    H     H_    0.109522 0.574257 0.317142 0.143461
C7    C     C_R   0.858186 0.633303 0.370001 -0.167037
C8    C     C_R   0.721730 0.691890 0.372753 -0.174269
H2    H     H_    0.604720 0.702508 0.410945 0.133782
C9    C     C_R   0.737533 0.739023 0.327720 -0.152307
H3    H     H_    0.632634 0.785422 0.333120 0.120053
C10   C     C_R   0.887329 0.727658 0.277192 0.002958
C11   C     C_R   0.729585 0.800293 0.200297 -0.163964
H4    H     H_    0.589738 0.778188 0.210549 0.118422
C12   C     C_R   0.738864 0.847865 0.155378 -0.066250
H5    H     H_    0.605194 0.862378 0.133859 0.147120
C13   C     C_R   0.917900 0.873917 0.136546 -0.093009
C14   C     C_R   0.086410 0.856129 0.168429 -0.152757
H6    H     H_    0.226324 0.877284 0.157164 0.122590
C15   C     C_R   0.076396 0.811258 0.215792 -0.162465
H7    H     H_    0.208638 0.800492 0.240674 0.121264
C16   C     C_R   0.898455 0.780176 0.230368 0.106554
H8    H     H_    0.576355 0.639322 0.917282 0.165963
C17   C     C_R   0.020764 0.898569 0.746191 0.319303
C18   C     C_R   0.126228 0.903152 0.686823 -0.161614
C19   C     C_R   0.152998 0.835310 0.627880 -0.177549
C20   C     C_R   0.067085 0.763127 0.626121 -0.175015
C21   C     C_R   0.969686 0.755357 0.686975 0.110507
C22   C     C_R   0.964378 0.822480 0.751085 -0.023945
C23   C     C_R   0.869151 0.683841 0.683505 -0.260207
C24   C     C_R   0.783711 0.675808 0.746278 0.118718
C25   C     C_R   0.809488 0.737367 0.814333 -0.043307
C26   C     C_R   0.898794 0.812403 0.816771 -0.286798
C27   C     C_R   0.679326 0.604847 0.742700 -0.174713
C28   C     C_R   0.598113 0.594423 0.803368 -0.202077
C29   C     C_R   0.629959 0.651331 0.869887 -0.141533
C30   C     C_R   0.741020 0.720484 0.876803 0.339295
H9    H     H_    0.174347 0.960560 0.683630 0.165630
H10   H     H_    0.228423 0.839914 0.581087 0.140845
H11   H     H_    0.077407 0.714258 0.576141 0.137966
H12   H     H_    0.659591 0.555584 0.693291 0.135274
H13   H     H_    0.517340 0.540060 0.799179 0.150351
H14   H     H_    0.645439 0.479731 0.202351 0.133183
C31   C     C_R   0.204568 0.220775 0.368554 -0.169625
C32   C     C_R   0.148766 0.143216 0.364292 -0.101588
C33   C     C_R   0.182651 0.079649 0.302058 -0.134297
C34   C     C_R   0.272471 0.093097 0.243503 -0.173986
C35   C     C_R   0.328133 0.171343 0.245442 0.133607
C36   C     C_R   0.293532 0.236747 0.309658 0.116988
C37   C     C_R   0.420806 0.184346 0.185365 -0.312086
C38   C     C_R   0.480820 0.263256 0.190492 0.118546
C39   C     C_R   0.446763 0.328653 0.254781 0.128705
C40   C     C_R   0.352550 0.315755 0.314668 -0.326958
C41   C     C_R   0.571440 0.279054 0.131809 -0.176479
C42   C     C_R   0.631354 0.356300 0.136620 -0.105801
C43   C     C_R   0.599309 0.419775 0.199084 -0.128109
C44   C     C_R   0.505794 0.406678 0.257120 -0.168918
H15   H     H_    0.177902 0.267651 0.418773 0.118539
H16   H     H_    0.080399 0.132303 0.409874 0.116796
H17   H     H_    0.140831 0.019384 0.299350 0.119887
H18   H     H_    0.300123 0.041130 0.197265 0.105148
H19   H     H_    0.597213 0.232223 0.081477 0.112005
H20   H     H_    0.701923 0.367030 0.091352 0.116493
H21   H     H_    0.478928 0.458725 0.303376 0.120783
C45   C     C_R   0.541434 0.325997 0.719491 -0.158309
H22   H     H_    0.677550 0.327191 0.747310 0.103893
C46   C     C_R   0.529764 0.367779 0.669891 -0.160772
H23   H     H_    0.657779 0.398994 0.660759 0.127342
C47   C     C_R   0.355311 0.370303 0.633500 -0.127044
C48   C     C_R   0.192469 0.329854 0.648220 -0.162521
H24   H     H_    0.055774 0.330471 0.621249 0.128502
C49   C     C_R   0.204733 0.287106 0.697302 -0.141334
H25   H     H_    0.077505 0.255026 0.705716 0.105974
C50   C     C_R   0.379654 0.284414 0.733657 0.120189
C51   C     C_R   0.237127 0.230223 0.827732 -0.145327
H26   H     H_    0.103900 0.260992 0.826276 0.099262
C52   C     C_R   0.249583 0.183422 0.873376 -0.054114
H27   H     H_    0.125354 0.179127 0.905328 0.136621
C53   C     C_R   0.418935 0.141787 0.877023 -0.151708
C54   C     C_R   0.579579 0.152626 0.837511 -0.105895
H28   H     H_    0.714675 0.124348 0.841111 0.204508
C55   C     C_R   0.567038 0.198717 0.791406 -0.163446
H29   H     H_    0.691910 0.202313 0.759589 0.115924
C56   C     C_R   0.394671 0.237420 0.784965 0.096335
O11   O     O_R   0.273230 0.084330 0.086440 -0.609077
O12   O     O_R   0.596660 0.069390 0.940470 -0.580951
O13   O     O_R   0.760270 0.915710 0.913690 -0.553395
C57   C     C_R   0.427772 0.087346 0.921450 0.971426
O14   O     O_R   0.603330 0.093680 0.087390 -0.609870
O15   O     O_R   0.766990 0.940160 0.061660 -0.588240
C58   C     C_R   0.434945 0.116677 0.115500 0.906821
O16   O     O_R   0.266510 0.059870 0.938470 -0.573653
O17   O     O_3   0.431050 0.949630 0.991510 -0.250226
V3    V     V_3+5 0.708490 0.009340 0.001580 1.227722
O18   O     O_R   0.096270 0.930570 0.059390 -0.591199
C59   C     C_R   0.928206 0.919691 0.084461 1.018808
O19   O     O_R   0.089600 0.906290 0.912460 -0.576091
C60   C     C_R   0.917907 0.881224 0.885962 1.093177
V4    V     V_3+5 0.207670 0.990600 0.998190 1.233187
O20   O     O_3   0.935250 0.050360 0.008480 -0.290018
N1    N     N_2   0.165774 0.648943 0.216752 -0.116750
H30   H     H_    0.115013 0.646174 0.166353 0.189268
C61   C     C_3   0.319456 0.593995 0.215999 -0.968048
H31   H     H_    0.426299 0.595560 0.174419 0.261368
H32   H     H_    0.260273 0.531983 0.202441 0.256545
H33   H     H_    0.395764 0.611985 0.269029 0.262544
N2    N     N_R   0.936200 0.970569 0.791451 0.208678
O21   O     O_R   0.749526 0.972478 0.798485 -0.439882
O22   O     O_R   0.032303 0.037786 0.806964 -0.458864
N3    N     N_R   0.798976 0.766611 0.948107 0.197321
O23   O     O_R   0.671154 0.780682 0.998787 -0.435940
O24   O     O_R   0.981095 0.768747 0.965451 -0.441993

loop_
_geom_bond_atom_site_label_1
_geom_bond_atom_site_label_2
_geom_bond_distance
_ccdc_geom_bond_type
C45   C50   1.407974 A    
C28   H13   1.083110 S    
C54   H28   1.079478 S    
C21   C22   1.422422 A    
C55   H29   1.082238 S    
C1    O6    1.291034 A    
N1    H30   1.031524 S    
C31   C32   1.393039 A    
N3    O23   1.299785 A    
O17   V4    1.705405 S    
C49   H25   1.082428 S    
C61   H31   1.110520 S    
C11   H4    1.082887 S    
C48   H24   1.083070 S    
C12   H5    1.082582 S    
C3    C23   1.483945 S    
O5    C3    1.289034 A    
C13   C14   1.406605 A    
C45   C46   1.398949 A    
N3    O24   1.301023 A    
O17   V3    2.154830 S    
V2    O10   2.154142 S    
O18   C59   1.301781 A    
C6    H1    1.081343 S    
C22   C26   1.430291 A    
C34   H18   1.081383 S    
C17   C22   1.425980 A    
C35   C37   1.424346 A    
O19   C60   1.306696 A    
V3    O20   1.705789 S    
O8    V2    2.008841 S    
C14   H6    1.082803 S    
C42   C43   1.388298 A    
C9    H3    1.082782 S    
C14   C15   1.402039 A    
O1    V2    1.990690 S    
O7    V1    2.154878 S    
C33   H17   1.082793 S    
C51   C56   1.408834 A    
C24   C27   1.418551 A    
C19   H10   1.082755 S    
C33   C34   1.392491 A    
C54   C55   1.399925 A    
O9    C4    1.299556 A    
C44   H21   1.081361 S    
C21   C23   1.414523 A    
C43   C44   1.392666 A    
V4    O20   2.154035 S    
N2    O22   1.297819 A    
C5    N1    1.433181 S    
C5    C6    1.416271 A    
C49   C50   1.410429 A    
C57   O16   1.298849 A    
O11   V4    2.013091 S    
C36   C40   1.419772 A    
C13   C59   1.493138 S    
C41   C42   1.392788 A    
C38   C41   1.415465 A    
C4    C7    1.484747 S    
C31   C36   1.415467 A    
C46   C47   1.407397 A    
C19   C20   1.388342 A    
O4    C2    1.301729 A    
C45   H22   1.082311 S    
C37   C58   1.502923 S    
C18   H9    1.083000 S    
C32   C33   1.388668 A    
C25   C26   1.439977 A    
C47   C48   1.406484 A    
O18   V4    1.990472 S    
C34   C35   1.416909 A    
O2    C1    1.306657 A    
C23   C24   1.414609 A    
C17   C18   1.400698 A    
C52   C53   1.406849 A    
C27   C28   1.381555 A    
C26   C60   1.503294 S    
C7    C8    1.399654 A    
C15   H7    1.082407 S    
O14   V3    2.001041 S    
C31   H15   1.080583 S    
O14   C58   1.306193 A    
O3    C4    1.294930 A    
C53   C57   1.491542 S    
C10   C16   1.501168 S    
C27   H12   1.078348 S    
C28   C29   1.378375 A    
C48   C49   1.403330 A    
O16   V4    1.985738 S    
C51   C52   1.402330 A    
C29   C30   1.401453 A    
O6    V2    2.007398 S    
O9    V2    1.990522 S    
C41   H19   1.080549 S    
O2    V1    2.001079 S    
C24   C25   1.430172 A    
C20   C21   1.416864 A    
O13   V3    2.003057 S    
O12   C57   1.299612 A    
O1    C2    1.296083 A    
C30   N3    1.422442 S    
C46   H23   1.083011 S    
O5    V1    2.003217 S    
N1    C61   1.447521 S    
O8    C3    1.298502 A    
C55   C56   1.409102 A    
C42   H20   1.082594 S    
O12   V3    1.996612 S    
C11   C12   1.399601 A    
C61   H33   1.110785 S    
O15   C59   1.298565 A    
C5    C10   1.423045 A    
C38   C39   1.430808 A    
C8    C9    1.397835 A    
O7    V2    1.705605 S    
O4    V1    1.996603 S    
C39   C40   1.425158 A    
O3    V1    1.993838 S    
V1    O10   1.705762 S    
C1    C40   1.503279 S    
C32   H16   1.082593 S    
C52   H27   1.083213 S    
C18   C19   1.384937 A    
C17   N2    1.430206 S    
C25   C30   1.431495 A    
O11   C58   1.291337 A    
C12   C13   1.408452 A    
C53   C54   1.404937 A    
C15   C16   1.409644 A    
C61   H32   1.110981 S    
C6    C7    1.404375 A    
C9    C10   1.409717 A    
C35   C36   1.430686 A    
O19   V4    2.008952 S    
C20   H11   1.079388 S    
C37   C38   1.419442 A    
C11   C16   1.406831 A    
C2    C47   1.490063 S    
C51   H26   1.082434 S    
O13   C60   1.292863 A    
H14   C43   1.082630 S    
N2    O21   1.300930 A    
O15   V3    1.993785 S    
C8    H2    1.083191 S    
H8    C29   1.083260 S    
C39   C44   1.417131 A    
C50   C56   1.499183 S    
