data_mof_unit_24851.cif
_audit_creation_date              2012-12-11T14:08:32-0500
_audit_creation_method            fapswitch 2.2
_symmetry_space_group_name_H-M    P1
_symmetry_Int_Tables_number       1
_space_group_crystal_system       triclinic
_cell_length_a                    28.182246
_cell_length_b                    7.203297
_cell_length_c                    17.190729
_cell_angle_alpha                 90.126535
_cell_angle_beta                  101.934664
_cell_angle_gamma                 90.006953
_cell_volume                      3414.36108006

loop_
_atom_site_label
_atom_site_type_symbol
_atom_type_description
_atom_site_fract_x
_atom_site_fract_y
_atom_site_fract_z
_atom_type_partial_charge
O1    O     O_R   0.000700 0.436510 0.857920 -0.534619
O2    O     O_R   0.999300 0.563490 0.142080 -0.534619
O3    O     O_R   0.999300 0.936510 0.642080 -0.534803
O4    O     O_R   0.000700 0.063490 0.357920 -0.534804
O5    O     O_R   0.930080 0.766380 0.721890 -0.541030
O6    O     O_R   0.069920 0.233620 0.278110 -0.541029
O7    O     O_R   0.069920 0.266380 0.778110 -0.541468
O8    O     O_R   0.930080 0.733620 0.221890 -0.541469
C1    C     C_R   0.910637 0.597659 0.709030 0.713053
C2    C     C_R   0.089363 0.402340 0.290971 0.713057
C3    C     C_R   0.089353 0.097772 0.790951 0.713355
C4    C     C_R   0.910647 0.902229 0.209051 0.713363
O9    O     O_R   0.996180 0.766230 0.862310 -0.542554
O10   O     O_R   0.003820 0.233770 0.137690 -0.542555
O11   O     O_R   0.003820 0.266230 0.637690 -0.542464
O12   O     O_R   0.996180 0.733770 0.362310 -0.542464
O13   O     O_R   0.065870 0.936460 0.783500 -0.538392
O14   O     O_R   0.934130 0.063540 0.216500 -0.538394
O15   O     O_R   0.934130 0.436460 0.716500 -0.538274
O16   O     O_R   0.065870 0.563540 0.283500 -0.538271
C5    C     C_R   0.998485 0.596534 0.894488 0.761151
C6    C     C_R   0.001515 0.403466 0.105512 0.761149
C7    C     C_R   0.001517 0.096354 0.605562 0.762387
C8    C     C_R   0.998483 0.903646 0.394438 0.762386
O17   O     O_3   0.022790 0.603020 0.723980 -0.379055
O18   O     O_3   0.977210 0.396980 0.276020 -0.379057
O19   O     O_3   0.977210 0.103020 0.776020 -0.379026
O20   O     O_3   0.022790 0.896980 0.223980 -0.379023
V1    V     V_3+5 0.995770 0.877900 0.754830 1.425294
V2    V     V_3+5 0.004230 0.122100 0.245170 1.425297
V3    V     V_3+5 0.004230 0.377900 0.745170 1.425014
V4    V     V_3+5 0.995770 0.622100 0.254830 1.425020
C9    C     C_2   0.001714 0.082517 0.519624 -0.323944
C10   C     C_2   0.998286 0.917483 0.480376 -0.323941
C11   C     C_2   0.998302 0.582619 0.980493 -0.323777
C12   C     C_2   0.001698 0.417381 0.019507 -0.323779
H1    H     H_    0.004525 0.211166 0.488038 0.153656
H2    H     H_    0.995475 0.788834 0.511961 0.153656
H3    H     H_    0.995524 0.711277 0.012313 0.153537
H4    H     H_    0.004476 0.288723 0.987687 0.153537
C13   C     C_R   0.683731 0.958361 0.025984 0.678178
C14   C     C_R   0.316260 0.041346 0.974026 0.678130
C15   C     C_R   0.315510 0.536617 0.463675 0.660183
C16   C     C_R   0.684497 0.463856 0.536188 0.660422
O21   O     O_2   0.713305 0.958012 0.973461 -0.483962
O22   O     O_2   0.286680 0.041367 0.026540 -0.484001
O23   O     O_2   0.285199 0.610131 0.506820 -0.480043
O24   O     O_2   0.714812 0.390890 0.492917 -0.480118
N1    N     N_R   0.703132 0.947497 0.105774 -0.549090
N2    N     N_R   0.296865 0.052551 0.894244 -0.549104
N3    N     N_R   0.296901 0.446071 0.393928 -0.552466
N4    N     N_R   0.703103 0.553808 0.606083 -0.552458
C17   C     C_R   0.673937 0.952983 0.160292 0.614225
C18   C     C_R   0.326065 0.047454 0.839729 0.614272
C19   C     C_R   0.326879 0.369382 0.349260 0.633324
C20   C     C_R   0.673125 0.629872 0.650903 0.633172
C21   C     C_R   0.781543 0.085746 0.169031 -0.089549
C22   C     C_R   0.218460 0.914282 0.830976 -0.089614
C23   C     C_R   0.218666 0.585201 0.330913 -0.095891
C24   C     C_R   0.781343 0.414720 0.669084 -0.095916
C25   C     C_R   0.831975 0.076171 0.193542 -0.180128
C26   C     C_R   0.168028 0.923848 0.806459 -0.180097
C27   C     C_R   0.168202 0.575826 0.306329 -0.176639
C28   C     C_R   0.831805 0.424128 0.693666 -0.176643
C29   C     C_R   0.830180 0.756633 0.148961 -0.216179
C30   C     C_R   0.169815 0.243364 0.851069 -0.216186
C31   C     C_R   0.169683 0.257577 0.351929 -0.217175
C32   C     C_R   0.830307 0.742412 0.648100 -0.217118
C33   C     C_R   0.779682 0.766979 0.123093 0.313227
C34   C     C_R   0.220312 0.233024 0.876943 0.313175
C35   C     C_R   0.220177 0.267862 0.377868 0.314183
C36   C     C_R   0.779813 0.732093 0.622165 0.314069
C37   C     C_R   0.755033 0.932760 0.132790 0.319167
C38   C     C_R   0.244964 0.067264 0.867230 0.319248
C39   C     C_R   0.245003 0.432214 0.367100 0.318107
C40   C     C_R   0.754999 0.567701 0.632911 0.318287
C41   C     C_R   0.602390 0.975164 0.053339 -0.043586
C42   C     C_R   0.397607 0.024929 0.946676 -0.043584
C43   C     C_R   0.397638 0.473392 0.446344 -0.047593
C44   C     C_R   0.602368 0.526456 0.553666 -0.047537
C45   C     C_R   0.633134 0.970250 0.998371 -0.043090
C46   C     C_R   0.366857 0.029456 0.001639 -0.043090
C47   C     C_R   0.366072 0.552470 0.490943 -0.046428
C48   C     C_R   0.633936 0.448021 0.508908 -0.046379
C49   C     C_R   0.612852 0.977094 0.917130 -0.105649
C50   C     C_R   0.387132 0.022173 0.082875 -0.105613
C51   C     C_R   0.385516 0.645291 0.561759 -0.099658
C52   C     C_R   0.614493 0.355950 0.437902 -0.099633
C53   C     C_R   0.623196 0.967700 0.135152 -0.033610
C54   C     C_R   0.376806 0.032773 0.864867 -0.033611
C55   C     C_R   0.377667 0.380877 0.374767 -0.037112
C56   C     C_R   0.622338 0.618336 0.625403 -0.037060
C57   C     C_R   0.856966 0.911510 0.183778 -0.099647
C58   C     C_R   0.143034 0.088495 0.816231 -0.099639
C59   C     C_R   0.143059 0.411706 0.316344 -0.099730
C60   C     C_R   0.856941 0.588278 0.683663 -0.099710
H5    H     H_    0.848460 0.628106 0.140633 0.159084
H6    H     H_    0.151532 0.371876 0.859407 0.159084
H7    H     H_    0.151243 0.130148 0.361231 0.159224
H8    H     H_    0.848740 0.869870 0.638815 0.159212
H9    H     H_    0.635623 0.973140 0.873497 0.180329
H10   H     H_    0.364354 0.025692 0.126504 0.180292
H11   H     H_    0.362096 0.707958 0.597144 0.184078
H12   H     H_    0.637914 0.294020 0.402334 0.183983
C61   C     C_R   0.479380 0.006413 0.916887 0.040052
C62   C     C_R   0.520619 0.993870 0.083128 0.040057
C63   C     C_R   0.519749 0.593893 0.572720 0.037718
C64   C     C_R   0.480257 0.405652 0.427362 0.037686
C65   C     C_R   0.469266 0.005761 0.056379 0.037727
C66   C     C_R   0.530728 0.994171 0.943633 0.037746
C67   C     C_R   0.531588 0.419056 0.454254 0.033437
C68   C     C_R   0.468420 0.581073 0.545682 0.033426
C69   C     C_R   0.448979 0.012313 0.973432 0.068731
C70   C     C_R   0.551018 0.987791 0.026582 0.068719
C71   C     C_R   0.551007 0.513069 0.526764 0.066816
C72   C     C_R   0.448999 0.486770 0.473245 0.066773
C73   C     C_R   0.457034 0.012948 0.835083 -0.174783
C74   C     C_R   0.542975 0.987925 0.164937 -0.174686
C75   C     C_R   0.541245 0.684938 0.644611 -0.172198
C76   C     C_R   0.458759 0.313620 0.355718 -0.172047
C77   C     C_R   0.406967 0.026212 0.809894 -0.125265
C78   C     C_R   0.593043 0.974720 0.190129 -0.125294
C79   C     C_R   0.591328 0.696559 0.670173 -0.122772
C80   C     C_R   0.408676 0.301895 0.330184 -0.122736
O25   O     O_2   0.306125 0.057600 0.761420 -0.501146
O26   O     O_2   0.693881 0.943181 0.238609 -0.501143
O27   O     O_2   0.692370 0.716323 0.719941 -0.498762
O28   O     O_2   0.307634 0.282357 0.280361 -0.498785
C81   C     C_R   0.562881 0.988346 0.890214 -0.174479
C82   C     C_R   0.437105 0.010996 0.109792 -0.174440
C83   C     C_R   0.435447 0.659686 0.588592 -0.174374
C84   C     C_R   0.564562 0.341436 0.411095 -0.174415
H13   H     H_    0.148667 0.802546 0.779212 0.152348
H14   H     H_    0.851338 0.197478 0.220777 0.152359
H15   H     H_    0.851081 0.303168 0.721120 0.151830
H16   H     H_    0.148932 0.696785 0.278862 0.151833
H17   H     H_    0.237051 0.787088 0.822077 0.179860
H18   H     H_    0.762956 0.212951 0.177925 0.179938
H19   H     H_    0.762606 0.287897 0.678028 0.176225
H20   H     H_    0.237409 0.712005 0.321960 0.176251
H21   H     H_    0.391962 0.031138 0.746584 0.168675
H22   H     H_    0.608054 0.970229 0.253443 0.168681
H23   H     H_    0.605665 0.767901 0.725624 0.161484
H24   H     H_    0.394336 0.229825 0.274915 0.161458
H25   H     H_    0.477036 0.008273 0.788184 0.113886
H26   H     H_    0.522981 0.993193 0.211839 0.113748
H27   H     H_    0.520545 0.749317 0.683300 0.113232
H28   H     H_    0.479457 0.248241 0.317276 0.113092
H29   H     H_    0.550876 0.992396 0.826645 0.114860
H30   H     H_    0.449102 0.006364 0.173355 0.114897
H31   H     H_    0.446767 0.734191 0.643599 0.118577
H32   H     H_    0.553244 0.267926 0.355837 0.118605
Br1   Br    Br    0.745328 0.552070 0.075344 -0.523648
Br2   Br    Br    0.254663 0.447898 0.924735 -0.523630
Br3   Br    Br    0.254168 0.057907 0.430400 -0.492095
Br4   Br    Br    0.745799 0.942073 0.569693 -0.492446

loop_
_geom_bond_atom_site_label_1
_geom_bond_atom_site_label_2
_ccdc_geom_bond_type
O17   V3    S    
C47   C51   A    
C61   C66   A    
N1    C17   A    
O1    C5    A    
C30   H6    S    
C36   Br4   S    
O19   V1    S    
O13   V1    S    
C63   C68   A    
C64   C76   A    
O3    C7    A    
C11   C12   D    
C14   C46   A    
C44   C48   A    
O15   V3    S    
O4    V2    S    
C42   C54   A    
O7    C3    A    
C41   C53   A    
C32   C60   A    
C62   C70   A    
C23   H20   S    
C26   H13   S    
C73   H25   S    
N3    C39   S    
C18   C54   A    
N2    C38   S    
C74   C78   A    
O4    C8    A    
C25   C57   A    
C31   C35   A    
C53   C78   A    
C75   H27   S    
C27   C59   A    
O1    V3    S    
C15   C47   A    
C66   C81   A    
O2    V4    S    
C14   O22   S    
C20   O27   S    
C21   C37   A    
O3    V1    S    
C73   C77   A    
C34   C38   A    
C19   C55   A    
C49   C81   A    
C83   H31   S    
C1    O15   A    
C82   H30   S    
C2    O16   A    
C7    C9    S    
O2    C6    A    
C33   C37   A    
O14   V2    S    
C41   C45   A    
C66   C70   A    
C43   C55   A    
C65   C69   A    
C30   C58   A    
C16   N4    A    
O11   C7    A    
C28   H15   S    
C13   C45   A    
O12   C8    A    
C10   H2    S    
C43   C72   A    
C62   C74   A    
C31   C59   A    
C61   C73   A    
O10   V2    S    
C63   C75   A    
C52   H12   S    
C25   H14   S    
O5    V1    S    
C18   O25   S    
O7    V3    S    
O8    V4    S    
C77   H21   S    
C12   H4    S    
C28   C60   A    
C56   C79   A    
O18   V4    S    
C50   C82   A    
N4    C40   S    
C46   C50   A    
C24   C40   A    
C8    C10   S    
O9    V1    S    
C32   C36   A    
C52   C84   A    
C44   C56   A    
C11   H3    S    
C32   H8    S    
O5    C1    A    
C42   C46   A    
C44   C71   A    
C74   H26   S    
O8    C4    A    
C35   Br3   S    
C9    C10   D    
O9    C5    A    
C36   C40   A    
N2    C18   A    
O11   V3    S    
C1    C60   S    
C63   C71   A    
C51   C83   A    
C22   C26   A    
C14   N2    A    
C51   H11   S    
C22   H17   S    
O6    V2    S    
C76   H28   S    
C75   C79   A    
C55   C80   A    
C26   C58   A    
C17   C53   A    
O10   C6    A    
C84   H32   S    
C54   C77   A    
N1    C37   S    
C4    C57   S    
C42   C69   A    
C78   H22   S    
C79   H23   S    
C41   C70   A    
C50   H10   S    
C23   C39   A    
C68   C72   A    
C49   H9    S    
C22   C38   A    
C9    H1    S    
O16   V4    S    
C61   C69   A    
C3    O13   A    
C34   Br2   S    
C48   C52   A    
C3    C58   S    
C16   C48   A    
O6    C2    A    
C21   C25   A    
C5    C11   S    
C31   H7    S    
O12   V4    S    
C13   N1    A    
C6    C12   S    
C23   C27   A    
C64   C67   A    
C24   C28   A    
C27   H16   S    
C64   C72   A    
O20   V2    S    
C29   H5    S    
C35   C39   A    
C15   N3    A    
C30   C34   A    
N4    C20   A    
C2    C59   S    
C29   C33   A    
C29   C57   A    
C21   H18   S    
N3    C19   A    
C68   C83   A    
C33   Br1   S    
C17   O26   S    
C24   H19   S    
C43   C47   A    
C76   C80   A    
C67   C84   A    
C20   C56   A    
C19   O28   S    
C4    O14   A    
C65   C82   A    
C13   O21   S    
C80   H24   S    
C67   C71   A    
C81   H29   S    
C15   O23   S    
C45   C49   A    
C16   O24   S    
C62   C65   A    
