data_mof_unit_37066.cif
_audit_creation_date              2012-12-11T15:49:03-0500
_audit_creation_method            fapswitch 2.2
_symmetry_space_group_name_H-M    P1
_symmetry_Int_Tables_number       1
_space_group_crystal_system       triclinic
_cell_length_a                    21.627109
_cell_length_b                    7.18375
_cell_length_c                    14.886789
_cell_angle_alpha                 90.001892
_cell_angle_beta                  106.353584
_cell_angle_gamma                 89.999733
_cell_volume                      2219.29419095

loop_
_atom_site_label
_atom_site_type_symbol
_atom_type_description
_atom_site_fract_x
_atom_site_fract_y
_atom_site_fract_z
_atom_type_partial_charge
O1    O     O_R   0.335860 0.638190 0.002110 -0.542160
O2    O     O_R   0.664140 0.361810 0.997890 -0.542167
O3    O     O_R   0.164140 0.138190 0.997890 -0.542158
O4    O     O_R   0.835860 0.861810 0.002110 -0.542167
O5    O     O_R   0.217530 0.305920 0.861960 -0.534898
O6    O     O_R   0.782470 0.694080 0.138040 -0.534874
O7    O     O_R   0.282470 0.805920 0.138040 -0.534901
O8    O     O_R   0.717530 0.194080 0.861960 -0.534873
C1    C     C_R   0.205799 0.476680 0.825870 0.705290
C2    C     C_R   0.794201 0.523317 0.174129 0.705304
C3    C     C_R   0.294204 0.976686 0.174127 0.705296
C4    C     C_R   0.705802 0.023310 0.825870 0.705292
O9    O     O_R   0.338690 0.308320 0.993240 -0.545479
O10   O     O_R   0.661310 0.691680 0.006760 -0.545472
O11   O     O_R   0.161310 0.808320 0.006760 -0.545479
O12   O     O_R   0.838690 0.191680 0.993240 -0.545473
O13   O     O_R   0.286170 0.140430 0.130100 -0.533172
O14   O     O_R   0.713830 0.859570 0.869900 -0.533179
O15   O     O_R   0.213830 0.640430 0.869900 -0.533168
O16   O     O_R   0.786170 0.359570 0.130100 -0.533181
C5    C     C_R   0.364972 0.477224 0.997800 0.673239
C6    C     C_R   0.635028 0.522776 0.002200 0.673234
C7    C     C_R   0.135028 0.977225 0.002200 0.673241
C8    C     C_R   0.864972 0.022775 0.997800 0.673232
O17   O     O_3   0.232630 0.472410 0.044750 -0.375450
O18   O     O_3   0.767370 0.527590 0.955250 -0.375453
O19   O     O_3   0.267370 0.972410 0.955250 -0.375451
O20   O     O_3   0.732630 0.027590 0.044750 -0.375451
V1    V     V_3+5 0.253220 0.196620 0.991700 1.439065
V2    V     V_3+5 0.746780 0.803380 0.008300 1.439081
V3    V     V_3+5 0.246780 0.696620 0.008300 1.439053
V4    V     V_3+5 0.753220 0.303380 0.991700 1.439074
C9    C     C_R   0.029964 0.826404 0.003966 -0.155065
C10   C     C_R   0.970036 0.173596 0.996034 -0.155085
C11   C     C_R   0.470030 0.326407 0.995998 -0.155068
C12   C     C_R   0.529970 0.673593 0.004002 -0.155100
H1    H     H_    0.051825 0.690094 0.006852 0.118297
H2    H     H_    0.948175 0.309906 0.993148 0.118300
H3    H     H_    0.448164 0.190100 0.993082 0.118304
H4    H     H_    0.551836 0.809901 0.006918 0.118309
C13   C     C_R   0.964994 0.837786 0.002362 -0.146056
C14   C     C_R   0.035005 0.162213 0.997638 -0.146072
C15   C     C_R   0.534999 0.337789 0.997601 -0.146044
C16   C     C_R   0.465001 0.662211 0.002399 -0.146070
H5    H     H_    0.939135 0.709477 0.004357 0.120679
H6    H     H_    0.060865 0.290522 0.995643 0.120684
H7    H     H_    0.560854 0.209483 0.995576 0.120678
H8    H     H_    0.439146 0.790517 0.004424 0.120684
C17   C     C_R   0.934014 0.011573 0.998351 -0.036478
C18   C     C_R   0.065986 0.988427 0.001649 -0.036479
C19   C     C_R   0.565986 0.511573 0.001649 -0.036484
C20   C     C_R   0.434014 0.488427 0.998352 -0.036482
C21   C     C_R   0.677958 0.016291 0.724460 -0.101204
C22   C     C_R   0.322052 0.983641 0.275533 -0.101162
C23   C     C_R   0.822050 0.516319 0.275535 -0.101190
C24   C     C_R   0.177956 0.483621 0.724461 -0.101183
C25   C     C_R   0.690517 0.032303 0.568512 0.471024
C26   C     C_R   0.309512 0.966523 0.431476 0.470994
C27   C     C_R   0.809497 0.532271 0.431487 0.471024
C28   C     C_R   0.190503 0.466680 0.568521 0.471006
C29   C     C_R   0.717352 0.031487 0.665274 -0.170494
C30   C     C_R   0.282671 0.967738 0.334717 -0.170496
C31   C     C_R   0.782660 0.531491 0.334727 -0.170515
C32   C     C_R   0.217339 0.467793 0.665282 -0.170477
C33   C     C_R   0.611286 0.002664 0.687534 -0.205008
C34   C     C_R   0.388724 0.997526 0.312455 -0.205081
C35   C     C_R   0.888727 0.502741 0.312453 -0.205027
C36   C     C_R   0.111288 0.497449 0.687530 -0.205060
C37   C     C_R   0.581885 0.006023 0.589704 0.037032
C38   C     C_R   0.418137 0.993421 0.410277 0.037060
C39   C     C_R   0.918130 0.506138 0.410281 0.037033
C40   C     C_R   0.081877 0.493455 0.589708 0.037046
C41   C     C_R   0.622837 0.020420 0.529975 0.042281
C42   C     C_R   0.377193 0.978523 0.470005 0.042296
C43   C     C_R   0.877177 0.520391 0.470017 0.042285
C44   C     C_R   0.122823 0.478753 0.529982 0.042286
C45   C     C_R   0.513360 0.997039 0.549676 0.089402
C46   C     C_R   0.486667 0.002164 0.450298 0.089375
C47   C     C_R   0.986659 0.497266 0.450304 0.089399
C48   C     C_R   0.013349 0.502161 0.549684 0.089391
C49   C     C_R   0.529407 0.015027 0.394170 -0.198540
C50   C     C_R   0.470621 0.983636 0.605800 -0.198523
C51   C     C_R   0.970604 0.514774 0.605818 -0.198541
C52   C     C_R   0.029393 0.484254 0.394179 -0.198531
C53   C     C_R   0.595571 0.023815 0.433105 -0.110428
C54   C     C_R   0.404463 0.974670 0.566870 -0.110463
C55   C     C_R   0.904442 0.523598 0.566886 -0.110413
C56   C     C_R   0.095555 0.475235 0.433117 -0.110447
H9    H     H_    0.625255 0.033994 0.385671 0.184860
H10   H     H_    0.374794 0.963979 0.614298 0.184874
H11   H     H_    0.874757 0.533603 0.614326 0.184865
H12   H     H_    0.125235 0.464839 0.385687 0.184863
H13   H     H_    0.415884 0.008536 0.262205 0.106656
H14   H     H_    0.584106 0.992516 0.737802 0.106594
H15   H     H_    0.084125 0.508379 0.737783 0.106647
H16   H     H_    0.915906 0.492516 0.262186 0.106598
H17   H     H_    0.230925 0.955877 0.305476 0.144174
H18   H     H_    0.769106 0.043116 0.694515 0.144160
H19   H     H_    0.269086 0.455927 0.694528 0.144174
H20   H     H_    0.730907 0.543102 0.305494 0.144164
H21   H     H_    0.513643 0.018811 0.318951 0.123192
H22   H     H_    0.486394 0.979231 0.681013 0.123206
H23   H     H_    0.986363 0.518331 0.681040 0.123190
H24   H     H_    0.013626 0.480269 0.318963 0.123204
Cl1   Cl    Cl    0.744061 0.050810 0.498681 -0.600716
Cl2   Cl    Cl    0.255990 0.947277 0.501301 -0.600706
Cl3   Cl    Cl    0.755958 0.550747 0.501328 -0.600714
Cl4   Cl    Cl    0.244030 0.447416 0.498703 -0.600683

loop_
_geom_bond_atom_site_label_1
_geom_bond_atom_site_label_2
_ccdc_geom_bond_type
O17   V3    S    
C51   C55   A    
C26   C30   A    
C55   H11   S    
O19   V1    S    
O13   V1    S    
C37   C45   A    
C29   H18   S    
C10   C14   A    
C40   C44   A    
O15   V3    S    
C39   C47   A    
O4    V2    S    
C49   H21   S    
C45   C46   A    
O1    C5    A    
C51   H23   S    
O9    V1    S    
C47   C52   A    
O4    C8    A    
C38   C46   A    
O1    V3    S    
O2    V4    S    
C14   H6    S    
C25   C41   A    
O3    V1    S    
O3    C7    A    
C38   C42   A    
C21   C29   A    
C1    O15   A    
C32   H19   S    
C56   H12   S    
C2    O16   A    
C23   C31   A    
O2    C6    A    
C24   C32   A    
C37   C41   A    
O14   V2    S    
C21   C33   A    
C44   C56   A    
C4    C21   S    
C28   Cl4   S    
C36   C40   A    
C16   C20   A    
O11   C7    A    
O12   C8    A    
O10   V2    S    
C48   C51   A    
C13   C17   A    
O5    V1    S    
C36   H15   S    
O7    V3    S    
C25   Cl1   S    
O8    V4    S    
C12   H4    S    
C54   H10   S    
C53   H9    S    
O18   V4    S    
C7    C18   S    
C22   C30   A    
C9    C18   A    
C50   C54   A    
C28   C44   A    
C27   Cl3   S    
C26   Cl2   S    
O7    C3    A    
O5    C1    A    
C31   H20   S    
C30   H17   S    
O8    C4    A    
C50   H22   S    
O9    C5    A    
C1    C24   S    
C42   C54   A    
C25   C29   A    
C2    C23   S    
C3    C22   S    
C41   C53   A    
C12   C19   A    
C14   C18   A    
C34   H13   S    
C43   C55   A    
C33   H14   S    
O6    V2    S    
C35   H16   S    
C52   H24   S    
C12   C16   A    
C27   C43   A    
C11   C15   A    
C26   C42   A    
O16   V4    S    
C8    C17   S    
C3    O13   A    
C10   C17   A    
C10   H2    S    
C52   C56   A    
O6    C2    A    
C23   C35   A    
O11   V3    S    
C22   C34   A    
O12   V4    S    
C27   C31   A    
C28   C32   A    
C9    C13   A    
O10   C6    A    
O20   V2    S    
C40   C48   A    
C24   C36   A    
C39   C43   A    
C46   C49   A    
C15   C19   A    
C34   C38   A    
C45   C50   A    
C33   C37   A    
C11   H3    S    
C35   C39   A    
C9    H1    S    
C47   C48   A    
C4    O14   A    
C11   C20   A    
C13   H5    S    
C15   H7    S    
C5    C20   S    
C49   C53   A    
C16   H8    S    
C6    C19   S    
