data_mof_unit_10146.cif
_audit_creation_date              2012-12-11T15:49:13-0500
_audit_creation_method            fapswitch 2.2
_symmetry_space_group_name_H-M    P1
_symmetry_Int_Tables_number       1
_space_group_crystal_system       triclinic
_cell_length_a                    21.628126
_cell_length_b                    7.179445
_cell_length_c                    14.869661
_cell_angle_alpha                 90.006727
_cell_angle_beta                  106.062604
_cell_angle_gamma                 89.977247
_cell_volume                      2218.78940911

loop_
_atom_site_label
_atom_site_type_symbol
_atom_type_description
_atom_site_fract_x
_atom_site_fract_y
_atom_site_fract_z
_atom_type_partial_charge
O1    O     O_R   0.335860 0.638190 0.002110 -0.545990
O2    O     O_R   0.664140 0.361810 0.997890 -0.545989
O3    O     O_R   0.164140 0.138190 0.997890 -0.547006
O4    O     O_R   0.835860 0.861810 0.002110 -0.536187
O5    O     O_R   0.217530 0.305920 0.861960 -0.542007
O6    O     O_R   0.782470 0.694080 0.138040 -0.516363
O7    O     O_R   0.282470 0.805920 0.138040 -0.543521
O8    O     O_R   0.717530 0.194080 0.861960 -0.538835
C1    C     C_R   0.204935 0.476433 0.825843 0.747374
C2    C     C_R   0.794901 0.523131 0.174101 0.752484
C3    C     C_R   0.294540 0.976710 0.173929 0.757539
C4    C     C_R   0.705475 0.023347 0.826065 0.757580
O9    O     O_R   0.338690 0.308320 0.993240 -0.534102
O10   O     O_R   0.661310 0.691680 0.006760 -0.534140
O11   O     O_R   0.161310 0.808320 0.006760 -0.536780
O12   O     O_R   0.838690 0.191680 0.993240 -0.546623
O13   O     O_R   0.286170 0.140430 0.130100 -0.515001
O14   O     O_R   0.713830 0.859570 0.869900 -0.518566
O15   O     O_R   0.213830 0.640430 0.869900 -0.514040
O16   O     O_R   0.786170 0.359570 0.130100 -0.542718
C5    C     C_R   0.364993 0.477186 0.997847 0.705401
C6    C     C_R   0.635008 0.522813 0.002155 0.705398
C7    C     C_R   0.135009 0.977224 0.002148 0.705480
C8    C     C_R   0.864990 0.022764 0.997845 0.698446
O17   O     O_3   0.232630 0.472410 0.044750 -0.378580
O18   O     O_3   0.767370 0.527590 0.955250 -0.378492
O19   O     O_3   0.267370 0.972410 0.955250 -0.375688
O20   O     O_3   0.732630 0.027590 0.044750 -0.376878
V1    V     V_3+5 0.253220 0.196620 0.991700 1.551716
V2    V     V_3+5 0.746780 0.803380 0.008300 1.572678
V3    V     V_3+5 0.246780 0.696620 0.008300 1.545263
V4    V     V_3+5 0.753220 0.303380 0.991700 1.521303
C9    C     C_R   0.030089 0.826335 0.004590 -0.082665
C10   C     C_R   0.969903 0.173614 0.995362 -0.110763
C11   C     C_R   0.470060 0.326281 0.995959 -0.072544
C12   C     C_R   0.529941 0.673712 0.004048 -0.072131
H1    H     H_    0.052055 0.689996 0.007985 0.134814
H2    H     H_    0.947932 0.309954 0.991919 0.134391
H3    H     H_    0.448218 0.189899 0.993023 0.142481
H4    H     H_    0.551783 0.810095 0.006981 0.142033
C13   C     C_R   0.965149 0.837715 0.003112 -0.075776
C14   C     C_R   0.034850 0.162239 0.996884 -0.107121
C15   C     C_R   0.535001 0.337710 0.997460 -0.112008
C16   C     C_R   0.465001 0.662284 0.002551 -0.110965
H5    H     H_    0.939420 0.709389 0.005762 0.140107
H6    H     H_    0.060585 0.290576 0.994280 0.136550
H7    H     H_    0.560857 0.209340 0.995307 0.141402
H8    H     H_    0.439146 0.790654 0.004707 0.141385
C17   C     C_R   0.934034 0.011542 0.998420 -0.043166
C18   C     C_R   0.065963 0.988414 0.001561 -0.041291
C19   C     C_R   0.565964 0.511616 0.001579 -0.048173
C20   C     C_R   0.434038 0.488378 0.998429 -0.048050
C21   C     C_R   0.676154 0.016159 0.725156 -0.100633
C22   C     C_R   0.323987 0.984387 0.274795 -0.096219
C23   C     C_R   0.823432 0.511338 0.275489 -0.092211
C24   C     C_R   0.176624 0.480119 0.724121 -0.100185
C25   C     C_R   0.688848 0.020559 0.569239 -0.063065
C26   C     C_R   0.311396 0.983867 0.430756 -0.061973
C27   C     C_R   0.811149 0.432943 0.427419 -0.059867
C28   C     C_R   0.187815 0.409198 0.570669 -0.062756
C29   C     C_R   0.714975 0.039515 0.665214 -0.198327
C30   C     C_R   0.285190 0.963084 0.334906 -0.194849
C31   C     C_R   0.784814 0.455541 0.331663 -0.191180
C32   C     C_R   0.214307 0.422951 0.666793 -0.196726
C33   C     C_R   0.609641 0.986308 0.689027 0.317941
C34   C     C_R   0.390505 0.014692 0.310691 0.316499
C35   C     C_R   0.889768 0.540231 0.314899 0.318543
C36   C     C_R   0.110895 0.519771 0.685147 0.321680
C37   C     C_R   0.580808 0.000666 0.590743 -0.007817
C38   C     C_R   0.419441 0.001830 0.409014 -0.009052
C39   C     C_R   0.918869 0.490769 0.410194 -0.008211
C40   C     C_R   0.081105 0.478418 0.588976 -0.006830
C41   C     C_R   0.622224 0.995579 0.531175 -0.011485
C42   C     C_R   0.378068 0.008179 0.468657 -0.010679
C43   C     C_R   0.877875 0.450310 0.467942 -0.007277
C44   C     C_R   0.121468 0.436127 0.530509 -0.011347
C45   C     C_R   0.512934 0.014384 0.548958 -0.000379
C46   C     C_R   0.487357 0.988452 0.450756 0.000639
C47   C     C_R   0.986886 0.476818 0.450081 0.008056
C48   C     C_R   0.012944 0.473296 0.548927 0.007316
C49   C     C_R   0.530179 0.939516 0.398558 -0.107794
C50   C     C_R   0.470206 0.063783 0.601192 -0.105289
C51   C     C_R   0.970706 0.437189 0.603849 -0.103714
C52   C     C_R   0.028577 0.438911 0.394520 -0.102688
C53   C     C_R   0.596352 0.956927 0.435579 0.378840
C54   C     C_R   0.404025 0.047216 0.564195 0.382127
C55   C     C_R   0.904577 0.422623 0.564563 0.377706
C56   C     C_R   0.094426 0.415554 0.433490 0.374933
H9    H     H_    0.233855 0.941071 0.307115 0.163817
H10   H     H_    0.766267 0.061806 0.693210 0.179403
H11   H     H_    0.264877 0.391831 0.696642 0.180055
H12   H     H_    0.733724 0.432969 0.301391 0.158997
H13   H     H_    0.721211 0.026603 0.525334 0.196777
H14   H     H_    0.279041 0.979667 0.474707 0.195540
H15   H     H_    0.778876 0.396416 0.468710 0.192059
H16   H     H_    0.219538 0.371005 0.528774 0.203720
H17   H     H_    0.513156 0.884543 0.328616 0.207459
H18   H     H_    0.487355 0.118480 0.671191 0.207372
H19   H     H_    0.988822 0.401421 0.676898 0.204540
H20   H     H_    0.009956 0.408440 0.320916 0.204510
Cl1   Cl    Cl    0.645159 0.915317 0.360122 -0.648211
Cl2   Cl    Cl    0.355362 0.089551 0.639749 -0.667256
Cl3   Cl    Cl    0.857193 0.367584 0.640407 -0.667361
Cl4   Cl    Cl    0.140979 0.357944 0.356801 -0.654669
Cl5   Cl    Cl    0.431768 0.107623 0.232642 -0.677192
Cl6   Cl    Cl    0.568164 0.892512 0.766600 -0.675760
Cl7   Cl    Cl    0.070971 0.647052 0.754925 -0.668257
Cl8   Cl    Cl    0.931542 0.666826 0.247381 -0.670937

loop_
_geom_bond_atom_site_label_1
_geom_bond_atom_site_label_2
_ccdc_geom_bond_type
O17   V3    S    
C51   C55   A    
C26   C30   A    
O19   V1    S    
O13   V1    S    
C37   C45   A    
C10   C14   A    
C40   C44   A    
O15   V3    S    
C39   C47   A    
C53   Cl1   S    
C45   C46   A    
O1    C5    A    
O9    V1    S    
C47   C52   A    
O4    C8    A    
C35   Cl8   S    
C38   C46   A    
C30   H9    S    
O1    V3    S    
O2    V4    S    
C14   H6    S    
C25   C41   A    
O3    V1    S    
C38   C42   A    
O3    C7    A    
C1    O15   A    
C2    O16   A    
C23   C31   A    
C31   H12   S    
O2    C6    A    
C24   C32   A    
C37   C41   A    
O14   V2    S    
C36   Cl7   S    
C21   C33   A    
C44   C56   A    
C4    C21   S    
C36   C40   A    
C16   C20   A    
O11   C7    A    
O12   C8    A    
C25   H13   S    
C50   H18   S    
C27   H15   S    
O10   V2    S    
C48   C51   A    
C13   C17   A    
C56   Cl4   S    
O5    V1    S    
O7    V3    S    
C52   H20   S    
C12   H4    S    
O18   V4    S    
C7    C18   S    
C22   C30   A    
C9    C18   A    
C50   C54   A    
C28   C44   A    
C9    H1    S    
O8    V4    S    
O7    C3    A    
O5    C1    A    
O8    C4    A    
O9    C5    A    
C1    C24   S    
C42   C54   A    
C25   C29   A    
C2    C23   S    
C3    C22   S    
C41   C53   A    
C12   C19   A    
C14   C18   A    
C55   Cl3   S    
C28   H16   S    
C43   C55   A    
O6    V2    S    
C12   C16   A    
C34   Cl5   S    
C21   C29   A    
C54   Cl2   S    
C27   C43   A    
C33   Cl6   S    
C11   C15   A    
C29   H10   S    
C26   C42   A    
O16   V4    S    
C8    C17   S    
C3    O13   A    
C10   C17   A    
C10   H2    S    
C52   C56   A    
O6    C2    A    
C23   C35   A    
O11   V3    S    
C22   C34   A    
O12   V4    S    
C27   C31   A    
C28   C32   A    
C9    C13   A    
O10   C6    A    
O20   V2    S    
C26   H14   S    
C40   C48   A    
C24   C36   A    
C39   C43   A    
C46   C49   A    
C15   C19   A    
C34   C38   A    
C49   H17   S    
C45   C50   A    
C33   C37   A    
C11   H3    S    
C35   C39   A    
O4    V2    S    
C47   C48   A    
C4    O14   A    
C11   C20   A    
C13   H5    S    
C51   H19   S    
C32   H11   S    
C15   H7    S    
C5    C20   S    
C49   C53   A    
C16   H8    S    
C6    C19   S    
