data_mof_unit_13699.cif
_audit_creation_date              2012-12-10T20:25:38-0500
_audit_creation_method            fapswitch 2.2
_symmetry_space_group_name_H-M    P1
_symmetry_Int_Tables_number       1
_space_group_crystal_system       triclinic
_cell_length_a                    8.586333
_cell_length_b                    10.655352
_cell_length_c                    9.888805
_cell_angle_alpha                 90.021589
_cell_angle_beta                  98.500677
_cell_angle_gamma                 90.069702
_cell_volume                      894.790659991

loop_
_atom_site_label
_atom_site_type_symbol
_atom_type_description
_atom_site_fract_x
_atom_site_fract_y
_atom_site_fract_z
_atom_type_partial_charge
C1    C     C_R   0.500696 0.260482 0.499842 0.906004
C2    C     C_R   0.364369 0.477135 0.911740 0.185754
C3    C     C_3   0.264449 0.361484 0.895173 0.215967
C4    C     C_R   0.201300 0.500201 0.464221 0.945892
C5    C     C_3   0.265010 0.362473 0.049138 -0.542208
C6    C     C_R   0.495163 0.739447 0.499308 0.865309
C7    C     C_R   0.798671 0.501032 0.535709 0.963669
C8    C     C_2   0.036163 0.499446 0.444919 -0.372106
C9    C     C_2   0.963726 0.504292 0.554673 -0.382655
C10   C     C_R   0.612240 0.062434 0.584709 0.098579
C11   C     C_R   0.501465 0.128753 0.496497 -0.170538
C12   C     C_R   0.389849 0.937456 0.395652 0.433229
C13   C     C_R   0.399278 0.067083 0.394542 -0.213015
C14   C     C_R   0.491566 0.871461 0.497148 -0.211935
C15   C     C_R   0.607670 0.934487 0.584496 0.080013
C16   C     C_3   0.651293 0.927142 0.736349 -0.458844
C17   C     C_3   0.656872 0.069535 0.736279 -0.437619
C18   C     C_R   0.364474 0.477415 0.054027 0.150135
C19   C     C_R   0.630389 0.533910 0.088503 -0.101715
C20   C     C_R   0.630404 0.533899 0.944797 -0.121871
H1    H     H_    0.974696 0.493602 0.340714 0.171658
H2    H     H_    0.564483 0.112896 0.788450 0.262464
H3    H     H_    0.777482 0.107936 0.766225 0.196091
H4    H     H_    0.736545 0.559668 0.155714 0.143092
H5    H     H_    0.270671 0.187592 0.843802 0.331383
H6    H     H_    0.250420 0.797037 0.336650 0.332630
H7    H     H_    0.736536 0.559501 0.904632 0.140707
H8    H     H_    0.146686 0.376871 0.833813 0.087256
H9    H     H_    0.147284 0.382479 0.078109 0.165185
H10   H     H_    0.328075 0.281929 0.103893 0.237191
H11   H     H_    0.025162 0.511327 0.658634 0.162499
H12   H     H_    0.318700 0.119660 0.320780 0.172888
H13   H     H_    0.555152 0.888492 0.788115 0.220656
H14   H     H_    0.768629 0.883243 0.766723 0.201964
N1    N     N_R   0.498950 0.499140 0.142680 -0.092221
N2    N     N_R   0.498950 0.499180 0.857030 -0.082933
O1    O     O_R   0.500020 0.316790 0.614690 -0.564437
O2    O     O_3   0.274831 0.881093 0.302785 -0.759507
O3    O     O_R   0.500000 0.316760 0.385350 -0.625673
O4    O     O_R   0.271760 0.500010 0.587850 -0.615509
O5    O     O_R   0.271740 0.499970 0.358500 -0.630124
O6    O     O_R   0.500000 0.683240 0.614650 -0.623150
O7    O     O_R   0.499980 0.683210 0.385310 -0.603427
O8    O     O_R   0.728260 0.500030 0.641500 -0.638150
O9    O     O_R   0.728240 0.499990 0.412150 -0.619477
O10   O     O_3   0.346147 0.258724 0.852422 -0.731733
Zn1   Zn    Zn3+2 0.500010 0.500020 0.653130 0.970909
Zn2   Zn    Zn3+2 0.499990 0.499980 0.346870 0.957725

loop_
_geom_bond_atom_site_label_1
_geom_bond_atom_site_label_2
_ccdc_geom_bond_type
C8    C9    D    
O4    Zn1   S    
C20   H7    S    
C16   H13   S    
C2    C18   A    
O7    Zn2   S    
C13   H12   S    
C17   H2    S    
C1    C11   S    
O8    Zn1   S    
C1    O1    A    
C4    C8    S    
C10   C11   A    
C19   C20   A    
C2    C3    S    
C19   N1    A    
C7    O8    A    
C11   C13   A    
C17   H3    S    
N1    Zn2   S    
C7    O9    A    
O1    Zn1   S    
C3    H8    S    
O5    Zn2   S    
C12   C14   A    
C19   H4    S    
C5    H9    S    
O6    Zn1   S    
C12   O2    S    
C6    C14   S    
C4    O5    A    
C9    H11   S    
C10   C17   S    
C15   C16   S    
C20   N2    A    
C12   C13   A    
N2    Zn1   S    
C5    H10   S    
C18   N1    A    
O9    Zn2   S    
C2    N2    A    
C7    C9    S    
C1    O3    A    
C6    O7    A    
O3    Zn2   S    
C5    C18   S    
C3    O10   S    
C16   H14   S    
C10   C15   A    
C14   C15   A    
C6    O6    A    
H5    O10   S    
H6    O2    S    
C4    O4    A    
C16   C17   S    
C3    C5    S    
C8    H1    S    
