data_mof_unit_46396.cif
_audit_creation_date              2013-03-05T16:11:29-0500
_audit_creation_method            fapswitch 2.2
_symmetry_space_group_name_H-M    P1
_symmetry_Int_Tables_number       1
_space_group_crystal_system       triclinic
_cell_length_a                    9.574862
_cell_length_b                    10.840903
_cell_length_c                    17.122477
_cell_angle_alpha                 92.090338
_cell_angle_beta                  86.980213
_cell_angle_gamma                 89.646221
_cell_volume                      1773.60827917

loop_
_atom_site_label
_atom_site_type_symbol
_atom_site_description
_atom_site_fract_x
_atom_site_fract_y
_atom_site_fract_z
_atom_type_partial_charge
O1    O     O_R   0.379740 0.682430 0.499960 -0.618489
O2    O     O_R   0.620260 0.682190 0.500020 -0.484327
C1    C     C_R   0.499693 0.739175 0.494891 0.806627
O3    O     O_R   0.365800 0.500150 0.613560 -0.589132
O4    O     O_R   0.606310 0.499910 0.613620 -0.565466
C2    C     C_R   0.481995 0.495925 0.649622 0.821544
Cu1   Cu    Cu3+1 0.357600 0.500140 0.499960 0.923454
Cu2   Cu    Cu3+1 0.642400 0.499860 0.500040 1.041712
O5    O     O_R   0.379740 0.317810 0.499980 -0.564794
O6    O     O_R   0.620260 0.317570 0.500040 -0.581667
O7    O     O_R   0.393690 0.500090 0.386380 -0.613153
O8    O     O_R   0.634200 0.499850 0.386440 -0.525478
C3    C     C_R   0.499519 0.260183 0.499105 0.776424
C4    C     C_R   0.517421 0.503148 0.350162 0.783940
C5    C     C_R   0.470092 0.477716 0.733585 -0.004897
C6    C     C_R   0.359044 0.532679 0.779327 -0.185030
C7    C     C_R   0.343093 0.509757 0.858756 -0.166618
C8    C     C_R   0.437965 0.431755 0.892546 0.153730
C9    C     C_R   0.546192 0.373945 0.846641 -0.174789
C10   C     C_R   0.560913 0.395523 0.767185 -0.192466
C11   C     C_R   0.407253 0.537339 0.145220 -0.164714
C12   C     C_R   0.404677 0.541358 0.226378 -0.223334
C13   C     C_R   0.649178 0.479224 0.221164 -0.152646
C14   C     C_R   0.650717 0.473022 0.139783 -0.177748
C15   C     C_R   0.528192 0.497001 0.101905 0.175177
C16   C     C_2   0.432488 0.420124 0.977386 0.048116
C17   C     C_2   0.528904 0.483731 0.016654 -0.263731
C18   C     C_R   0.524530 0.508880 0.264926 -0.031225
H1    H     H_    0.285630 0.593864 0.753725 0.141659
H2    H     H_    0.308586 0.568615 0.258833 0.147351
H3    H     H_    0.743848 0.456689 0.249532 0.191078
H4    H     H_    0.612202 0.530674 0.984093 0.149041
H5    H     H_    0.619057 0.312625 0.872553 0.133566
H6    H     H_    0.313816 0.562081 0.116148 0.135263
H7    H     H_    0.640502 0.345278 0.731935 0.130670
H8    H     H_    0.259402 0.555031 0.894210 0.130233
H9    H     H_    0.745983 0.445804 0.106480 0.131023
C19   C     C_3   0.347605 0.926433 0.470992 -0.080135
H10   H     H_    0.270825 0.888148 0.514715 0.209032
C20   C     C_3   0.344412 0.070167 0.481537 0.230087
H11   H     H_    0.310023 0.111007 0.427492 0.099549
H12   H     H_    0.449789 0.906979 0.617135 0.187395
H13   H     H_    0.497952 0.115213 0.625904 0.220427
C21   C     C_3   0.533062 0.931083 0.572578 -0.388248
C22   C     C_3   0.605687 0.924879 0.428202 -0.337070
C23   C     C_3   0.496438 0.877356 0.490641 -0.021131
H14   H     H_    0.710938 0.895505 0.444127 0.266734
H15   H     H_    0.591486 0.881516 0.369778 0.179367
C24   C     C_3   0.496746 0.121653 0.494854 -0.018759
C25   C     C_3   0.549447 0.071980 0.572321 -0.407899
C26   C     C_3   0.603076 0.068588 0.428260 -0.144467
H16   H     H_    0.706907 0.094976 0.449233 0.235983
H17   H     H_    0.632715 0.890859 0.590490 0.255755
H18   H     H_    0.661763 0.095157 0.577791 0.186724
C27   C     C_3   0.919911 0.369307 0.493481 0.190645
H19   H     H_    0.874521 0.315751 0.542284 0.113017
C28   C     C_3   0.084875 0.371111 0.500632 -0.228713
H20   H     H_    0.113516 0.327188 0.554782 0.212283
H21   H     H_    0.137619 0.314282 0.452237 0.213595
H22   H     H_    0.901583 0.514019 0.374053 0.158616
H23   H     H_    0.131538 0.498209 0.374848 0.147735
C29   C     C_3   0.927296 0.561882 0.428966 0.288594
C30   C     C_3   0.915657 0.558870 0.575224 0.434303
N1    N     N_3   0.856560 0.499750 0.498270 -0.267087
N2    N     N_3   0.143860 0.496700 0.498910 -0.208252
C31   C     C_3   0.092912 0.553415 0.427798 -0.318077
C32   C     C_3   0.081802 0.572631 0.564922 -0.243839
H24   H     H_    0.132080 0.550156 0.619230 0.169634
H25   H     H_    0.116122 0.668957 0.556423 0.219447
H26   H     H_    0.140005 0.645499 0.421088 0.188192
C33   C     C_3   0.301138 0.878361 0.388732 -0.505494
C34   C     C_3   0.149354 0.909600 0.369598 -0.249893
C35   C     C_3   0.137383 0.002523 0.305181 -0.784570
H27   H     H_    0.166094 0.096399 0.326055 0.259898
H28   H     H_    0.204111 0.973917 0.252517 0.228738
H29   H     H_    0.027188 0.006722 0.288087 0.268434
H30   H     H_    0.099576 0.823666 0.347848 0.233533
H31   H     H_    0.087799 0.944003 0.422238 0.318586
H32   H     H_    0.372515 0.907049 0.341432 0.209213
H33   H     H_    0.312319 0.776819 0.384146 0.195326
N3    N     N_R   0.238282 0.106161 0.544578 0.104041
O9    O     O_R   0.269436 0.165412 0.608658 -0.399760
O10   O     O_R   0.107852 0.078480 0.536240 -0.353402
C36   C     C_3   0.608602 0.129798 0.346484 -0.322460
C37   C     C_3   0.512611 0.083806 0.283260 -0.434389
C38   C     C_3   0.530847 0.158744 0.209618 -0.827430
H34   H     H_    0.494319 0.255004 0.222167 0.262397
H35   H     H_    0.642114 0.158832 0.187673 0.263589
H36   H     H_    0.467039 0.117745 0.163136 0.243863
H37   H     H_    0.537497 0.986373 0.265737 0.232755
H38   H     H_    0.403142 0.095760 0.304974 0.233032
H39   H     H_    0.588314 0.230084 0.355181 0.231331
H40   H     H_    0.717321 0.118315 0.320791 0.259359
N4    N     N_R   0.890246 0.292136 0.423507 0.104295
O11   O     O_R   0.939630 0.179920 0.417859 -0.405664
O12   O     O_R   0.812356 0.327498 0.368900 -0.434306
N5    N     N_R   0.852823 0.682946 0.597616 0.176983
O13   O     O_R   0.932172 0.778428 0.609270 -0.360617
O14   O     O_R   0.728573 0.691919 0.631302 -0.381903
C39   C     C_3   0.895809 0.474610 0.649921 -0.459554
C40   C     C_3   0.902891 0.543608 0.730421 -0.280278
C41   C     C_3   0.941724 0.456986 0.794489 -0.887420
H41   H     H_    0.867288 0.379105 0.798216 0.260726
H42   H     H_    0.049304 0.419731 0.782164 0.270880
H43   H     H_    0.938275 0.508498 0.851824 0.241078
H44   H     H_    0.981953 0.618069 0.727591 0.228230
H45   H     H_    0.799622 0.585940 0.747994 0.264276
H46   H     H_    0.802172 0.417944 0.650094 0.208221
H47   H     H_    0.978208 0.402517 0.648578 0.175120
N6    N     N_R   0.877522 0.688106 0.419909 0.113513
O15   O     O_R   0.809483 0.712892 0.358431 -0.430399
O16   O     O_R   0.927891 0.779272 0.460308 -0.389226
C42   C     C_3   0.320157 0.339971 0.015321 -0.392181
C43   C     C_3   0.326823 0.207672 0.980136 -0.339775
C44   C     C_3   0.218346 0.125850 0.020795 -0.842749
H48   H     H_    0.238263 0.120324 0.083944 0.249879
H49   H     H_    0.111320 0.163346 0.014694 0.256382
H50   H     H_    0.224643 0.031245 0.993571 0.246749
H51   H     H_    0.306675 0.208025 0.916770 0.233815
H52   H     H_    0.432767 0.167830 0.986610 0.220786
H53   H     H_    0.331251 0.334104 0.079181 0.215940
H54   H     H_    0.216005 0.381341 0.006185 0.186166

loop_
_geom_bond_atom_site_label_1
_geom_bond_atom_site_label_2
_geom_bond_distance
_ccdc_geom_bond_type
C40   H45   1.109873 S    
C27   H19   1.106566 S    
C40   C41   1.528824 S    
C35   H27   1.107383 S    
C9    C10   1.388866 A    
C8    C16   1.460941 S    
C33   H32   1.087393 S    
N5    O13   1.303504 A    
C37   H38   1.098814 S    
Cu1   Cu2   2.726977 S    
C37   C38   1.527658 S    
Cu1   O7    1.957207 S    
C16   C17   1.348786 D    
C25   H18   1.113839 S    
O3    Cu1   1.950824 S    
O4    C2    1.312989 A    
O7    C4    1.309123 A    
C38   H35   1.110876 S    
C28   H21   1.111792 S    
N2    C32   1.470900 S    
C22   C26   1.557951 S    
C44   H48   1.111491 S    
C41   H43   1.110443 S    
H22   C29   1.097417 S    
C8    C9    1.398081 A    
O5    C3    1.301723 A    
N6    O15   1.302085 A    
C34   H31   1.102571 S    
C34   H30   1.110231 S    
N5    O14   1.296020 A    
C2    C5    1.456884 S    
C10   H7    1.078958 S    
C21   H17   1.109093 S    
C42   H54   1.111809 S    
C6    C7    1.392119 A    
C44   H49   1.111548 S    
C29   N1    1.516515 S    
C13   C14   1.391910 A    
C7    H8    1.083371 S    
C43   H51   1.112100 S    
C39   H47   1.105875 S    
C12   C18   1.402970 A    
C11   C12   1.387641 A    
C35   H28   1.110846 S    
C41   H41   1.109704 S    
H12   C21   1.113143 S    
C27   N4    1.477090 S    
H23   C31   1.113250 S    
C33   H33   1.104870 S    
N3    O10   1.300133 A    
C21   C23   1.557335 S    
C43   C44   1.526607 S    
C22   H14   1.105746 S    
C5    C10   1.400600 A    
C30   C32   1.599793 S    
C39   H46   1.089893 S    
C29   C31   1.586871 S    
C32   H24   1.103639 S    
C19   H10   1.114286 S    
C36   C37   1.528515 S    
C14   H9    1.083446 S    
C9    H5    1.083469 S    
C38   H34   1.108464 S    
C11   H6    1.083438 S    
C24   C26   1.578053 S    
C6    H1    1.083592 S    
C22   C23   1.559363 S    
C38   H36   1.110419 S    
N3    O9    1.300346 A    
C26   H16   1.110314 S    
C32   H25   1.109032 S    
C13   H3    1.081471 S    
N4    O12   1.293622 A    
C30   C39   1.602545 S    
Cu1   N2    2.048115 S    
C29   N6    1.462485 S    
Cu2   O8    1.950820 S    
C44   H50   1.110931 S    
C27   N1    1.533002 S    
C7    C8    1.398757 A    
C13   C18   1.404537 A    
C14   C15   1.397577 A    
C41   H42   1.111047 S    
C20   C24   1.589587 S    
Cu2   N1    2.049172 S    
C3    C24   1.501366 S    
O3    C2    1.301910 A    
C20   H11   1.104978 S    
O8    C4    1.308312 A    
N2    C31   1.487301 S    
C27   C28   1.590846 S    
C35   H29   1.110814 S    
C42   C43   1.534878 S    
C22   H15   1.104999 S    
C21   C25   1.536593 S    
C40   H44   1.110651 S    
Cu1   O5    1.986670 S    
C11   C15   1.400638 A    
C19   C33   1.571228 S    
C12   H2    1.083241 S    
C17   H4    1.088470 S    
O1    Cu1   1.988827 S    
C20   N3    1.482838 S    
O2    Cu2   1.986670 S    
C28   N2    1.477892 S    
C34   C35   1.528864 S    
O6    C3    1.316780 A    
O4    Cu2   1.957209 S    
C37   H37   1.108480 S    
H13   C25   1.105743 S    
C15   C17   1.461205 S    
C1    C23   1.502634 S    
C4    C18   1.461047 S    
O2    C1    1.314479 A    
C16   C42   1.520817 S    
C33   C34   1.544775 S    
C30   N5    1.498768 S    
C19   C20   1.561998 S    
C28   H20   1.104075 S    
C31   H26   1.105232 S    
C39   C40   1.548942 S    
C36   H40   1.113022 S    
N4    O11   1.300909 A    
N6    O16   1.295772 A    
C19   C23   1.575201 S    
C30   N1    1.577518 S    
C42   H53   1.108232 S    
Cu2   O6    1.988827 S    
C24   C25   1.556684 S    
C36   H39   1.106543 S    
O1    C1    1.306598 A    
C26   C36   1.569749 S    
C43   H52   1.112561 S    
C5    C6    1.403348 A    
