data_mof_unit_60192.cif
_audit_creation_date              2012-12-10T20:56:33-0500
_audit_creation_method            fapswitch 2.2
_symmetry_space_group_name_H-M    P1
_symmetry_Int_Tables_number       1
_space_group_crystal_system       triclinic
_cell_length_a                    26.428241
_cell_length_b                    32.997282
_cell_length_c                    21.18534
_cell_angle_alpha                 89.987442
_cell_angle_beta                  128.835462
_cell_angle_gamma                 90.026821
_cell_volume                      14391.0139152

loop_
_atom_site_label
_atom_site_type_symbol
_atom_type_description
_atom_site_fract_x
_atom_site_fract_y
_atom_site_fract_z
_atom_type_partial_charge
C1    C     C_R   0.499998 0.145606 0.500006 0.817387
C2    C     C_R   0.724716 0.627603 0.623630 0.504227
C3    C     C_R   0.641242 0.749757 0.500103 0.878190
C4    C     C_R   0.141320 0.750236 0.500258 0.881146
C5    C     C_R   0.858681 0.249758 0.499744 0.876533
C6    C     C_R   0.858760 0.750249 0.499904 0.868894
C7    C     C_R   0.141242 0.249757 0.500104 0.878170
C8    C     C_R   0.395491 0.250048 0.291140 0.829974
C9    C     C_R   0.604506 0.749956 0.708859 0.831495
C10   C     C_R   0.604488 0.250059 0.708867 0.821585
C11   C     C_R   0.395514 0.749941 0.291133 0.821347
C12   C     C_R   0.895491 0.750048 0.291140 0.830013
C13   C     C_R   0.700260 0.383897 0.569965 0.513352
C14   C     C_R   0.104506 0.249956 0.708859 0.831526
C15   C     C_R   0.104488 0.750059 0.708867 0.821476
C16   C     C_R   0.895514 0.249941 0.291133 0.821416
C17   C     C_1   0.649641 0.250117 0.798998 -0.151836
C18   C     C_1   0.350368 0.749885 0.201001 -0.150756
C19   C     C_1   0.350290 0.250109 0.201004 -0.121542
C20   C     C_1   0.649684 0.749914 0.798992 -0.114119
C21   C     C_1   0.149641 0.750117 0.798998 -0.151856
C22   C     C_1   0.850369 0.249886 0.201001 -0.150778
C23   C     C_1   0.850290 0.750109 0.201004 -0.121494
C24   C     C_R   0.299134 0.616304 0.428178 0.433795
C25   C     C_1   0.149684 0.249914 0.798992 -0.114095
C26   C     C_1   0.687110 0.250111 0.873932 0.020798
C27   C     C_1   0.312901 0.749893 0.126067 0.021664
C28   C     C_1   0.312826 0.250104 0.126068 0.024868
C29   C     C_1   0.687115 0.749946 0.873927 0.025710
C30   C     C_1   0.187110 0.750111 0.873932 0.020821
C31   C     C_1   0.812903 0.249893 0.126067 0.021628
C32   C     C_1   0.812826 0.750104 0.126068 0.024910
C33   C     C_1   0.187115 0.249946 0.873927 0.025665
C34   C     C_1   0.731324 0.250042 0.962532 0.036673
C35   C     C_R   0.775586 0.870828 0.372560 0.492288
C36   C     C_1   0.268689 0.749962 0.037468 0.036966
C37   C     C_1   0.268631 0.250059 0.037465 0.026971
C38   C     C_1   0.731288 0.750006 0.962530 0.026144
C39   C     C_1   0.231324 0.750042 0.962532 0.036694
C40   C     C_1   0.768690 0.249963 0.037468 0.036935
C41   C     C_1   0.768632 0.750059 0.037465 0.026969
C42   C     C_1   0.231288 0.250007 0.962530 0.026145
C43   C     C_1   0.500034 0.399522 0.500173 -0.045058
C44   C     C_1   0.500034 0.600477 0.499976 -0.070017
C45   C     C_1   0.000033 0.899522 0.500176 -0.045059
C46   C     C_R   0.224679 0.127562 0.623507 0.504242
C47   C     C_1   0.000033 0.100477 0.499978 -0.070065
C48   C     C_1   0.500030 0.436984 0.500243 0.133612
C49   C     C_1   0.500087 0.563015 0.500045 0.143369
C50   C     C_1   0.000026 0.936984 0.500246 0.133581
C51   C     C_1   0.000084 0.063015 0.500048 0.143377
C52   C     C_3   0.219355 0.330900 0.143139 -0.698999
C53   C     C_3   0.770521 0.666506 0.848125 -0.707338
C54   C     C_3   0.746020 0.330464 0.795980 -0.609149
C55   C     C_3   0.252792 0.670603 0.202558 -0.605730
C56   C     C_3   0.719273 0.830858 0.143045 -0.698983
C57   C     C_R   0.200107 0.883914 0.569734 0.513290
C58   C     C_3   0.270316 0.166445 0.847918 -0.707354
C59   C     C_3   0.245908 0.830519 0.795791 -0.609134
C60   C     C_3   0.752603 0.170745 0.202280 -0.605787
C61   C     C_R   0.798913 0.116336 0.427803 0.433807
C62   C     C_R   0.272276 0.343418 0.419970 -0.298411
C63   C     C_R   0.728904 0.655779 0.578055 -0.273838
C64   C     C_R   0.707122 0.350486 0.535580 -0.301811
C65   C     C_R   0.500002 0.854394 0.499994 0.819232
C66   C     C_R   0.292493 0.649504 0.463206 -0.287724
C67   C     C_R   0.772249 0.843401 0.419907 -0.298397
C68   C     C_R   0.228884 0.155753 0.577967 -0.273841
C69   C     C_R   0.207009 0.850495 0.535403 -0.301788
C70   C     C_R   0.792339 0.149517 0.462931 -0.287600
C71   C     C_R   0.245136 0.304848 0.390221 -0.128328
C72   C     C_R   0.754299 0.694581 0.608601 -0.127552
C73   C     C_R   0.741544 0.316103 0.582229 -0.133783
C74   C     C_R   0.258148 0.684049 0.417159 -0.120323
C75   C     C_R   0.745116 0.804828 0.390181 -0.128288
C76   C     C_R   0.999998 0.645606 0.500006 0.817364
C77   C     C_R   0.254272 0.194553 0.608546 -0.127644
C78   C     C_R   0.241485 0.816138 0.582114 -0.133585
C79   C     C_R   0.758059 0.184100 0.416988 -0.120378
C80   C     C_R   0.219681 0.293577 0.310557 0.440412
C81   C     C_R   0.777209 0.705351 0.687464 0.404839
C82   C     C_R   0.770420 0.315093 0.665625 0.490057
C83   C     C_R   0.229038 0.685412 0.333701 0.405158
C84   C     C_R   0.719659 0.793546 0.310521 0.440365
C85   C     C_R   0.277158 0.205305 0.687406 0.404879
C86   C     C_R   0.270377 0.815163 0.665515 0.490078
C87   C     C_R   0.000002 0.354394 0.499994 0.819256
C88   C     C_R   0.728947 0.185521 0.333533 0.405413
C89   C     C_R   0.222553 0.321688 0.262206 0.099362
C90   C     C_R   0.773241 0.676561 0.733947 0.115262
C91   C     C_R   0.762020 0.348866 0.699680 0.069732
C92   C     C_R   0.237082 0.651826 0.298943 0.097644
C93   C     C_R   0.722517 0.821650 0.262149 0.099354
C94   C     C_R   0.273164 0.176501 0.733848 0.115300
C95   C     C_R   0.261916 0.848935 0.699510 0.069698
C96   C     C_R   0.736905 0.151947 0.298666 0.097670
C97   C     C_R   0.250632 0.360130 0.294186 -0.288820
C98   C     C_1   0.500011 0.481270 0.500216 0.057892
C99   C     C_R   0.747061 0.637863 0.701230 -0.297405
C100  C     C_R   0.727681 0.383020 0.651650 -0.326683
C101  C     C_R   0.271384 0.617521 0.346374 -0.335784
C102  C     C_R   0.750591 0.860095 0.294109 -0.288772
C103  C     C_R   0.246997 0.137806 0.701102 -0.297538
C104  C     C_R   0.227522 0.883065 0.651418 -0.326649
C105  C     C_R   0.771143 0.117604 0.345994 -0.335926
C106  C     C_R   0.196698 0.275483 0.448316 -0.157833
C107  C     C_R   0.803329 0.724565 0.551754 -0.225016
C108  C     C_R   0.796527 0.280779 0.537976 -0.131534
C109  C     C_1   0.500064 0.518730 0.500152 0.099808
C110  C     C_R   0.203551 0.719148 0.462185 -0.184685
C111  C     C_R   0.696687 0.775472 0.448293 -0.157839
C112  C     C_R   0.303318 0.224553 0.551730 -0.225078
C113  C     C_R   0.296508 0.780791 0.537936 -0.131797
C114  C     C_R   0.703527 0.219164 0.462135 -0.185022
C115  C     C_R   0.197222 0.249343 0.500806 -0.042009
C116  C     C_R   0.802855 0.750750 0.499360 -0.053539
C117  C     C_R   0.802415 0.249450 0.498448 -0.070076
C118  C     C_R   0.197605 0.750516 0.501594 -0.058312
C119  C     C_R   0.697221 0.749342 0.500804 -0.042037
C120  C     C_1   0.000006 0.981270 0.500219 0.057939
C121  C     C_R   0.302855 0.250749 0.499360 -0.053474
C122  C     C_R   0.302422 0.749444 0.498462 -0.070343
C123  C     C_R   0.697608 0.250513 0.501602 -0.058368
C124  C     C_R   0.251434 0.223690 0.553384 0.120575
C125  C     C_R   0.748571 0.776337 0.446650 0.144831
C126  C     C_R   0.754645 0.218569 0.458927 0.123045
C127  C     C_R   0.245287 0.781445 0.540947 0.123905
C128  C     C_R   0.751446 0.723702 0.553406 0.120535
C129  C     C_R   0.248581 0.276348 0.446671 0.144858
C130  C     C_R   0.254680 0.718547 0.458996 0.122950
C131  C     C_1   0.000059 0.018730 0.500155 0.099853
C132  C     C_R   0.745313 0.281427 0.541000 0.124258
C133  C     C_R   0.500013 0.354470 0.500031 0.816906
C134  C     C_R   0.499998 0.645530 0.499985 0.814658
C135  C     C_R   0.000013 0.854470 0.500031 0.816964
C136  C     C_R   0.999998 0.145530 0.499985 0.814593
C137  C     C_1   0.499996 0.100527 0.500015 -0.141403
C138  C     C_1   0.500004 0.899473 0.499985 -0.136495
C139  C     C_1   0.999996 0.600527 0.500015 -0.141404
C140  C     C_1   0.000004 0.399473 0.499985 -0.136501
C141  C     C_1   0.499996 0.063049 0.500012 0.020255
C142  C     C_R   0.275622 0.370852 0.372641 0.492311
C143  C     C_1   0.500003 0.936951 0.499988 0.023343
C144  C     C_1   0.999996 0.563049 0.500012 0.020245
C145  C     C_1   0.000003 0.436951 0.499988 0.023342
C146  C     C_1   0.499998 0.018738 0.500004 0.034930
C147  C     C_1   0.500001 0.981262 0.499996 0.035978
C148  C     C_1   0.999998 0.518738 0.500004 0.034923
C149  C     C_1   0.000001 0.481262 0.499996 0.035975
C150  C     C_R   0.641322 0.250233 0.500263 0.880993
C151  C     C_R   0.358684 0.749756 0.499751 0.876555
C152  C     C_R   0.358760 0.250249 0.499904 0.868870
H1    H     H_    0.252550 0.382159 0.257978 0.214070
H2    H     H_    0.711085 0.647772 0.517605 0.205191
H3    H     H_    0.685253 0.351117 0.471935 0.211066
H4    H     H_    0.314486 0.648588 0.526881 0.200951
H5    H     H_    0.792075 0.851766 0.480993 0.203690
H6    H     H_    0.211083 0.147759 0.517520 0.205214
H7    H     H_    0.185133 0.851100 0.471754 0.211050
H8    H     H_    0.814336 0.148558 0.526605 0.200940
H9    H     H_    0.155579 0.295338 0.408009 0.169280
H10   H     H_    0.844346 0.704606 0.591851 0.178600
H11   H     H_    0.832325 0.304891 0.567374 0.177977
H12   H     H_    0.744545 0.615338 0.736216 0.206895
H13   H     H_    0.167785 0.695018 0.432860 0.158953
H14   H     H_    0.655558 0.795318 0.407968 0.169291
H15   H     H_    0.344324 0.204584 0.591808 0.178574
H16   H     H_    0.332286 0.804915 0.567292 0.178238
H17   H     H_    0.667737 0.195047 0.432763 0.159004
H18   H     H_    0.351089 0.465803 0.383406 0.403868
H19   H     H_    0.724935 0.526107 0.558980 0.415826
H20   H     H_    0.626359 0.484065 0.525020 0.402457
H21   H     H_    0.259929 0.543491 0.465512 0.366021
H22   H     H_    0.851096 0.965757 0.383318 0.403898
H23   H     H_    0.721832 0.408747 0.678262 0.216501
H24   H     H_    0.224929 0.026063 0.558866 0.415824
H25   H     H_    0.126204 0.984086 0.524670 0.402506
H26   H     H_    0.759553 0.043451 0.464720 0.365990
H27   H     H_    0.176624 0.186488 0.309075 0.395389
H28   H     H_    0.840650 0.788547 0.671824 0.370049
H29   H     H_    0.876465 0.227320 0.728023 0.391917
H30   H     H_    0.104389 0.722225 0.276893 0.347949
H31   H     H_    0.676683 0.686447 0.309127 0.395388
H32   H     H_    0.340749 0.288456 0.671959 0.370016
H33   H     H_    0.376932 0.727682 0.728158 0.391857
H34   H     H_    0.276928 0.591925 0.319198 0.198696
H35   H     H_    0.604411 0.222665 0.276887 0.348150
H36   H     H_    0.147313 0.304041 0.143354 0.279765
H37   H     H_    0.203315 0.313553 0.088486 0.246579
H38   H     H_    0.273307 0.332074 0.185092 0.251455
H39   H     H_    0.198845 0.361955 0.123948 0.232526
H40   H     H_    0.845444 0.693515 0.854172 0.278341
H41   H     H_    0.784236 0.683559 0.902005 0.245352
H42   H     H_    0.791043 0.635477 0.867829 0.232548
H43   H     H_    0.716637 0.665206 0.803500 0.251584
H44   H     H_    0.804047 0.377174 0.809216 0.238402
H45   H     H_    0.752501 0.882119 0.257887 0.214066
H46   H     H_    0.770369 0.330851 0.861790 0.228380
H47   H     H_    0.736050 0.298447 0.775517 0.280039
H48   H     H_    0.699440 0.347347 0.763117 0.214120
H49   H     H_    0.194440 0.623987 0.188838 0.232709
H50   H     H_    0.228191 0.670584 0.136672 0.227448
H51   H     H_    0.299127 0.653501 0.234783 0.212550
H52   H     H_    0.263262 0.702503 0.223775 0.279039
H53   H     H_    0.647275 0.803972 0.143318 0.279794
H54   H     H_    0.703226 0.813507 0.088393 0.246584
H55   H     H_    0.773223 0.832047 0.184976 0.251451
H56   H     H_    0.244466 0.115271 0.736062 0.206893
H57   H     H_    0.698739 0.861908 0.123846 0.232553
H58   H     H_    0.345338 0.193400 0.854112 0.278264
H59   H     H_    0.283999 0.183493 0.901787 0.245335
H60   H     H_    0.290799 0.135407 0.867617 0.232498
H61   H     H_    0.216433 0.165167 0.803234 0.251603
H62   H     H_    0.303844 0.877280 0.808987 0.238400
H63   H     H_    0.270244 0.830910 0.861598 0.228412
H64   H     H_    0.235993 0.798497 0.775350 0.279923
H65   H     H_    0.199299 0.847370 0.762902 0.214118
H66   H     H_    0.694146 0.124178 0.188469 0.232711
H67   H     H_    0.221629 0.908794 0.677983 0.216472
H68   H     H_    0.727972 0.170773 0.136385 0.227469
H69   H     H_    0.798887 0.153594 0.234419 0.212549
H70   H     H_    0.763172 0.202628 0.223601 0.279054
H71   H     H_    0.776625 0.092019 0.318737 0.198747
H72   H     H_    0.292100 0.351774 0.481058 0.203707
N1    N     N_2   0.196197 0.310830 0.181462 -0.246991
N2    N     N_2   0.796512 0.687047 0.813615 -0.247006
N3    N     N_2   0.787886 0.349054 0.782162 -0.252018
N4    N     N_2   0.210927 0.651989 0.216356 -0.258642
N5    N     N_2   0.696153 0.810782 0.181407 -0.247005
N6    N     N_2   0.296395 0.186973 0.813505 -0.246976
N7    N     N_2   0.287756 0.849146 0.781980 -0.252044
N8    N     N_2   0.710717 0.152158 0.216066 -0.258581
O1    O     O_3   0.500000 0.250010 0.500000 -0.453719
O2    O     O_R   0.008350 0.334000 0.455930 -0.619698
O3    O     O_3   0.635275 0.245281 0.294171 -0.523680
O4    O     O_R   0.008350 0.666000 0.455930 -0.624008
O5    O     O_R   0.991650 0.334000 0.544070 -0.619907
O6    O     O_R   0.552380 0.334020 0.544040 -0.634447
O7    O     O_R   0.447620 0.665980 0.455960 -0.631772
O8    O     O_R   0.447620 0.334020 0.455960 -0.615672
O9    O     O_R   0.552380 0.665980 0.544040 -0.621275
O10   O     O_R   0.052380 0.834020 0.544040 -0.634499
O11   O     O_R   0.947620 0.165980 0.455960 -0.631668
O12   O     O_R   0.947620 0.834020 0.455960 -0.615621
O13   O     O_3   0.500000 0.749990 0.500000 -0.456382
O14   O     O_R   0.052380 0.165980 0.544040 -0.621370
O15   O     O_R   0.593780 0.227990 0.455960 -0.646025
O16   O     O_R   0.406220 0.772010 0.544040 -0.639490
O17   O     O_R   0.406220 0.227990 0.544040 -0.643127
O18   O     O_R   0.593780 0.772010 0.455960 -0.642084
O19   O     O_R   0.093780 0.727990 0.455960 -0.645964
O20   O     O_R   0.906220 0.272010 0.544040 -0.639532
O21   O     O_R   0.906220 0.727990 0.544040 -0.643106
O22   O     O_R   0.093780 0.272010 0.455960 -0.642097
O23   O     O_R   0.362170 0.272040 0.455960 -0.636563
O24   O     O_3   0.000000 0.750010 0.500000 -0.453715
O25   O     O_R   0.637830 0.727960 0.544040 -0.636022
O26   O     O_R   0.637830 0.272040 0.544040 -0.626088
O27   O     O_R   0.362170 0.727960 0.455960 -0.624582
O28   O     O_R   0.862170 0.772040 0.455960 -0.636580
O29   O     O_R   0.137830 0.227960 0.544040 -0.635987
O30   O     O_R   0.137830 0.772040 0.544040 -0.626181
O31   O     O_R   0.862170 0.227960 0.455960 -0.624586
O32   O     O_R   0.446360 0.228000 0.332000 -0.626365
O33   O     O_R   0.553640 0.772000 0.668000 -0.621961
O34   O     O_R   0.553640 0.228000 0.668000 -0.619436
O35   O     O_3   0.000000 0.249990 0.500000 -0.456388
O36   O     O_R   0.446360 0.772000 0.332000 -0.617507
O37   O     O_R   0.946360 0.728000 0.332000 -0.626317
O38   O     O_R   0.053640 0.272000 0.668000 -0.622003
O39   O     O_R   0.053640 0.728000 0.668000 -0.619388
O40   O     O_R   0.946360 0.272000 0.332000 -0.617515
O41   O     O_R   0.385640 0.272040 0.331990 -0.616563
O42   O     O_R   0.614360 0.727960 0.668010 -0.616770
O43   O     O_R   0.614360 0.272040 0.668010 -0.633479
O44   O     O_R   0.385640 0.727960 0.331990 -0.635189
O45   O     O_R   0.885640 0.772040 0.331990 -0.616576
O46   O     O_R   0.491650 0.166000 0.544070 -0.618004
O47   O     O_R   0.114360 0.227960 0.668010 -0.616737
O48   O     O_R   0.114360 0.772040 0.668010 -0.633638
O49   O     O_R   0.885640 0.227960 0.331990 -0.635115
O50   O     O_2   0.262187 0.446388 0.403753 -0.252535
O51   O     O_2   0.369291 0.414970 0.499863 -0.290212
O52   O     O_3   0.334309 0.438440 0.360138 -0.570882
O53   O     O_2   0.673098 0.558860 0.629330 -0.302983
O54   O     O_2   0.632788 0.583343 0.495554 -0.322335
O55   O     O_3   0.747918 0.551192 0.589609 -0.512635
O56   O     O_2   0.691363 0.444725 0.481146 -0.268999
O57   O     O_R   0.508350 0.834000 0.455930 -0.619699
O58   O     O_2   0.589824 0.413695 0.437640 -0.309239
O59   O     O_3   0.651260 0.461406 0.563325 -0.555838
O60   O     O_2   0.350122 0.543122 0.440998 -0.310809
O61   O     O_2   0.408453 0.586219 0.561910 -0.270369
O62   O     O_3   0.302470 0.551578 0.516661 -0.473522
O63   O     O_2   0.762130 0.946379 0.403585 -0.252456
O64   O     O_2   0.869228 0.914966 0.499769 -0.290267
O65   O     O_3   0.834302 0.938395 0.360051 -0.570795
O66   O     O_2   0.173101 0.058790 0.629172 -0.303098
O67   O     O_2   0.132739 0.083322 0.495404 -0.322201
O68   O     O_R   0.508350 0.166000 0.455930 -0.623992
O69   O     O_3   0.247878 0.051180 0.589374 -0.512684
O70   O     O_2   0.191119 0.944687 0.480760 -0.268976
O71   O     O_2   0.089622 0.913657 0.437400 -0.309198
O72   O     O_3   0.151085 0.961431 0.562993 -0.555917
O73   O     O_2   0.849910 0.043185 0.440461 -0.310870
O74   O     O_2   0.908143 0.086165 0.561530 -0.270363
O75   O     O_3   0.802080 0.051491 0.515942 -0.473428
O76   O     O_2   0.112471 0.249751 0.207916 -0.294975
O77   O     O_2   0.210434 0.228206 0.228551 -0.279745
O78   O     O_3   0.201000 0.211236 0.339943 -0.573811
O79   O     O_R   0.491650 0.834000 0.544070 -0.619898
O80   O     O_2   0.776323 0.770809 0.761535 -0.243608
O81   O     O_2   0.880554 0.750375 0.798763 -0.305261
O82   O     O_3   0.798922 0.788154 0.662459 -0.547277
O83   O     O_2   0.856654 0.280690 0.814560 -0.244497
O84   O     O_2   0.767345 0.238754 0.705110 -0.328679
O85   O     O_3   0.863266 0.254979 0.704844 -0.566424
O86   O     O_2   0.231780 0.762433 0.296810 -0.272872
O87   O     O_2   0.143863 0.720951 0.185249 -0.252055
O88   O     O_3   0.135013 0.744964 0.293958 -0.523474
O89   O     O_2   0.612457 0.749702 0.207943 -0.294956
O90   O     O_R   0.991650 0.666000 0.544070 -0.618004
O91   O     O_2   0.710402 0.728168 0.228522 -0.279775
O92   O     O_3   0.701033 0.711205 0.339972 -0.573808
O93   O     O_2   0.276139 0.270763 0.761362 -0.243636
O94   O     O_2   0.380458 0.250317 0.798867 -0.305233
O95   O     O_3   0.298994 0.288102 0.662528 -0.547242
O96   O     O_2   0.356439 0.780747 0.814513 -0.244431
O97   O     O_2   0.267570 0.738712 0.704735 -0.328746
O98   O     O_3   0.363737 0.755379 0.705187 -0.566252
O99   O     O_2   0.731935 0.262501 0.296663 -0.272953
O100  O     O_2   0.643720 0.221133 0.185185 -0.252179
S1    S     S_3+6 0.311223 0.418826 0.411845 0.048277
S2    S     S_3+6 0.809180 0.754439 0.729252 0.038813
S3    S     S_3+6 0.814894 0.271600 0.725454 0.031277
S4    S     S_3+6 0.184473 0.729079 0.274600 0.047366
S5    S     S_3+6 0.684838 0.744796 0.269740 0.022535
S6    S     S_3+6 0.309114 0.254389 0.729236 0.038858
S7    S     S_3+6 0.314994 0.771717 0.725413 0.031353
S8    S     S_3+6 0.684513 0.229246 0.274563 0.047246
S9    S     S_3+6 0.691722 0.579261 0.583073 0.023498
S10   S     S_3+6 0.656779 0.426640 0.509864 0.023886
S11   S     S_3+6 0.342461 0.573307 0.487605 0.051994
S12   S     S_3+6 0.811181 0.918806 0.411738 0.048319
S13   S     S_3+6 0.191692 0.079224 0.582908 0.023485
S14   S     S_3+6 0.156583 0.926630 0.509565 0.023862
S15   S     S_3+6 0.842180 0.073297 0.487105 0.052013
S16   S     S_3+6 0.184847 0.244834 0.269743 0.022555
Zn1   Zn    Zn3+2 0.574840 0.281480 0.562930 1.012542
Zn2   Zn    Zn3+2 0.488090 0.781450 0.562930 1.028949
Zn3   Zn    Zn3+2 0.488090 0.218550 0.562930 1.019372
Zn4   Zn    Zn3+2 0.511910 0.781450 0.437070 1.025842
Zn5   Zn    Zn3+2 0.011910 0.718550 0.437070 1.016009
Zn6   Zn    Zn3+2 0.988090 0.281450 0.562930 1.028922
Zn7   Zn    Zn3+2 0.988090 0.718550 0.562930 1.019370
Zn8   Zn    Zn3+2 0.011910 0.281450 0.437070 1.025871
Zn9   Zn    Zn3+2 0.425160 0.718520 0.437070 1.012360
Zn10  Zn    Zn3+2 0.425160 0.281480 0.437070 1.028208
Zn11  Zn    Zn3+2 0.574840 0.718520 0.562930 1.027987
Zn12  Zn    Zn3+2 0.074840 0.781480 0.562930 1.012374
Zn13  Zn    Zn3+2 0.925160 0.218520 0.437070 1.012491
Zn14  Zn    Zn3+2 0.925160 0.781480 0.437070 1.028245
Zn15  Zn    Zn3+2 0.074840 0.218520 0.562930 1.027968
Zn16  Zn    Zn3+2 0.511910 0.218550 0.437070 1.015948

loop_
_geom_bond_atom_site_label_1
_geom_bond_atom_site_label_2
_ccdc_geom_bond_type
C61   C70   A    
C47   C136  S    
O46   Zn3   S    
C3    O18   A    
C74   C83   A    
H27   O78   S    
C110  C118  A    
C12   C23   S    
C87   O5    A    
C15   O48   A    
C62   C142  A    
C112  C124  A    
C138  C143  T    
O7    Zn9   S    
C59   H63   S    
C88   S8    S    
C37   C42   T    
C43   C133  S    
C152  O17   A    
O75   S15   S    
C113  C122  A    
C111  C125  A    
O19   Zn5   S    
C133  O8    A    
C91   C100  A    
C8    O32   A    
C61   C105  A    
C117  C126  A    
C10   O43   A    
O43   Zn1   S    
C119  C128  A    
C98   C109  T    
O18   Zn4   S    
C53   H42   S    
O100  S8    D    
C68   H6    S    
C78   C127  S    
C90   N2    S    
O50   S1    D    
C12   O37   A    
C63   H2    S    
C59   H65   S    
C11   O36   A    
C89   N1    S    
C151  O16   A    
C51   C131  S    
C9    O33   A    
C82   C91   A    
O90   Zn7   S    
C134  O9    A    
C107  H10   S    
C55   H51   S    
C100  H23   S    
C148  C149  T    
C6    C116  S    
C81   C90   A    
O42   Zn11  S    
O76   S16   D    
C146  C147  T    
C68   C77   A    
C57   C104  A    
C70   C79   A    
O61   S11   D    
O22   Zn8   S    
O39   Zn7   S    
C140  C145  T    
C46   C103  A    
C106  C115  A    
O1    Zn10  S    
C56   H57   S    
C77   C124  S    
C56   H55   S    
C45   C50   T    
O59   S10   S    
C56   N5    S    
C52   H37   S    
C54   N3    S    
C86   C95   A    
O82   S2    S    
C4    O30   A    
C89   C97   A    
C5    O31   A    
O23   Zn10  S    
C11   C18   S    
C123  C132  A    
C35   S12   S    
C1    O68   A    
H53   N5    S    
C87   C140  S    
C35   C102  A    
C59   N7    S    
C60   H69   S    
C113  H16   S    
C151  O27   A    
C58   H59   S    
O78   S16   S    
H30   O88   S    
C50   C120  S    
C33   C42   S    
C82   S3    S    
C114  C126  A    
C75   C84   A    
C66   C74   A    
C16   O49   A    
C86   S7    S    
C111  C119  A    
C24   C101  A    
O58   S10   D    
C106  H9    S    
C81   S2    S    
C29   C38   S    
C32   C41   S    
C83   S4    S    
C62   H72   S    
C84   C93   A    
O95   S6    S    
H31   O92   S    
C73   C132  S    
C77   C85   A    
C5    O20   A    
O73   S15   D    
O32   Zn16  S    
O68   Zn16  S    
O60   S11   D    
C44   C134  S    
C97   C142  A    
C45   C135  S    
C8    C19   S    
O15   Zn16  S    
C38   C41   T    
C76   O4    A    
C65   O79   A    
C102  H45   S    
O12   Zn14  S    
C46   S13   S    
C3    O25   A    
C112  H15   S    
C54   H47   S    
C61   S15   S    
C6    O21   A    
O35   Zn8   S    
O48   Zn12  S    
C52   H39   S    
H18   O52   S    
C104  H67   S    
C46   C68   A    
C58   N6    S    
C35   C67   A    
C24   S11   S    
O56   S10   D    
O77   S16   D    
C136  O14   A    
C67   H5    S    
C19   C28   T    
H66   N8    S    
C3    C119  S    
C114  C123  A    
C2    C99   A    
C116  C125  A    
C7    O22   A    
O35   Zn15  S    
C67   C75   A    
O4    Zn5   S    
C90   C99   A    
C1    C137  S    
C2    C63   A    
C94   N6    S    
O29   Zn15  S    
C76   C139  S    
C10   O34   A    
C136  O11   A    
C108  C117  A    
C36   C39   T    
O45   Zn14  S    
O24   Zn5   S    
O51   S1    D    
C13   S10   S    
O66   S13   D    
O64   S12   D    
C112  C121  A    
C66   H4    S    
C28   C37   S    
O1    Zn1   S    
C69   H7    S    
C62   C71   A    
C7    O29   A    
C70   H8    S    
O24   Zn14  S    
C107  C116  A    
C108  C132  A    
C56   H54   S    
C118  C127  A    
O6    Zn1   S    
C12   O45   A    
O97   S7    D    
C25   C33   T    
C14   O47   A    
C114  H17   S    
C96   C105  A    
C88   C96   A    
O84   S3    D    
O55   S9    S    
H49   N4    S    
C120  C131  T    
C53   H41   S    
C134  O7    A    
O49   Zn13  S    
C64   H3    S    
O67   S13   D    
O35   Zn6   S    
O92   S5    S    
O86   S4    D    
C95   N7    S    
H19   O55   S    
C60   H68   S    
C110  H13   S    
H62   N7    S    
O11   Zn13  S    
O80   S2    D    
C31   C40   S    
C6    O28   A    
C80   C89   A    
O14   Zn15  S    
O35   Zn13  S    
O20   Zn6   S    
O38   Zn6   S    
C97   H1    S    
O98   S7    S    
O53   S9    D    
C72   C81   A    
C24   C66   A    
H44   N3    S    
O72   S14   S    
O13   Zn2   S    
O24   Zn7   S    
O81   S2    D    
C79   C88   A    
C16   O40   A    
O9    Zn11  S    
O87   S4    D    
O26   Zn1   S    
C108  H11   S    
C142  S1    S    
C59   H64   S    
C47   C51   T    
O44   Zn9   S    
O1    Zn3   S    
O28   Zn14  S    
H25   O72   S    
C75   C125  S    
C135  O12   A    
C53   N2    S    
C71   C129  S    
C9    C20   S    
H58   N6    S    
C52   H38   S    
O54   S9    D    
C141  C146  S    
C113  C127  A    
C65   C138  S    
C94   C103  A    
C53   H43   S    
O71   S14   D    
O2    Zn8   S    
O83   S3    D    
C73   C82   A    
C65   O57   A    
C137  C141  T    
C84   S5    S    
C16   C22   S    
C115  C124  A    
C91   N3    S    
C60   N8    S    
C4    O19   A    
C121  C129  A    
C60   H70   S    
C93   C102  A    
C152  O23   A    
O5    Zn6   S    
C14   O38   A    
C58   H60   S    
C27   C36   S    
C21   C30   T    
H32   O95   S    
C23   C32   T    
H26   O75   S    
C1    O46   A    
O24   Zn12  S    
C105  H71   S    
C122  C151  S    
C13   C64   A    
H29   O85   S    
C55   H52   S    
O13   Zn9   S    
C110  C130  A    
C14   C25   S    
O94   S6    D    
C57   S14   S    
C58   H61   S    
C63   C72   A    
C92   N4    S    
O13   Zn4   S    
C145  C149  S    
C44   C49   T    
C80   S16   S    
C106  C129  A    
C144  C148  S    
C143  C147  S    
C83   C92   A    
C87   O2    A    
C76   O90   A    
C72   C128  S    
C34   C40   T    
C17   C26   T    
C135  O10   A    
C107  C128  A    
O10   Zn12  S    
O99   S8    D    
C10   C17   S    
C54   H48   S    
H24   O69   S    
C7    C115  S    
O16   Zn2   S    
O93   S6    D    
C26   C34   S    
C30   C39   S    
O31   Zn13  S    
O47   Zn15  S    
C43   C48   T    
O25   Zn11  S    
C78   C86   A    
C85   C94   A    
H40   N2    S    
O37   Zn5   S    
O88   S4    S    
C4    C118  S    
C69   C78   A    
O63   S12   D    
O79   Zn2   S    
C15   O39   A    
C71   C80   A    
C8    O41   A    
C20   C29   T    
C150  O15   A    
C11   O44   A    
C22   C31   T    
O8    Zn10  S    
C9    O42   A    
C103  H56   S    
H36   N1    S    
O40   Zn8   S    
C55   H50   S    
O13   Zn11  S    
C5    C117  S    
C55   N4    S    
O41   Zn10  S    
O69   S13   S    
C139  C144  T    
C52   N1    S    
O89   S5    D    
C121  C152  S    
C64   C73   A    
O17   Zn3   S    
C111  H14   S    
O52   S1    S    
C92   C101  A    
C79   C126  S    
O91   S5    D    
O30   Zn12  S    
C74   C130  S    
C133  O6    A    
C101  H34   S    
O57   Zn4   S    
C95   C104  A    
C2    S9    S    
C49   C109  S    
C93   N5    S    
O65   S12   S    
C18   C27   T    
H33   O98   S    
O70   S14   D    
H20   O59   S    
C48   C98   S    
H21   O62   S    
C54   H46   S    
H22   O65   S    
O62   S11   S    
C85   S6    S    
C13   C100  A    
C150  O26   A    
O27   Zn9   S    
H28   O82   S    
O34   Zn3   S    
O85   S3    S    
O1    Zn16  S    
C96   N8    S    
C123  C150  S    
O96   S7    D    
C99   H12   S    
O74   S15   D    
C15   C21   S    
O36   Zn4   S    
O3    S8    S    
C57   C69   A    
O21   Zn7   S    
O33   Zn2   S    
C122  C130  A    
H35   O3    S    
