data_mof_unit_36444.cif
_audit_creation_date              2012-12-10T17:54:28-0500
_audit_creation_method            fapswitch 2.2
_symmetry_space_group_name_H-M    P1
_symmetry_Int_Tables_number       1
_space_group_crystal_system       triclinic
_cell_length_a                    26.946287
_cell_length_b                    10.613546
_cell_length_c                    9.959619
_cell_angle_alpha                 90.233634
_cell_angle_beta                  87.874161
_cell_angle_gamma                 92.643454
_cell_volume                      2843.41044818

loop_
_atom_site_label
_atom_site_type_symbol
_atom_type_description
_atom_site_fract_x
_atom_site_fract_y
_atom_site_fract_z
_atom_type_partial_charge
C1    C     C_R   0.501085 0.260880 0.499726 0.883722
C2    C     C_R   0.981091 0.744692 0.378287 0.047258
C3    C     C_R   0.975295 0.751981 0.626176 0.046138
C4    C     C_R   0.405757 0.504001 0.502175 0.921901
C5    C     C_R   0.952215 0.742683 0.500526 0.070848
C6    C     C_R   0.956367 0.728941 0.256092 -0.215166
C7    C     C_R   0.905194 0.706986 0.254858 -0.137155
C8    C     C_R   0.876695 0.702498 0.374966 -0.018281
C9    C     C_R   0.899807 0.725467 0.497557 -0.052897
C10   C     C_R   0.870626 0.726251 0.617692 -0.018753
C11   C     C_R   0.819303 0.699204 0.613460 0.499771
C12   C     C_R   0.270094 0.520482 0.428381 -0.219254
C13   C     C_R   0.825699 0.670046 0.375872 0.506041
C14   C     C_R   0.729735 0.521218 0.575425 -0.090043
C15   C     C_R   0.679883 0.479646 0.575870 -0.226913
C16   C     C_R   0.501095 0.739311 0.500064 0.843878
C17   C     C_R   0.664522 0.638120 0.409276 -0.221539
C18   C     C_R   0.713778 0.682410 0.412376 -0.094933
C19   C     C_R   0.746851 0.623753 0.494609 0.287686
C20   C     C_R   0.033644 0.753874 0.382498 0.046332
C21   C     C_R   0.056377 0.742972 0.507915 0.071693
C22   C     C_R   0.027551 0.743167 0.630198 0.047233
C23   C     C_R   0.257262 0.622950 0.510358 0.260798
C24   C     C_R   0.064500 0.767167 0.264978 -0.216930
C25   C     C_R   0.102163 0.704401 0.752748 -0.138693
C26   C     C_R   0.944845 0.763357 0.743927 -0.217398
C27   C     C_R   0.893383 0.750930 0.739452 -0.134363
C28   C     C_R   0.594386 0.503747 0.497644 0.818402
C29   C     C_R   0.051743 0.726108 0.752035 -0.215112
C30   C     C_R   0.586152 0.141535 0.605156 -0.180384
C31   C     C_R   0.626175 0.080562 0.655968 -0.129470
C32   C     C_R   0.626178 0.949428 0.655835 -0.123698
C33   C     C_R   0.586108 0.878863 0.605160 -0.198773
C34   C     C_R   0.108176 0.725909 0.510440 -0.052674
C35   C     C_R   0.545015 0.939315 0.554341 0.094425
C36   C     C_R   0.545062 0.071345 0.554108 0.094154
C37   C     C_R   0.504296 0.128863 0.498986 -0.083133
C38   C     C_R   0.465364 0.060015 0.441594 -0.217614
C39   C     C_R   0.465240 0.931266 0.442211 -0.207146
C40   C     C_R   0.187659 0.700860 0.393703 0.510305
C41   C     C_R   0.504135 0.871992 0.499917 -0.089225
C42   C     C_R   0.445318 0.313227 0.149790 -0.094320
C43   C     C_R   0.428064 0.203522 0.089083 -0.267219
C44   C     C_R   0.429015 0.196493 0.951254 -0.284238
C45   C     C_R   0.137361 0.728288 0.390243 -0.025379
C46   C     C_R   0.441987 0.304962 0.874618 0.522234
C47   C     C_R   0.472210 0.405518 0.931890 0.056441
C48   C     C_R   0.472864 0.407166 0.076269 0.104430
C49   C     C_R   0.526156 0.588730 0.068809 -0.091784
C50   C     C_R   0.526181 0.588691 0.926130 -0.101152
C51   C     C_R   0.180335 0.668967 0.630757 0.506195
C52   C     C_R   0.292856 0.681363 0.591452 -0.091393
C53   C     C_R   0.340559 0.637523 0.591752 -0.335278
C54   C     C_R   0.318802 0.478261 0.424555 0.410118
C55   C     C_3   0.370329 0.291212 0.749546 0.063917
C56   C     C_R   0.115505 0.754736 0.269082 -0.136185
C57   C     C_3   0.357169 0.196276 0.639171 -0.357603
C58   C     C_3   0.301030 0.174820 0.629714 -0.897518
C59   C     C_R   0.130496 0.701436 0.632505 -0.020456
C60   C     C_R   0.353860 0.537178 0.507894 -0.093801
C61   C     C_R   0.647339 0.537313 0.491638 -0.023754
H1    H     H_    0.283610 0.761371 0.653826 0.167828
H2    H     H_    0.657469 0.135271 0.694417 0.140421
H3    H     H_    0.242165 0.474552 0.367192 0.151277
H4    H     H_    0.657480 0.902214 0.694083 0.159739
H5    H     H_    0.588029 0.777340 0.604596 0.146182
H6    H     H_    0.434372 0.877451 0.399773 0.157718
H7    H     H_    0.547685 0.661405 0.120135 0.143744
H8    H     H_    0.436004 0.321571 0.253918 0.227979
H9    H     H_    0.410711 0.127361 0.148652 0.179817
H10   H     H_    0.412164 0.113498 0.904548 0.167388
H11   H     H_    0.547699 0.661281 0.870932 0.148223
H12   H     H_    0.118610 0.687082 0.848207 0.187105
H13   H     H_    0.137463 0.761538 0.175813 0.190732
H14   H     H_    0.666783 0.402738 0.641077 0.141583
H15   H     H_    0.755024 0.474332 0.638511 0.154958
H16   H     H_    0.888191 0.690775 0.159027 0.187097
H17   H     H_    0.975763 0.725764 0.159650 0.135300
H18   H     H_    0.050244 0.786826 0.167921 0.137556
H19   H     H_    0.367741 0.685046 0.654195 0.178485
H20   H     H_    0.303577 0.349013 0.291478 0.338476
H21   H     H_    0.353275 0.381772 0.728618 0.175011
H22   H     H_    0.352443 0.258653 0.846703 0.131402
H23   H     H_    0.959753 0.781549 0.841436 0.137424
H24   H     H_    0.372961 0.231657 0.541073 0.240693
H25   H     H_    0.373876 0.104998 0.660517 0.218381
H26   H     H_    0.284667 0.135336 0.725429 0.261942
H27   H     H_    0.292901 0.106940 0.547406 0.267639
H28   H     H_    0.283558 0.264892 0.607876 0.272979
H29   H     H_    0.639315 0.685744 0.346405 0.152250
H30   H     H_    0.871619 0.756380 0.832808 0.191584
H31   H     H_    0.726220 0.762668 0.351153 0.160645
H32   H     H_    0.032239 0.721724 0.848441 0.135566
H33   H     H_    0.434574 0.106200 0.398841 0.139292
H34   H     H_    0.588123 0.243404 0.604555 0.137941
N1    N     N_R   0.207608 0.666733 0.511946 -0.343495
N2    N     N_R   0.798188 0.666748 0.494445 -0.352988
N3    N     N_R   0.499540 0.498800 0.142780 -0.110289
N4    N     N_R   0.499520 0.498720 0.857170 -0.105573
O1    O     O_R   0.500000 0.316780 0.614690 -0.562625
O2    O     O_R   0.571250 0.499990 0.614680 -0.622950
O3    O     O_R   0.571240 0.499970 0.385350 -0.604056
O4    O     O_2   0.216274 0.706527 0.279539 -0.555512
O5    O     O_3   0.332671 0.379803 0.342408 -0.796701
O6    O     O_3   0.422975 0.312208 0.748726 -0.597408
O7    O     O_2   0.804139 0.638246 0.259550 -0.557435
O8    O     O_2   0.200876 0.636081 0.746359 -0.562243
O9    O     O_2   0.790801 0.703755 0.727572 -0.561468
O10   O     O_R   0.500000 0.316750 0.385360 -0.642307
O11   O     O_R   0.428760 0.500030 0.614650 -0.572982
O12   O     O_R   0.428750 0.500010 0.385320 -0.602187
O13   O     O_R   0.500000 0.683250 0.614640 -0.624935
O14   O     O_R   0.500000 0.683220 0.385310 -0.617163
Zn1   Zn    Zn3+2 0.500000 0.500020 0.653130 0.976578
Zn2   Zn    Zn3+2 0.500000 0.499980 0.346870 0.957090

loop_
_geom_bond_atom_site_label_1
_geom_bond_atom_site_label_2
_ccdc_geom_bond_type
C10   C27   A    
C15   H14   S    
C8    C13   A    
C49   H7    S    
C35   C36   A    
C16   O14   A    
N4    Zn1   S    
O13   Zn1   S    
C19   N2    S    
C7    C8    A    
C39   C41   A    
C54   C60   A    
C57   H25   S    
C12   C23   A    
C50   N4    A    
C30   H34   S    
C55   O6    S    
C54   O5    S    
C36   C37   A    
C22   C29   A    
C30   C31   A    
C12   H3    S    
C31   C32   A    
C6    H17   S    
C46   O6    S    
C47   N4    A    
C23   N1    S    
C44   H10   S    
C18   C19   A    
C50   H11   S    
O3    Zn2   S    
C1    O10   A    
C49   N3    A    
C28   O2    A    
C20   C24   A    
C45   C56   A    
C8    C9    A    
C27   H30   S    
C9    C10   A    
O11   Zn1   S    
C1    C37   S    
C51   N1    A    
C7    H16   S    
C17   C61   A    
C28   C61   S    
C21   C22   A    
C58   H26   S    
O2    Zn1   S    
C4    C60   S    
C2    C6    A    
C40   N1    A    
C1    O1    A    
C53   C60   A    
C44   C46   A    
C33   H5    S    
C57   C58   S    
C25   C29   A    
C40   C45   A    
C56   H13   S    
C2    C20   A    
C31   H2    S    
C53   H19   S    
O1    Zn1   S    
C21   C34   A    
C42   H8    S    
C14   H15   S    
C23   C52   A    
C43   C44   A    
C5    C9    A    
C37   C38   A    
C24   H18   S    
C47   C48   A    
C38   H33   S    
C17   C18   A    
C15   C61   A    
C34   C45   A    
C42   C48   A    
C55   H21   S    
C4    O12   A    
C43   H9    S    
C55   C57   S    
C26   C27   A    
C34   C59   A    
C2    C5    A    
C51   C59   A    
C42   C43   A    
C55   H22   S    
C52   C53   A    
C16   O13   A    
C4    O11   A    
C46   C47   A    
C26   H23   S    
C39   H6    S    
C14   C19   A    
C3    C26   A    
C17   H29   S    
C13   O7    S    
C3    C5    A    
C58   H27   S    
C6    C7    A    
C24   C56   A    
C48   N3    A    
C30   C36   A    
C11   N2    A    
C18   H31   S    
C32   C33   A    
C52   H1    S    
C40   O4    S    
C29   H32   S    
N3    Zn2   S    
C38   C39   A    
C33   C35   A    
C57   H24   S    
C25   H12   S    
C13   N2    A    
C35   C41   A    
C58   H28   S    
C10   C11   A    
O10   Zn2   S    
C28   O3    A    
C20   C21   A    
C51   O8    S    
C49   C50   A    
C11   O9    S    
C14   C15   A    
C3    C22   A    
O12   Zn2   S    
C25   C59   A    
C16   C41   S    
C12   C54   A    
C32   H4    S    
O14   Zn2   S    
H20   O5    S    
