data_mof_unit_57502.cif
_audit_creation_date              2013-03-05T15:50:11-0500
_audit_creation_method            fapswitch 2.2
_symmetry_space_group_name_H-M    P1
_symmetry_Int_Tables_number       1
_space_group_crystal_system       triclinic
_cell_length_a                    20.011487
_cell_length_b                    6.876629
_cell_length_c                    18.146648
_cell_angle_alpha                 90.078475
_cell_angle_beta                  104.111554
_cell_angle_gamma                 90.004015
_cell_volume                      2421.82828167

loop_
_atom_site_label
_atom_site_type_symbol
_atom_site_description
_atom_site_fract_x
_atom_site_fract_y
_atom_site_fract_z
_atom_type_partial_charge
O1    O     O_R   0.312200 0.620210 0.189560 -0.596962
O2    O     O_R   0.687800 0.379790 0.810440 -0.589815
O3    O     O_R   0.187800 0.120210 0.310440 -0.593063
O4    O     O_R   0.812200 0.879790 0.689560 -0.596106
O5    O     O_R   0.171590 0.286140 0.165000 -0.594218
O6    O     O_R   0.828410 0.713860 0.835000 -0.596547
O7    O     O_R   0.328410 0.786140 0.335000 -0.595653
O8    O     O_R   0.671590 0.213860 0.665000 -0.594103
C1    C     C_R   0.145649 0.459449 0.143800 1.005963
C2    C     C_R   0.854354 0.540563 0.856191 1.005586
C3    C     C_R   0.354315 0.959600 0.356218 1.004822
C4    C     C_R   0.645649 0.040400 0.643832 1.008238
O9    O     O_R   0.310670 0.290220 0.180540 -0.558960
O10   O     O_R   0.689330 0.709780 0.819460 -0.558944
O11   O     O_R   0.189330 0.790220 0.319460 -0.558114
O12   O     O_R   0.810670 0.209780 0.680540 -0.547263
O13   O     O_R   0.327870 0.124170 0.326080 -0.568929
O14   O     O_R   0.672130 0.875830 0.673920 -0.574339
O15   O     O_R   0.172130 0.624170 0.173920 -0.569676
O16   O     O_R   0.827870 0.375830 0.826080 -0.574730
C5    C     C_R   0.332794 0.459001 0.165991 1.009890
C6    C     C_R   0.666678 0.541545 0.833421 1.006263
C7    C     C_R   0.167042 0.958961 0.333760 1.011298
C8    C     C_R   0.833560 0.041319 0.666994 0.989106
O17   O     O_3   0.255480 0.455050 0.297740 -0.264408
O18   O     O_3   0.744520 0.544950 0.702260 -0.261638
O19   O     O_3   0.244520 0.955050 0.202260 -0.267454
O20   O     O_3   0.755480 0.044950 0.797740 -0.263701
V1    V     V_3+5 0.248980 0.178550 0.241140 1.271045
V2    V     V_3+5 0.751020 0.821450 0.758860 1.259599
V3    V     V_3+5 0.251020 0.678550 0.258860 1.270529
V4    V     V_3+5 0.748980 0.321450 0.741140 1.267856
C9    C     C_R   0.941940 0.157156 0.632560 0.433299
C10   C     C_R   0.060165 0.838868 0.370549 0.395262
C11   C     C_R   0.561708 0.669562 0.872152 0.385739
C12   C     C_R   0.440762 0.343353 0.129861 0.367697
C13   C     C_R   0.884060 0.032917 0.619201 -0.328869
C14   C     C_R   0.116346 0.968709 0.381326 -0.325154
C15   C     C_R   0.616596 0.535085 0.881929 -0.334294
C16   C     C_R   0.383619 0.469885 0.118577 -0.324901
C17   C     C_R   0.874389 0.895987 0.560870 -0.114301
C18   C     C_R   0.125471 0.108611 0.438659 -0.073751
C19   C     C_R   0.625365 0.396491 0.939535 -0.112988
C20   C     C_R   0.374714 0.611593 0.061840 -0.074202
C21   C     C_R   0.920823 0.878903 0.514303 -0.057775
C22   C     C_R   0.079955 0.123782 0.486456 0.001903
C23   C     C_R   0.582897 0.394037 0.990808 -0.060773
C24   C     C_R   0.420978 0.630028 0.014895 0.011170
C25   C     C_R   0.976667 0.010942 0.523794 -0.046267
C26   C     C_R   0.022508 0.997505 0.475248 -0.033679
C27   C     C_R   0.526016 0.523027 0.979811 -0.035020
C28   C     C_R   0.479528 0.508407 0.027475 -0.033320
C29   C     C_R   0.988254 0.150298 0.583877 -0.159189
C30   C     C_R   0.011477 0.856065 0.416088 -0.191667
C31   C     C_R   0.514437 0.661242 0.919698 -0.155814
C32   C     C_R   0.491265 0.370441 0.087423 -0.214941
C33   C     C_R   0.911536 0.732924 0.457803 0.152054
C34   C     C_R   0.092464 0.259062 0.546778 0.174385
C35   C     C_R   0.596930 0.266600 0.053663 0.179781
C36   C     C_R   0.408097 0.763232 0.954024 0.170137
C37   C     C_R   0.952360 0.734760 0.404580 0.415291
C38   C     C_R   0.046414 0.275536 0.594261 0.399131
C39   C     C_R   0.554700 0.268020 0.105082 0.469486
C40   C     C_R   0.454975 0.782290 0.907286 0.378844
H1    H     H_    0.828818 0.805464 0.551105 0.178380
H2    H     H_    0.170237 0.201761 0.446890 0.177550
H3    H     H_    0.667238 0.293722 0.945132 0.190596
H4    H     H_    0.329652 0.703607 0.053354 0.177271
C41   C     C_1   0.583139 0.027285 0.581642 -0.254370
C42   C     C_1   0.416818 0.972706 0.418423 -0.239010
C43   C     C_1   0.916867 0.527709 0.918387 -0.259650
C44   C     C_1   0.083132 0.472372 0.081596 -0.239439
C45   C     C_1   0.530824 0.010794 0.530231 0.088004
C46   C     C_1   0.469132 0.989202 0.469835 0.085913
C47   C     C_1   0.969163 0.511064 0.969799 0.087390
C48   C     C_1   0.030829 0.489095 0.030192 0.087210
N1    N     N_R   0.955427 0.279464 0.698561 0.237583
O21   O     O_R   0.921891 0.441710 0.697965 -0.404582
O22   O     O_R   0.994364 0.216016 0.762134 -0.416367
N2    N     N_R   0.054432 0.686810 0.315086 0.243935
O23   O     O_R   0.045647 0.729598 0.243531 -0.453314
O24   O     O_R   0.066444 0.507457 0.337095 -0.351814
N3    N     N_R   0.553622 0.810041 0.812405 0.244140
O25   O     O_R   0.585877 0.975528 0.825412 -0.421337
O26   O     O_R   0.525785 0.758156 0.742716 -0.400300
N4    N     N_R   0.446494 0.185098 0.182676 0.244627
O27   O     O_R   0.448862 0.218426 0.253871 -0.449782
O28   O     O_R   0.449306 0.006859 0.159457 -0.361799
N5    N     N_R   0.864184 0.574218 0.457444 0.245587
O29   O     O_R   0.864851 0.482839 0.520348 -0.418239
O30   O     O_R   0.828871 0.499656 0.393999 -0.401338
N6    N     N_R   0.153566 0.377303 0.562413 0.235324
O31   O     O_R   0.161722 0.508953 0.513879 -0.412092
O32   O     O_R   0.196263 0.371627 0.629125 -0.364081
N7    N     N_R   0.656925 0.144106 0.069587 0.249737
O33   O     O_R   0.718065 0.220477 0.080580 -0.443598
O34   O     O_R   0.651124 0.960930 0.084834 -0.372889
N8    N     N_R   0.343956 0.867026 0.934603 0.232734
O35   O     O_R   0.331626 0.005235 0.978551 -0.413868
O36   O     O_R   0.299322 0.830062 0.870968 -0.373146
O37   O     O_3   0.934706 0.612177 0.342392 -0.582598
C49   C     C_3   0.891619 0.715761 0.281673 0.286222
H5    H     H_    0.920806 0.835354 0.262400 0.108959
H6    H     H_    0.846585 0.780264 0.298873 0.087226
C50   C     C_3   0.864923 0.576357 0.215338 -0.261933
H7    H     H_    0.909264 0.511813 0.197119 0.234091
H8    H     H_    0.835571 0.456652 0.234072 0.232684
C51   C     C_3   0.818078 0.680431 0.147933 -0.889874
H9    H     H_    0.772943 0.744461 0.164632 0.292108
H10   H     H_    0.799173 0.575023 0.101073 0.286520
H11   H     H_    0.846881 0.797683 0.126965 0.270660
O38   O     O_3   0.062893 0.401994 0.655543 -0.572754
C52   C     C_3   0.046917 0.595175 0.630623 0.276423
H12   H     H_    0.990565 0.619205 0.619099 0.143046
H13   H     H_    0.062942 0.630050 0.577585 0.072499
C53   C     C_3   0.084343 0.736910 0.691986 -0.300057
H14   H     H_    0.139863 0.697943 0.709657 0.255875
H15   H     H_    0.080691 0.886141 0.668250 0.161492
C54   C     C_3   0.053898 0.736534 0.761354 -0.635638
H16   H     H_    0.998845 0.780511 0.744934 0.241048
H17   H     H_    0.082412 0.841760 0.804065 0.248707
H18   H     H_    0.058359 0.589881 0.787606 0.292422
O39   O     O_3   0.579656 0.178451 0.174908 -0.585604
C55   C     C_3   0.598865 0.321161 0.232995 0.248978
H19   H     H_    0.606462 0.245754 0.288521 0.152193
H20   H     H_    0.557534 0.430393 0.231424 0.108071
C56   C     C_3   0.666346 0.425445 0.231047 -0.376848
H21   H     H_    0.709502 0.319274 0.242391 0.247597
H22   H     H_    0.662489 0.491942 0.174465 0.227415
C57   C     C_3   0.681689 0.588089 0.290050 -0.827187
H23   H     H_    0.639244 0.696483 0.278749 0.267681
H24   H     H_    0.729816 0.663669 0.286854 0.277305
H25   H     H_    0.687840 0.527896 0.348085 0.276576
O40   O     O_3   0.435124 0.887439 0.840356 -0.598821
C58   C     C_3   0.435427 0.090202 0.854093 0.254821
H26   H     H_    0.487279 0.150128 0.856070 0.142089
H27   H     H_    0.422828 0.130753 0.908523 0.100764
C59   C     C_3   0.382993 0.183901 0.788081 -0.256293
H28   H     H_    0.396298 0.146976 0.733705 0.230214
H29   H     H_    0.330861 0.124965 0.785948 0.260322
C60   C     C_3   0.381162 0.404007 0.795820 -0.831138
H30   H     H_    0.368728 0.443985 0.850230 0.262630
H31   H     H_    0.340880 0.465312 0.748317 0.306420
H32   H     H_    0.431641 0.466639 0.793348 0.267873

loop_
_geom_bond_atom_site_label_1
_geom_bond_atom_site_label_2
_geom_bond_distance
_ccdc_geom_bond_type
C34   C38   1.411172 A    
C58   C59   1.529844 S    
C4    C41   1.468965 S    
O17   V3    1.685284 S    
O37   C49   1.415589 S    
O19   V1    1.683509 S    
O13   V1    1.955272 S    
C45   C46   1.444675 S    
O3    C7    1.291561 A    
N7    O33   1.301227 A    
C17   H1    1.082291 S    
C1    C44   1.469326 S    
C44   C48   1.226011 T    
O15   V3    1.954422 S    
C3    C42   1.469021 S    
O39   C55   1.421790 S    
N1    O21   1.300739 A    
C53   H14   1.111564 S    
O1    C5    1.290900 A    
C50   H8    1.111863 S    
C21   C33   1.413391 A    
O5    C1    1.319765 A    
C26   C30   1.424372 A    
C33   N5    1.444253 S    
O9    V1    1.996794 S    
C14   C18   1.394965 A    
C36   N8    1.435767 S    
C60   H31   1.110334 S    
C11   C15   1.413743 A    
O4    C8    1.292577 A    
N4    O28   1.301210 A    
N8    O35   1.301575 A    
O1    V3    1.997694 S    
C51   H9    1.111154 S    
C49   C50   1.528586 S    
O2    V4    1.997691 S    
C18   C22   1.406341 A    
C33   C37   1.408946 A    
O3    V1    1.998347 S    
C12   C16   1.411775 A    
C10   N2    1.435382 S    
C1    O15   1.311337 A    
C2    O16   1.311382 A    
O2    C6    1.294065 A    
C24   C36   1.410541 A    
O14   V2    1.955270 S    
C21   C25   1.417217 A    
N5    O30   1.299776 A    
C16   C20   1.398116 A    
C52   C53   1.530064 S    
C2    C43   1.469155 S    
O11   C7    1.291674 A    
O12   C8    1.290908 A    
C10   C14   1.411245 A    
C22   C34   1.410629 A    
O17   V1    2.148627 S    
C35   N7    1.437384 S    
O10   V2    1.996791 S    
O38   C52   1.415147 S    
O7    C3    1.319520 A    
O5    V1    1.953055 S    
N1    O22   1.300565 A    
C9    C29   1.428563 A    
C50   C51   1.526590 S    
C40   O40   1.386703 S    
O7    V3    1.951538 S    
C11   C31   1.428503 A    
C27   C28   1.419950 A    
O8    V4    1.951541 S    
C53   C54   1.526335 S    
C58   H26   1.108837 S    
N2    O24   1.301156 A    
C60   H32   1.109050 S    
C11   N3    1.432559 S    
O18   V4    1.685285 S    
C15   C19   1.394693 A    
C12   N4    1.437116 S    
O19   V3    2.151132 S    
C9    C13   1.411613 A    
C37   O37   1.382704 S    
C57   H24   1.108270 S    
C47   C48   1.444889 S    
C56   H22   1.109936 S    
C42   C46   1.225842 T    
C12   C32   1.424458 A    
C29   C38   1.422766 A    
C39   O39   1.388498 S    
N3    O25   1.300865 A    
O20   V4    2.151131 S    
O8    C4    1.319576 A    
C31   C40   1.424615 A    
N6    O32   1.301100 A    
C8    C13   1.484585 S    
C32   C39   1.418649 A    
O9    C5    1.292510 A    
C41   C45   1.225836 T    
C54   H17   1.110255 S    
C59   H29   1.110996 S    
C55   C56   1.536975 S    
O6    V2    1.953057 S    
C10   C30   1.427762 A    
N8    O36   1.300807 A    
C20   H4    1.081609 S    
C57   H25   1.110666 S    
C56   H21   1.111329 S    
C55   H20   1.112558 S    
C52   H12   1.108086 S    
O16   V4    1.954420 S    
C54   H18   1.110199 S    
C58   H27   1.112489 S    
C3    O13   1.311686 A    
N3    O26   1.300808 A    
N4    O27   1.301253 A    
C51   H10   1.110425 S    
N2    O23   1.301264 A    
C59   C60   1.521166 S    
O6    C2    1.319685 A    
C23   C27   1.418500 A    
C54   H16   1.110953 S    
N7    O34   1.301268 A    
O11   V3    1.995698 S    
O40   C58   1.415855 S    
C30   C37   1.420533 A    
O12   V4    1.995701 S    
C7    C14   1.485132 S    
C50   H7    1.111931 S    
C22   C26   1.415039 A    
C35   C39   1.403363 A    
C51   H11   1.111242 S    
C49   H6    1.114958 S    
C36   C40   1.415900 A    
O10   C6    1.290268 A    
O20   V2    1.683509 S    
C57   H23   1.111165 S    
C56   C57   1.525768 S    
C60   H30   1.109694 S    
C43   C47   1.225939 T    
C9    N1    1.433282 S    
C5    C16   1.485667 S    
C34   N6    1.437644 S    
C25   C29   1.426441 A    
C6    C15   1.487127 S    
N6    O31   1.301603 A    
C53   H15   1.108978 S    
C27   C31   1.423606 A    
C13   C17   1.393521 A    
C49   H5    1.113612 S    
C59   H28   1.111966 S    
C23   C35   1.412229 A    
C28   C32   1.420196 A    
C24   C28   1.412309 A    
C38   O38   1.385685 S    
C19   H3    1.081964 S    
C25   C26   1.421261 A    
C4    O14   1.311613 A    
C18   H2    1.081460 S    
C17   C21   1.404984 A    
N5    O29   1.301002 A    
C19   C23   1.404949 A    
O4    V2    1.998350 S    
C20   C24   1.408461 A    
C55   H19   1.110859 S    
C52   H13   1.112573 S    
O18   V2    2.148627 S    
