data_mof_unit_46554.cif
_audit_creation_date              2012-12-11T19:51:28-0500
_audit_creation_method            fapswitch 2.2
_symmetry_space_group_name_H-M    P1
_symmetry_Int_Tables_number       1
_space_group_crystal_system       triclinic
_cell_length_a                    16.744885
_cell_length_b                    27.873877
_cell_length_c                    8.382651
_cell_angle_alpha                 90.000133
_cell_angle_beta                  104.430517
_cell_angle_gamma                 89.999805
_cell_volume                      3789.12027659

loop_
_atom_site_label
_atom_site_type_symbol
_atom_type_description
_atom_site_fract_x
_atom_site_fract_y
_atom_site_fract_z
_atom_type_partial_charge
Ba1   Ba    Ba6+2 0.000400 0.534870 0.845190 1.626512
Ba2   Ba    Ba6+2 0.000400 0.465130 0.345190 1.629263
Ba3   Ba    Ba6+2 0.500400 0.034870 0.845190 1.629263
Ba4   Ba    Ba6+2 0.500400 0.965130 0.345190 1.626513
C1    C     C_3   0.937172 0.758944 0.538075 -0.232356
C2    C     C_3   0.955415 0.231365 0.108840 -0.240535
C3    C     C_3   0.455414 0.268635 0.608838 -0.240540
C4    C     C_3   0.437171 0.741056 0.038077 -0.232354
C5    C     C_R   0.140733 0.616151 0.406800 -0.286753
C6    C     C_R   0.132583 0.381993 0.893124 -0.275450
C7    C     C_R   0.632583 0.118007 0.393125 -0.275452
C8    C     C_R   0.640733 0.883849 0.906798 -0.286746
C9    C     C_2   0.753364 0.358123 0.914443 -0.138026
C10   C     C_2   0.753369 0.642208 0.416067 -0.136543
C11   C     C_2   0.253368 0.857793 0.916064 -0.136542
C12   C     C_2   0.253363 0.141877 0.414443 -0.138027
C13   C     C_2   0.817345 0.389853 0.911741 0.067984
C14   C     C_2   0.816380 0.609956 0.410462 0.062855
C15   C     C_2   0.316381 0.890044 0.910462 0.062855
C16   C     C_2   0.317345 0.110146 0.411741 0.067982
C17   C     C_2   0.842582 0.346454 0.674686 -0.018584
C18   C     C_2   0.840191 0.652836 0.170719 -0.020875
C19   C     C_2   0.340192 0.847164 0.670718 -0.020882
C20   C     C_2   0.342582 0.153545 0.174687 -0.018585
C21   C     C_3   0.767592 0.319334 0.665497 -0.029817
C22   C     C_3   0.764584 0.679316 0.162242 -0.026726
C23   C     C_3   0.264584 0.820684 0.662239 -0.026726
C24   C     C_3   0.267592 0.180666 0.165498 -0.029820
C25   C     C_3   0.747280 0.314227 0.825015 -0.000616
C26   C     C_3   0.745679 0.685525 0.322988 -0.013395
C27   C     C_3   0.245678 0.814476 0.822984 -0.013394
C28   C     C_3   0.247279 0.185773 0.325015 -0.000611
C29   C     C_2   0.769134 0.270512 0.588927 -0.088296
C30   C     C_2   0.755738 0.725036 0.060183 -0.096112
C31   C     C_2   0.255737 0.774965 0.560181 -0.096122
C32   C     C_2   0.269134 0.229488 0.088930 -0.088291
C33   C     C_2   0.240755 0.731371 0.615699 -0.092685
C34   C     C_2   0.201407 0.256434 0.045714 -0.094384
C35   C     C_2   0.701407 0.243566 0.545718 -0.094390
C36   C     C_2   0.740758 0.768630 0.115702 -0.092682
C37   C     C_R   0.266081 0.681906 0.374760 -0.032925
C38   C     C_R   0.253372 0.313812 0.855219 -0.019438
C39   C     C_R   0.753370 0.186188 0.355219 -0.019442
C40   C     C_R   0.766085 0.818095 0.874765 -0.032924
C41   C     C_R   0.223034 0.689169 0.506049 -0.030551
C42   C     C_R   0.202996 0.304408 0.972963 -0.035442
C43   C     C_R   0.702995 0.195592 0.472965 -0.035440
C44   C     C_R   0.723036 0.810832 0.006052 -0.030552
C45   C     C_3   0.991797 0.722400 0.172636 0.375627
C46   C     C_3   0.996410 0.276669 0.663421 0.378944
C47   C     C_3   0.496412 0.223330 0.163419 0.378947
C48   C     C_3   0.491787 0.777596 0.672639 0.375606
C49   C     C_R   0.246823 0.639526 0.266986 -0.128335
C50   C     C_R   0.241349 0.358656 0.759600 -0.127054
C51   C     C_R   0.741348 0.141344 0.259600 -0.127056
C52   C     C_R   0.746825 0.860475 0.766990 -0.128343
C53   C     C_R   0.187790 0.608574 0.281375 0.077915
C54   C     C_R   0.183428 0.390355 0.774648 0.080136
C55   C     C_R   0.683427 0.109645 0.274649 0.080136
C56   C     C_R   0.687791 0.891426 0.781376 0.077915
C57   C     C_R   0.160542 0.653227 0.522124 -0.000982
C58   C     C_R   0.145724 0.342122 0.997143 -0.017047
C59   C     C_R   0.645723 0.157878 0.497144 -0.017046
C60   C     C_R   0.660543 0.846773 0.022124 -0.000978
C61   C     C_3   0.050667 0.765426 0.185970 -0.051138
C62   C     C_3   0.036143 0.226647 0.672864 -0.034290
C63   C     C_3   0.536149 0.273350 0.172861 -0.034291
C64   C     C_3   0.550670 0.734574 0.685974 -0.051137
C65   C     C_3   0.760461 0.526953 0.066617 0.324697
C66   C     C_3   0.761664 0.472407 0.564483 0.324400
C67   C     C_3   0.261663 0.027592 0.064487 0.324398
C68   C     C_3   0.260462 0.973047 0.566618 0.324693
C69   C     C_3   0.681299 0.556618 0.037851 -0.231882
C70   C     C_3   0.683020 0.442216 0.534936 -0.232668
C71   C     C_3   0.183019 0.057784 0.034936 -0.232671
C72   C     C_3   0.181300 0.943382 0.537851 -0.231883
C73   C     C_3   0.233267 0.469162 0.132003 0.317006
C74   C     C_3   0.239103 0.529153 0.633510 0.317638
C75   C     C_3   0.739103 0.970847 0.133511 0.317638
C76   C     C_3   0.733266 0.030838 0.632003 0.317007
C77   C     C_3   0.309011 0.436974 0.162610 -0.395120
C78   C     C_3   0.317082 0.559545 0.669062 -0.398251
C79   C     C_3   0.817083 0.940454 0.169063 -0.398252
C80   C     C_3   0.809010 0.063026 0.662610 -0.395120
C81   C     C_3   0.972300 0.709142 0.591230 0.391130
C82   C     C_3   0.978873 0.284538 0.123403 0.367185
C83   C     C_3   0.478872 0.215462 0.623404 0.367185
C84   C     C_3   0.472301 0.790858 0.091225 0.391137
C85   C     C_2   0.866947 0.380528 0.791797 -0.288623
C86   C     C_2   0.864574 0.618683 0.287546 -0.287934
C87   C     C_2   0.364575 0.881317 0.787547 -0.287930
C88   C     C_2   0.366947 0.119471 0.291797 -0.288622
H1    H     H_    0.934874 0.691490 0.666407 0.105016
H2    H     H_    0.936015 0.304332 0.181239 0.113667
H3    H     H_    0.436014 0.195668 0.681240 0.113668
H4    H     H_    0.434875 0.808511 0.166399 0.105013
H5    H     H_    0.691949 0.588639 0.118371 0.060552
H6    H     H_    0.694720 0.409642 0.612662 0.057659
H7    H     H_    0.194716 0.090356 0.112673 0.057660
H8    H     H_    0.191948 0.911362 0.618373 0.060553
H9    H     H_    0.205957 0.471744 0.997838 0.005511
H10   H     H_    0.214554 0.526154 0.498530 0.008674
H11   H     H_    0.714554 0.973845 0.998531 0.008673
H12   H     H_    0.705957 0.028256 0.497837 0.005510
H13   H     H_    0.353863 0.451347 0.096948 0.121177
H14   H     H_    0.363586 0.542831 0.612370 0.124659
H15   H     H_    0.863586 0.957168 0.112369 0.124659
H16   H     H_    0.853863 0.048652 0.596950 0.121177
H17   H     H_    0.291339 0.400129 0.117774 0.061097
H18   H     H_    0.303349 0.596077 0.617780 0.059316
H19   H     H_    0.803349 0.903922 0.117783 0.059316
H20   H     H_    0.791338 0.099871 0.617773 0.061097
H21   H     H_    0.338737 0.435217 0.296651 0.125952
H22   H     H_    0.343132 0.562516 0.804191 0.123492
H23   H     H_    0.843133 0.937484 0.304192 0.123492
H24   H     H_    0.838736 0.064783 0.796652 0.125953
H25   H     H_    0.875641 0.754971 0.450826 0.072729
H26   H     H_    0.997199 0.211826 0.047074 0.099334
H27   H     H_    0.497197 0.288173 0.547071 0.099334
H28   H     H_    0.375638 0.745028 0.950836 0.072726
H29   H     H_    0.710298 0.365823 0.988501 0.070419
H30   H     H_    0.712247 0.635517 0.495256 0.074875
H31   H     H_    0.212245 0.864485 0.995250 0.074874
H32   H     H_    0.210297 0.134177 0.488500 0.070419
H33   H     H_    0.282009 0.633242 0.177014 0.081510
H34   H     H_    0.279948 0.365597 0.676144 0.082225
H35   H     H_    0.779947 0.134403 0.176143 0.082227
H36   H     H_    0.782013 0.866759 0.677020 0.081508
H37   H     H_    0.920179 0.402921 0.793853 0.072246
H38   H     H_    0.917953 0.596402 0.289709 0.073301
H39   H     H_    0.417955 0.903597 0.789711 0.073302
H40   H     H_    0.420179 0.097079 0.293853 0.072246
H41   H     H_    0.093002 0.590728 0.414353 0.068487
H42   H     H_    0.089910 0.409593 0.909459 0.066272
H43   H     H_    0.589910 0.090407 0.409460 0.066272
H44   H     H_    0.593000 0.909272 0.914349 0.068487
H45   H     H_    0.826511 0.255269 0.576092 0.097118
H46   H     H_    0.755651 0.721303 0.931261 0.100192
H47   H     H_    0.255652 0.778698 0.431259 0.100194
H48   H     H_    0.326513 0.244732 0.076106 0.097115
H49   H     H_    0.235914 0.726937 0.741340 0.105600
H50   H     H_    0.144369 0.243173 0.068015 0.093063
H51   H     H_    0.644371 0.256827 0.568027 0.093068
H52   H     H_    0.735918 0.773065 0.241344 0.105597
H53   H     H_    0.978591 0.777971 0.474745 0.106915
H54   H     H_    0.962846 0.215906 0.233295 0.129847
H55   H     H_    0.462845 0.284095 0.733292 0.129848
H56   H     H_    0.478588 0.722028 0.974742 0.106908
H57   H     H_    0.806797 0.546460 0.016413 0.046088
H58   H     H_    0.807937 0.453594 0.512159 0.050119
H59   H     H_    0.307938 0.046406 0.012171 0.050115
H60   H     H_    0.306798 0.953540 0.516417 0.046087
O1    O     O_2   0.163830 0.569270 0.980510 -0.459406
O2    O     O_2   0.163830 0.430730 0.480510 -0.458222
O3    O     O_2   0.663830 0.069270 0.980510 -0.458221
O4    O     O_2   0.663830 0.930730 0.480510 -0.459408
O5    O     O_3   0.741711 0.517371 0.490806 -0.645797
O6    O     O_3   0.741460 0.482377 0.989614 -0.645946
O7    O     O_3   0.241460 0.017623 0.489613 -0.645947
O8    O     O_3   0.241711 0.982629 0.990804 -0.645798
O9    O     O_3   0.952292 0.711507 0.008154 -0.593285
O10   O     O_3   0.951477 0.287948 0.502446 -0.594983
O11   O     O_3   0.451476 0.212052 0.002446 -0.594982
O12   O     O_3   0.452296 0.788494 0.508154 -0.593284
O13   O     O_3   0.904940 0.476110 0.001150 -0.497043
O14   O     O_3   0.904940 0.523890 0.501150 -0.497752
O15   O     O_3   0.404940 0.976110 0.001150 -0.497751
O16   O     O_3   0.404940 0.023890 0.501150 -0.497043
O17   O     O_3   0.095420 0.524330 0.188510 -0.502130
O18   O     O_3   0.095420 0.475670 0.688510 -0.500746
O19   O     O_3   0.595420 0.024330 0.188510 -0.500746
O20   O     O_3   0.595420 0.975670 0.688510 -0.502129
O21   O     O_3   0.028940 0.612400 0.656050 -0.485421
O22   O     O_3   0.028940 0.387600 0.156050 -0.485639
O23   O     O_3   0.528940 0.112400 0.656050 -0.485639
O24   O     O_3   0.528940 0.887600 0.156050 -0.485420
O25   O     O_2   0.160571 0.652376 0.857805 -0.482730
O26   O     O_2   0.171701 0.353798 0.334562 -0.471225
O27   O     O_2   0.671700 0.146202 0.834563 -0.471226
O28   O     O_2   0.660571 0.847623 0.357805 -0.482732
O29   O     O_3   0.257472 0.514710 0.196624 -0.636441
O30   O     O_3   0.259434 0.483663 0.701827 -0.636529
O31   O     O_3   0.759435 0.016337 0.201827 -0.636529
O32   O     O_3   0.757472 0.985290 0.696624 -0.636441
O33   O     O_3   0.054754 0.713008 0.682729 -0.610948
O34   O     O_3   0.059625 0.288777 0.223005 -0.607394
O35   O     O_3   0.559624 0.211223 0.723007 -0.607395
O36   O     O_3   0.554755 0.786991 0.182724 -0.610949
O37   O     O_2   0.837400 0.570350 0.710350 -0.461987
O38   O     O_2   0.837400 0.429650 0.210350 -0.464323
O39   O     O_2   0.337400 0.070350 0.710350 -0.464320
O40   O     O_2   0.337400 0.929650 0.210350 -0.461989
O41   O     O_3   0.972820 0.612580 0.035550 -0.461872
O42   O     O_3   0.972820 0.387420 0.535550 -0.467125
O43   O     O_3   0.472820 0.112580 0.035550 -0.467125
O44   O     O_3   0.472820 0.887420 0.535550 -0.461867
O45   O     O_2   0.842486 0.652712 0.833623 -0.504246
O46   O     O_2   0.840803 0.347883 0.337638 -0.493700
O47   O     O_2   0.340802 0.152117 0.837639 -0.493701
O48   O     O_2   0.342488 0.847287 0.333622 -0.504246
P1    P     P_3+3 0.171820 0.553000 0.158080 0.981192
P2    P     P_3+3 0.171820 0.447000 0.658080 0.980050
P3    P     P_3+3 0.671820 0.053000 0.158080 0.980049
P4    P     P_3+3 0.671820 0.947000 0.658080 0.981193
P5    P     P_3+3 0.829210 0.554130 0.532500 0.968889
P6    P     P_3+3 0.829210 0.445870 0.032500 0.968523
P7    P     P_3+3 0.329210 0.054130 0.532500 0.968523
P8    P     P_3+3 0.329210 0.945870 0.032500 0.968887
P9    P     P_3+3 0.898670 0.657569 0.009777 0.950051
P10   P     P_3+3 0.899392 0.342225 0.511131 0.952510
P11   P     P_3+3 0.399391 0.157775 0.011132 0.952510
P12   P     P_3+3 0.398671 0.842431 0.509776 0.950055
P13   P     P_3+3 0.102765 0.342705 0.178425 0.959858
P14   P     P_3+3 0.103323 0.657325 0.682592 0.955011
P15   P     P_3+3 0.603323 0.842675 0.182590 0.955013
P16   P     P_3+3 0.602764 0.157295 0.678426 0.959856
H61   H     H_    0.632162 0.534970 0.071443 0.122419
H62   H     H_    0.633892 0.463082 0.571649 0.122680
H63   H     H_    0.133888 0.036917 0.071633 0.122683
H64   H     H_    0.132162 0.965031 0.571438 0.122421
C89   C     C_3   0.651811 0.573008 0.858997 -0.391527
H65   H     H_    0.592882 0.592879 0.842622 0.109991
H66   H     H_    0.698028 0.597246 0.826693 0.142930
H67   H     H_    0.641369 0.541684 0.774424 0.150643
C90   C     C_3   0.652773 0.426972 0.354935 -0.389446
H68   H     H_    0.594739 0.406173 0.338385 0.107857
H69   H     H_    0.640567 0.458884 0.273129 0.148214
H70   H     H_    0.699376 0.403858 0.318980 0.148612
C91   C     C_3   0.152779 0.073032 0.854938 -0.389452
H71   H     H_    0.199384 0.096150 0.819002 0.148615
H72   H     H_    0.140581 0.041123 0.773120 0.148217
H73   H     H_    0.094743 0.093829 0.838382 0.107858
C92   C     C_3   0.151814 0.926991 0.358998 -0.391527
H74   H     H_    0.092884 0.907121 0.342621 0.109990
H75   H     H_    0.141374 0.958314 0.274422 0.150643
H76   H     H_    0.198031 0.902752 0.326699 0.142930
H77   H     H_    0.188222 0.452809 0.193197 0.073928
H78   H     H_    0.193226 0.546969 0.689322 0.057198
H79   H     H_    0.693227 0.953031 0.189325 0.057198
H80   H     H_    0.688221 0.047190 0.693195 0.073928
H81   H     H_    0.967021 0.687662 0.477588 -0.098077
H82   H     H_    0.972719 0.299416 0.998456 -0.079093
H83   H     H_    0.472718 0.200583 0.498457 -0.079091
H84   H     H_    0.467023 0.812336 0.977579 -0.098090
C93   C     C_3   0.927963 0.789682 0.681759 -0.384340
H85   H     H_    0.896934 0.823762 0.633929 0.109155
H86   H     H_    0.890308 0.770746 0.753825 0.155268
H87   H     H_    0.989615 0.798649 0.760687 0.146787
C94   C     C_3   0.866570 0.223578 0.012114 -0.464371
H88   H     H_    0.858212 0.236746 0.884643 0.133663
H89   H     H_    0.852125 0.184663 0.006755 0.148735
H90   H     H_    0.823452 0.242471 0.072258 0.149537
C95   C     C_3   0.366569 0.276422 0.512114 -0.464370
H91   H     H_    0.358210 0.263254 0.384644 0.133662
H92   H     H_    0.323451 0.257529 0.572258 0.149538
H93   H     H_    0.352124 0.315337 0.506755 0.148736
C96   C     C_3   0.427968 0.710319 0.181769 -0.384331
H94   H     H_    0.390315 0.729255 0.253839 0.155271
H95   H     H_    0.396939 0.676238 0.133946 0.109151
H96   H     H_    0.489621 0.701353 0.260692 0.146789
H97   H     H_    0.084743 0.768795 0.317584 0.068503
H98   H     H_    0.065346 0.219321 0.804613 0.053604
H99   H     H_    0.565355 0.280675 0.304610 0.053605
H100  H     H_    0.584745 0.731206 0.817589 0.068506
H101  H     H_    0.028595 0.691315 0.234666 -0.038758
H102  H     H_    0.045200 0.303921 0.707888 -0.012979
H103  H     H_    0.545201 0.196076 0.207881 -0.012979
H104  H     H_    0.528575 0.808680 0.734697 -0.038781
H105  H     H_    0.944009 0.731503 0.237773 -0.043399
H106  H     H_    0.954946 0.275905 0.747270 -0.083648
H107  H     H_    0.454950 0.224095 0.247273 -0.083651
H108  H     H_    0.443991 0.768484 0.737749 -0.043368
C97   C     C_3   0.115118 0.757297 0.087226 -0.324535
H109  H     H_    0.163234 0.785598 0.116955 0.096354
H110  H     H_    0.086354 0.758169 0.953542 0.182186
H111  H     H_    0.145442 0.721981 0.118153 0.126316
C98   C     C_3   0.104644 0.224535 0.581485 -0.330755
H112  H     H_    0.140875 0.191131 0.615729 0.100751
H113  H     H_    0.147336 0.255387 0.615818 0.121547
H114  H     H_    0.078856 0.224767 0.446645 0.166897
C99   C     C_3   0.604648 0.275460 0.081476 -0.330746
H115  H     H_    0.640888 0.308860 0.115734 0.100751
H116  H     H_    0.578858 0.275235 0.946637 0.166891
H117  H     H_    0.647332 0.244603 0.115788 0.121554
C100  C     C_3   0.615121 0.742711 0.587235 -0.324504
H118  H     H_    0.663247 0.714414 0.616969 0.096348
H119  H     H_    0.645434 0.778032 0.618161 0.126320
H120  H     H_    0.586358 0.741837 0.453549 0.182188
C101  C     C_3   0.003456 0.812503 0.136799 -0.396791
H121  H     H_    0.967552 0.821814 0.227293 0.102606
H122  H     H_    0.047009 0.842331 0.133785 0.114466
H123  H     H_    0.959616 0.809435 0.014547 0.144952
C102  C     C_3   0.971662 0.187201 0.613745 -0.384716
H124  H     H_    0.926783 0.186717 0.691484 0.105133
H125  H     H_    0.937521 0.193084 0.483884 0.142180
H126  H     H_    0.002029 0.151521 0.623699 0.109356
C103  C     C_3   0.471671 0.312798 0.113750 -0.384720
H127  H     H_    0.426796 0.313285 0.191495 0.105133
H128  H     H_    0.502042 0.348477 0.123700 0.109356
H129  H     H_    0.437526 0.306916 0.983891 0.142181
C104  C     C_3   0.503472 0.687493 0.636798 -0.396810
H130  H     H_    0.467576 0.678174 0.727301 0.102605
H131  H     H_    0.459624 0.690562 0.514553 0.144948
H132  H     H_    0.547033 0.657670 0.633764 0.114473
H133  H     H_    0.784844 0.521852 0.200843 0.007614
H134  H     H_    0.786575 0.476808 0.698882 0.005588
H135  H     H_    0.286571 0.023191 0.198886 0.005594
H136  H     H_    0.284843 0.978148 0.700845 0.007619

loop_
_geom_bond_atom_site_label_1
_geom_bond_atom_site_label_2
_ccdc_geom_bond_type
C64   C104  S    
O32   P4    S    
Ba4   O19   S    
C51   C55   D    
O40   P8    D    
C73   H9    S    
C66   H58   S    
C104  H130  S    
C99   H117  S    
C16   C88   S    
C80   H20   S    
C42   C58   S    
C13   P6    S    
C70   C90   S    
C2    H54   S    
C87   H39   S    
C97   H111  S    
C85   H37   S    
O33   P14   S    
Ba4   O44   S    
C71   C91   S    
C66   H134  S    
C31   H47   S    
O38   P6    D    
C46   H106  S    
C29   H45   S    
C47   H103  S    
O27   P16   D    
C66   C70   S    
C73   O29   S    
C92   H75   S    
C74   H78   S    
C93   H85   S    
O36   P15   S    
Ba4   P8    S    
O1    P1    D    
C21   C25   A    
C23   C27   A    
C3    H27   S    
C24   C28   A    
C13   C85   S    
O10   P10   S    
C23   C31   S    
Ba3   O43   S    
Ba4   O16   S    
Ba1   O41   S    
C91   H71   S    
C74   C78   S    
C71   H63   S    
C12   C16   A    
Ba2   O13   S    
C72   H8    S    
C33   C41   S    
C35   C43   S    
C104  H132  S    
C36   C44   S    
O26   P13   D    
O28   P15   D    
O29   P1    S    
Ba2   O38   S    
C63   H99   S    
O7    P7    S    
C102  H126  S    
C69   C89   S    
C66   O5    S    
Ba3   P7    S    
O23   P16   S    
O22   P13   S    
C12   H32   S    
C100  H119  S    
C48   H108  S    
O12   P12   S    
C52   H36   S    
O18   P2    S    
C68   H136  S    
Ba2   O17   S    
C64   C100  S    
O44   P12   S    
C54   P2    S    
C93   H87   S    
C37   C41   S    
C4    C84   S    
C39   C43   S    
C38   C50   S    
C40   C44   S    
C5    H41   S    
C46   O10   S    
C63   C99   S    
C90   H70   S    
Ba3   O15   S    
C70   H6    S    
Ba1   O21   S    
C94   H88   S    
C89   H65   S    
C5    C57   A    
C88   H40   S    
C91   H73   S    
C7    C59   A    
C95   H91   S    
C8    C60   A    
O8    P8    S    
C19   P12   S    
C9    H29   S    
C17   P10   S    
C96   H94   S    
C81   H1    S    
C56   P4    S    
C83   H3    S    
Ba2   P6    S    
O14   P5    S    
C59   P16   S    
C92   H74   S    
C45   O9    S    
C1    C81   S    
C80   H24   S    
C98   H112  S    
C103  H128  S    
C75   H11   S    
O3    P3    D    
C20   C88   D    
C20   P11   S    
C90   H68   S    
C3    H55   S    
C81   O33   S    
C77   H13   S    
C1    H53   S    
C61   C97   S    
C79   H23   S    
C83   O35   S    
C30   H46   S    
C74   O30   S    
C102  H124  S    
O42   P10   S    
C32   H48   S    
C70   H62   S    
C71   H7    S    
C101  H121  S    
O24   P15   S    
O39   P7    D    
C47   O11   S    
C37   C49   S    
C49   H33   S    
C39   C51   S    
C51   H35   S    
C22   C26   A    
C18   C22   A    
C15   P8    S    
Ba3   Ba4   S    
C64   H100  S    
C17   C21   A    
O35   P16   S    
C94   H90   S    
C61   H97   S    
C20   C24   A    
C95   H93   S    
C11   C27   A    
C99   H116  S    
C2    C82   S    
C9    C13   A    
C96   H96   S    
O15   P8    S    
C36   H52   S    
C47   C63   S    
Ba1   O14   S    
C90   H69   S    
C75   O31   S    
C78   H14   S    
O46   P10   D    
C92   H76   S    
C34   C42   S    
C8    H44   S    
C98   H114  S    
C53   P1    S    
C16   P7    S    
C83   H83   S    
C21   C29   S    
Ba1   O37   S    
C84   H4    S    
C10   H30   S    
C74   H10   S    
Ba3   P3    S    
Ba4   O40   S    
C60   P15   S    
C76   C80   S    
Ba1   P1    S    
C17   C85   D    
C11   C15   A    
C67   O8    S    
C50   H34   S    
C68   O7    S    
C33   H49   S    
C76   H12   S    
C14   P5    S    
C9    C25   A    
C89   H67   S    
C43   C59   S    
Ba3   O20   S    
C44   C60   S    
O34   P13   S    
Ba1   O18   S    
C101  H123  S    
C62   C98   S    
C38   C42   S    
O20   P4    S    
C67   H59   S    
O37   P5    D    
C68   H60   S    
C65   C69   S    
Ba2   O14   S    
C63   C103  S    
C73   H77   S    
C6    C58   A    
C7    C55   S    
O2    P2    D    
C104  H131  S    
C14   C86   S    
C67   H135  S    
C49   C53   D    
O9    P9    S    
C52   C56   D    
Ba2   O42   S    
O6    P6    S    
C100  H118  S    
C7    H43   S    
C40   C52   S    
C73   C77   S    
Ba3   O3    S    
C18   C86   D    
O16   P7    S    
O5    P5    S    
O48   P12   D    
Ba1   O1    S    
C11   H31   S    
C48   O12   S    
Ba3   O23   S    
Ba4   O4    S    
C77   H17   S    
C82   O34   S    
C93   H86   S    
C58   P13   S    
C65   O6    S    
C12   C28   A    
C61   C101  S    
C2    C94   S    
C6    C54   S    
O30   P2    S    
O25   P14   D    
C1    C93   S    
C84   H84   S    
C45   H101  S    
Ba4   O15   S    
C65   H57   S    
C32   C34   D    
O21   P14   S    
C91   H72   S    
C4    H56   S    
C75   C79   S    
C72   H64   S    
C41   C57   S    
C80   H16   S    
O19   P3    S    
C15   C87   S    
O17   P1    S    
C86   H38   S    
C55   P3    S    
C3    C83   S    
C24   C32   S    
C89   H66   S    
Ba4   O24   S    
C77   H21   S    
C65   H133  S    
C62   H98   S    
C46   H102  S    
C47   H107  S    
C103  H127  S    
C10   C14   A    
C75   H79   S    
C68   C72   S    
C69   H5    S    
C29   C35   D    
C45   C61   S    
C30   C36   D    
C78   H18   S    
C31   C33   D    
C100  H120  S    
Ba4   P4    S    
C18   P9    S    
Ba1   Ba2   S    
C4    C96   S    
C82   H2    S    
C97   H110  S    
C22   C30   S    
C79   H19   S    
C72   C92   S    
C19   C23   A    
Ba1   P5    S    
O13   P6    S    
C5    C53   S    
C48   C64   S    
C82   H82   S    
C76   O32   S    
C3    C95   S    
C34   H50   S    
C10   C26   A    
C81   H81   S    
Ba3   O16   S    
C94   H89   S    
C78   H22   S    
C95   H92   S    
O11   P11   S    
C62   C102  S    
C99   H115  S    
C1    H25   S    
C96   H95   S    
O43   P11   S    
Ba3   O39   S    
O41   P9    S    
Ba1   O13   S    
C97   H109  S    
C69   H61   S    
C46   C62   S    
C48   H104  S    
C35   H51   S    
C98   H113  S    
C103  H129  S    
C19   C87   D    
C57   P14   S    
O4    P4    D    
C4    H28   S    
C50   C54   D    
C6    H42   S    
O31   P3    S    
C76   H80   S    
C102  H125  S    
Ba2   O22   S    
C67   C71   S    
Ba2   P2    S    
C101  H122  S    
C79   H15   S    
O47   P11   D    
O45   P9    D    
C8    C56   S    
C84   O36   S    
Ba2   O2    S    
C2    H26   S    
C45   H105  S    
