data_mof_unit_57770.cif
_audit_creation_date              2012-10-26T21:00:16-0400
_audit_creation_method            fapswitch 2.2
_symmetry_space_group_name_H-M    P1
_symmetry_Int_Tables_number       1
_space_group_crystal_system       triclinic
_cell_length_a                    19.331652
_cell_length_b                    8.684288
_cell_length_c                    7.441309
_cell_angle_alpha                 102.915781
_cell_angle_beta                  94.611947
_cell_angle_gamma                 92.257654
_cell_volume                      1211.592244

loop_
_atom_site_label
_atom_site_type_symbol
_atom_type_description
_atom_site_fract_x
_atom_site_fract_y
_atom_site_fract_z
_atom_type_partial_charge
C1    C     C_R   0.497876 0.199683 0.453266 0.539504
C2    C     C_R   0.810622 0.443816 0.335071 -0.137701
C3    C     C_R   0.146021 0.487967 0.503992 0.008716
C4    C     C_R   0.853964 0.511834 0.496077 0.008691
C5    C     C_R   0.175787 0.415396 0.343017 -0.108149
C6    C     C_R   0.824202 0.584767 0.656914 -0.108138
C7    C     C_R   0.247898 0.411510 0.340655 0.127896
C8    C     C_R   0.752091 0.588749 0.659227 0.127925
C9    C     C_R   0.291355 0.485652 0.501723 0.035599
C10   C     C_R   0.708637 0.514308 0.498273 0.035622
C11   C     C_R   0.929995 0.506235 0.497644 0.347486
C12   C     C_R   0.502124 0.800317 0.546734 0.539506
C13   C     C_R   0.069988 0.493510 0.502455 0.347482
C14   C     C_3   0.296389 0.173866 0.178462 -0.280543
C15   C     C_3   0.703550 0.826650 0.820663 -0.280596
C16   C     C_2   0.496737 0.031844 0.426885 -0.162624
C17   C     C_2   0.503264 0.968156 0.573115 -0.162648
C18   C     C_R   0.367458 0.495281 0.500907 0.553242
C19   C     C_R   0.632539 0.504711 0.499092 0.553257
C20   C     C_R   0.261320 0.554523 0.663859 -0.173405
C21   C     C_R   0.738668 0.445071 0.336265 -0.173344
C22   C     C_R   0.189364 0.555704 0.665089 -0.137757
Cu1   Cu    Cu3+1 0.507710 0.517380 0.684380 0.958835
Cu2   Cu    Cu3+1 0.492290 0.482620 0.315620 0.958797
H1    H     H_    0.293538 0.610800 0.789040 0.138183
H2    H     H_    0.554945 0.620593 0.051445 0.242261
H3    H     H_    0.246100 0.335346 0.055822 0.245666
H4    H     H_    0.249994 0.095827 0.183893 0.136772
H5    H     H_    0.334156 0.175531 0.299661 0.158467
H6    H     H_    0.321631 0.124626 0.050779 0.141135
H7    H     H_    0.753887 0.665662 0.944010 0.245706
H8    H     H_    0.749921 0.904656 0.814943 0.136767
H9    H     H_    0.678308 0.876191 0.948261 0.141151
H10   H     H_    0.665771 0.824626 0.699389 0.158419
H11   H     H_    0.706449 0.388558 0.211159 0.138105
H12   H     H_    0.167820 0.611659 0.791769 0.145513
H13   H     H_    0.832161 0.387570 0.208489 0.145544
H14   H     H_    0.143119 0.359933 0.218346 0.137630
H15   H     H_    0.856869 0.640463 0.781502 0.137627
H16   H     H_    0.490515 0.960333 0.285903 0.132815
H17   H     H_    0.509487 0.039667 0.714098 0.132803
H18   H     H_    0.445054 0.379408 0.948555 0.242237
N1    N     N_R   0.028274 0.430963 0.345290 -0.225271
N2    N     N_R   0.971708 0.568775 0.654813 -0.225259
N3    N     N_R   0.959622 0.437054 0.342902 -0.223934
N4    N     N_R   0.040360 0.562682 0.657201 -0.223935
N5    N     N_2   0.480680 0.456420 0.038530 -0.254400
N6    N     N_2   0.519320 0.543580 0.961470 -0.254391
N7    N     N_2   0.275978 0.331988 0.176076 -0.497172
N8    N     N_2   0.724007 0.668664 0.823634 -0.497190
O1    O     O_R   0.505010 0.286130 0.619770 -0.505910
O2    O     O_R   0.494990 0.713870 0.380230 -0.505896
O3    O     O_R   0.491990 0.256780 0.308370 -0.502646
O4    O     O_R   0.508010 0.743220 0.691630 -0.502591
O5    O     O_R   0.406650 0.514660 0.655750 -0.518056
O6    O     O_R   0.593350 0.485340 0.344250 -0.518054
O7    O     O_R   0.393640 0.485310 0.344340 -0.459858
O8    O     O_R   0.606360 0.514690 0.655660 -0.459891

loop_
_geom_bond_atom_site_label_1
_geom_bond_atom_site_label_2
_ccdc_geom_bond_type
C12   C17   S    
Cu2   O2    S    
Cu1   O8    S    
C2    C4    A    
Cu1   Cu2   S    
Cu1   O5    S    
C21   H11   S    
Cu2   O6    S    
C22   H12   S    
C9    C20   A    
Cu1   O1    S    
N5    N6    D    
C3    C13   S    
C19   O6    A    
H2    N6    S    
C10   C19   S    
C2    C21   A    
C15   H8    S    
C10   C21   A    
C1    C16   S    
C5    H14   S    
Cu1   N6    S    
C4    C11   S    
C13   N1    A    
N1    N3    A    
C2    H13   S    
C18   O5    A    
C16   H16   S    
C8    C10   A    
C12   O2    A    
C14   H6    S    
C7    C9    A    
H18   N5    S    
C19   O8    A    
C13   N4    A    
C18   O7    A    
C17   H17   S    
C11   N3    A    
C14   N7    S    
C20   H1    S    
C20   C22   A    
H7    N8    S    
C8    N8    S    
C9    C18   S    
C11   N2    A    
C7    N7    S    
Cu1   O4    S    
C4    C6    A    
C14   H5    S    
C15   N8    S    
C5    C7    A    
C1    O3    A    
C6    H15   S    
Cu2   O7    S    
C3    C22   A    
C6    C8    A    
C1    O1    A    
C15   H10   S    
C14   H4    S    
Cu2   O3    S    
Cu2   N5    S    
C15   H9    S    
C12   O4    A    
H3    N7    S    
N2    N4    A    
C16   C17   D    
C3    C5    A    
