data_mof_unit_67356.cif
_audit_creation_date              2013-03-05T16:08:12-0500
_audit_creation_method            fapswitch 2.2
_symmetry_space_group_name_H-M    P1
_symmetry_Int_Tables_number       1
_space_group_crystal_system       triclinic
_cell_length_a                    19.814327
_cell_length_b                    23.447896
_cell_length_c                    9.202858
_cell_angle_alpha                 90.449634
_cell_angle_beta                  104.082019
_cell_angle_gamma                 90.012867
_cell_volume                      4147.05831227

loop_
_atom_site_label
_atom_site_type_symbol
_atom_site_description
_atom_site_fract_x
_atom_site_fract_y
_atom_site_fract_z
_atom_type_partial_charge
P1    P     P_3+3 0.853370 0.434890 0.996520 0.644063
P2    P     P_3+3 0.853370 0.565110 0.496520 0.646833
P3    P     P_3+3 0.353370 0.934890 0.996520 0.644443
P4    P     P_3+3 0.353370 0.065110 0.496520 0.650470
O1    O     O_2   0.860260 0.414960 0.826400 -0.287415
O2    O     O_2   0.860260 0.585040 0.326400 -0.314350
O3    O     O_2   0.360260 0.914960 0.826400 -0.290482
O4    O     O_2   0.360260 0.085040 0.326400 -0.312946
O5    O     O_3   0.918600 0.470180 0.098890 -0.367481
O6    O     O_3   0.918600 0.529820 0.598890 -0.325219
O7    O     O_3   0.418600 0.970180 0.098890 -0.367450
O8    O     O_3   0.418600 0.029820 0.598890 -0.325563
O9    O     O_3   0.975750 0.362410 0.628650 -0.412953
O10   O     O_3   0.975750 0.637590 0.128650 -0.393640
O11   O     O_3   0.475750 0.862410 0.628650 -0.410250
O12   O     O_3   0.475750 0.137590 0.128650 -0.395465
O13   O     O_2   0.868521 0.304612 0.668980 -0.387823
O14   O     O_2   0.862796 0.688341 0.140578 -0.323951
O15   O     O_2   0.369250 0.803946 0.668144 -0.391331
O16   O     O_2   0.360442 0.185157 0.140244 -0.332358
O17   O     O_3   0.770820 0.470745 0.962428 -0.561516
O18   O     O_3   0.769556 0.530412 0.471906 -0.563325
O19   O     O_3   0.270335 0.970108 0.961265 -0.563422
O20   O     O_3   0.269330 0.030411 0.470310 -0.563446
O21   O     O_3   0.963399 0.245025 0.583374 -0.498524
O22   O     O_3   0.967838 0.753600 0.127453 -0.500025
O23   O     O_3   0.465349 0.745232 0.583483 -0.497145
O24   O     O_3   0.459582 0.255344 0.123758 -0.484556
C1    C     C_3   0.081527 0.204291 0.609370 -0.346054
C2    C     C_3   0.076018 0.807025 0.154410 -0.341706
C3    C     C_3   0.584175 0.705787 0.611924 -0.341306
C4    C     C_3   0.562335 0.314849 0.159648 -0.303245
H1    H     H_    0.102345 0.212530 0.509653 0.165903
H2    H     H_    0.035729 0.840856 0.124962 0.263013
H3    H     H_    0.605911 0.714404 0.513876 0.161226
H4    H     H_    0.572629 0.321163 0.282900 0.154395
P5    P     P_3+3 0.146350 0.434230 0.693140 0.465818
P6    P     P_3+3 0.146350 0.565770 0.193140 0.509031
P7    P     P_3+3 0.646350 0.934230 0.693140 0.444664
P8    P     P_3+3 0.646350 0.065770 0.193140 0.513347
P9    P     P_3+3 0.090293 0.312614 0.134084 0.556628
P10   P     P_3+3 0.090895 0.684993 0.639048 0.423450
P11   P     P_3+3 0.591703 0.813556 0.134069 0.553620
P12   P     P_3+3 0.590650 0.185524 0.635077 0.431536
O25   O     O_2   0.139400 0.414340 0.863230 -0.328833
O26   O     O_2   0.139400 0.585660 0.363230 -0.310649
O27   O     O_2   0.639400 0.914340 0.863230 -0.343098
O28   O     O_2   0.639400 0.085660 0.363230 -0.334128
O29   O     O_3   0.023740 0.362300 0.060930 -0.359008
O30   O     O_3   0.023740 0.637700 0.560930 -0.426921
O31   O     O_3   0.523740 0.862300 0.060930 -0.366134
O32   O     O_3   0.523740 0.137700 0.560930 -0.425088
O33   O     O_2   0.142231 0.319181 0.034403 -0.326999
O34   O     O_2   0.142999 0.674970 0.540414 -0.310047
O35   O     O_2   0.644071 0.821640 0.035665 -0.332027
O36   O     O_2   0.641732 0.175884 0.534040 -0.316579
O37   O     O_3   0.227883 0.468215 0.706559 -0.602498
O38   O     O_3   0.230963 0.533755 0.232557 -0.575061
O39   O     O_3   0.724070 0.972763 0.698880 -0.603011
O40   O     O_3   0.729538 0.035437 0.219969 -0.585493
O41   O     O_3   0.054451 0.244263 0.082165 -0.595371
O42   O     O_3   0.059100 0.753485 0.584981 -0.646959
O43   O     O_3   0.557104 0.744718 0.082052 -0.596972
O44   O     O_3   0.556575 0.253336 0.578299 -0.625803
C5    C     C_3   0.983374 0.239648 0.084362 0.554534
C6    C     C_3   0.997905 0.768211 0.629935 0.612838
C7    C     C_3   0.485877 0.739293 0.084002 0.570894
C8    C     C_3   0.493931 0.264891 0.621060 0.615406
H5    H     H_    0.952576 0.273315 0.013410 -0.038352
H6    H     H_    0.976172 0.731762 0.680661 -0.082829
H7    H     H_    0.454622 0.772747 0.013134 -0.040133
H8    H     H_    0.467628 0.225290 0.644223 -0.086748
C9    C     C_3   0.954502 0.180029 0.016647 0.106126
C10   C     C_3   0.942269 0.788364 0.487996 0.062419
C11   C     C_3   0.457672 0.679442 0.015407 0.098220
C12   C     C_3   0.442816 0.296872 0.489892 0.069268
C13   C     C_3   0.246513 0.477931 0.288161 0.521022
C14   C     C_3   0.250524 0.515168 0.801235 0.545456
C15   C     C_3   0.750286 0.983490 0.291995 0.537254
C16   C     C_3   0.758133 0.008793 0.815505 0.583921
C17   C     C_3   0.329112 0.467213 0.311912 -0.010984
C18   C     C_3   0.331951 0.520606 0.823527 -0.046567
C19   C     C_3   0.831817 0.979466 0.309200 -0.004847
C20   C     C_3   0.839144 0.005648 0.827696 -0.089732
H9    H     H_    0.337975 0.422308 0.284722 0.198925
H10   H     H_    0.353174 0.542625 0.932183 0.174902
H11   H     H_    0.841362 0.962952 0.202711 0.096831
H12   H     H_    0.867132 0.018208 0.943397 0.144613
Ba1   Ba    Ba6+2 0.999900 0.457470 0.844900 1.674706
Ba2   Ba    Ba6+2 0.999900 0.542530 0.344900 1.694588
Ba3   Ba    Ba6+2 0.499900 0.957470 0.844900 1.670969
Ba4   Ba    Ba6+2 0.499900 0.042530 0.344900 1.695798
C21   C     C_3   0.749905 0.526040 0.902338 0.920654
C22   C     C_3   0.744247 0.475986 0.409065 0.871966
C23   C     C_3   0.248659 0.024948 0.899265 0.921158
C24   C     C_3   0.242635 0.976843 0.403167 0.870866
C25   C     C_3   0.664882 0.527565 0.872682 0.049612
C26   C     C_3   0.661056 0.474613 0.401675 0.045062
C27   C     C_3   0.163676 0.026008 0.869576 0.040150
C28   C     C_3   0.158592 0.977055 0.391219 0.041037
O45   O     O_3   0.081330 0.529680 0.090830 -0.365333
O46   O     O_3   0.081330 0.470320 0.590830 -0.404746
O47   O     O_3   0.581330 0.029680 0.090830 -0.367322
O48   O     O_3   0.581330 0.970320 0.590830 -0.417106
P13   P     P_3+3 0.919290 0.692735 0.051205 0.516784
P14   P     P_3+3 0.914195 0.308636 0.554537 0.552367
P15   P     P_3+3 0.416869 0.191638 0.051241 0.515269
P16   P     P_3+3 0.415098 0.808301 0.554148 0.549831
C29   C     C_3   0.035467 0.256770 0.628864 0.414218
C30   C     C_3   0.038647 0.747655 0.122107 0.418692
C31   C     C_3   0.537206 0.757821 0.629780 0.415154
C32   C     C_3   0.531167 0.253874 0.124194 0.437677
H13   H     H_    0.049194 0.290041 0.556780 0.094494
H14   H     H_    0.040364 0.732518 0.008290 0.040426
H15   H     H_    0.550627 0.791206 0.557463 0.091982
H16   H     H_    0.538087 0.238860 0.014055 0.045701
C33   C     C_R   0.142531 0.681524 0.840944 0.249267
C34   C     C_R   0.143126 0.314260 0.339018 0.348556
C35   C     C_R   0.642644 0.181471 0.837940 0.231249
C36   C     C_R   0.644490 0.815043 0.339068 0.362548
C37   C     C_R   0.195848 0.723339 0.904114 0.009851
C38   C     C_R   0.194759 0.272288 0.403276 -0.026156
C39   C     C_R   0.694402 0.223967 0.903315 0.026045
C40   C     C_R   0.695389 0.772643 0.403953 -0.025448
C41   C     C_R   0.790340 0.315253 0.041381 0.009881
C42   C     C_R   0.790323 0.682208 0.540871 -0.033478
C43   C     C_R   0.291157 0.815152 0.041203 0.003986
C44   C     C_R   0.290909 0.182503 0.540191 -0.050693
C45   C     C_R   0.750661 0.316540 0.894686 -0.093468
C46   C     C_R   0.747586 0.678448 0.395458 -0.089417
C47   C     C_R   0.252060 0.816102 0.893732 -0.101273
C48   C     C_R   0.248098 0.178574 0.395062 -0.098284
C49   C     C_R   0.214683 0.768899 0.820989 0.041836
C50   C     C_R   0.210680 0.225053 0.321269 0.047538
C51   C     C_R   0.712955 0.269748 0.820958 0.041589
C52   C     C_R   0.711522 0.725576 0.321768 0.062632
C53   C     C_R   0.838514 0.361749 0.103339 0.204479
C54   C     C_R   0.843421 0.639288 0.598812 0.291505
C55   C     C_R   0.339310 0.861601 0.103149 0.210071
C56   C     C_R   0.343894 0.139582 0.598108 0.296998
C57   C     C_R   0.869094 0.357028 0.260709 -0.183429
C58   C     C_R   0.884418 0.649328 0.747064 -0.235844
C59   C     C_R   0.370284 0.856720 0.260427 -0.182620
C60   C     C_R   0.384151 0.149121 0.747159 -0.243196
C61   C     C_R   0.162608 0.633099 0.085654 0.200683
C62   C     C_R   0.161137 0.364006 0.586548 0.106422
C63   C     C_R   0.659564 0.134020 0.084913 0.235714
C64   C     C_R   0.662825 0.864848 0.586206 0.102665
C65   C     C_R   0.215037 0.675275 0.145974 -0.129592
C66   C     C_R   0.214402 0.322601 0.646124 -0.083724
C67   C     C_R   0.710703 0.177122 0.147045 -0.112085
C68   C     C_R   0.715513 0.822991 0.647013 -0.068971
C69   C     C_R   0.229893 0.721746 0.059360 -0.000981
C70   C     C_R   0.229380 0.275441 0.558813 0.057190
C71   C     C_R   0.727732 0.222474 0.059290 -0.024287
C72   C     C_R   0.730062 0.775743 0.559483 0.053293
C73   C     C_R   0.252894 0.671987 0.293355 -0.147256
C74   C     C_R   0.253316 0.327125 0.792630 -0.192776
C75   C     C_R   0.747821 0.174367 0.295539 -0.125234
C76   C     C_R   0.754533 0.827085 0.794251 -0.216958
C77   C     C_R   0.798002 0.214406 0.362998 0.351388
C78   C     C_R   0.806329 0.787777 0.858593 0.407014
C79   C     C_R   0.301705 0.712871 0.361280 0.352297
C80   C     C_R   0.303101 0.286883 0.859809 0.400960
C81   C     C_R   0.812302 0.263965 0.284056 -0.207714
C82   C     C_R   0.820562 0.738223 0.778423 -0.152960
C83   C     C_R   0.314076 0.763404 0.283544 -0.211149
C84   C     C_R   0.318616 0.237450 0.779541 -0.155331
C85   C     C_R   0.778027 0.266946 0.128232 -0.065627
C86   C     C_R   0.781401 0.732332 0.626101 -0.007729
C87   C     C_R   0.279123 0.766756 0.128312 -0.025690
C88   C     C_R   0.280995 0.232243 0.625862 -0.022712
C89   C     C_R   0.858696 0.309906 0.351108 0.420275
C90   C     C_R   0.871572 0.695003 0.841679 0.207373
C91   C     C_R   0.359975 0.809547 0.350717 0.411473
C92   C     C_R   0.369669 0.194020 0.842530 0.239831
C93   C     C_R   0.130168 0.635357 0.931521 -0.310382
C94   C     C_R   0.127039 0.357593 0.432652 -0.303427
C95   C     C_R   0.630292 0.134913 0.927864 -0.288612
C96   C     C_R   0.629373 0.858949 0.431749 -0.292083
H17   H     H_    0.246763 0.635733 0.360086 0.244910
H18   H     H_    0.246030 0.363236 0.860183 0.213602
H19   H     H_    0.741460 0.138471 0.363099 0.235329
H20   H     H_    0.746363 0.862287 0.863462 0.189216
N1    N     N_3   0.053832 0.277461 0.783436 -0.188752
H21   H     H_    0.081256 0.315506 0.784496 0.155445
H22   H     H_    0.009552 0.287564 0.820337 0.174234
N2    N     N_3   0.073835 0.704688 0.228421 -0.178805
H23   H     H_    0.054253 0.705587 0.322618 0.194743
H24   H     H_    0.126418 0.713182 0.265653 0.081305
N3    N     N_3   0.554871 0.778833 0.784146 -0.189486
H25   H     H_    0.582152 0.816939 0.785398 0.157632
H26   H     H_    0.510368 0.788727 0.820385 0.174361
N4    N     N_3   0.568220 0.214076 0.237306 -0.188488
H27   H     H_    0.546973 0.217074 0.329234 0.204779
H28   H     H_    0.620387 0.225371 0.274943 0.072076
N5    N     N_3   0.371767 0.473262 0.465144 -0.164833
H29   H     H_    0.392212 0.514292 0.485480 0.249089
H30   H     H_    0.346522 0.460591 0.545920 0.185197
N6    N     N_3   0.364705 0.464406 0.827437 -0.160809
H31   H     H_    0.348939 0.438620 0.904582 0.187213
H32   H     H_    0.418611 0.469327 0.865616 0.209020
N7    N     N_3   0.864139 0.938712 0.424148 -0.153238
H33   H     H_    0.915661 0.933745 0.418173 0.166711
H34   H     H_    0.866271 0.956397 0.529340 0.193333
N8    N     N_3   0.860222 0.947690 0.800801 -0.169057
H35   H     H_    0.847967 0.921613 0.881290 0.153225
H36   H     H_    0.914485 0.946692 0.820498 0.207662
N9    N     N_R   0.360877 0.502169 0.215148 0.236021
O49   O     O_R   0.409146 0.479123 0.160378 -0.420189
O50   O     O_R   0.359745 0.557532 0.226567 -0.349258
N10   N     N_R   0.353154 0.555167 0.709967 0.281185
O51   O     O_R   0.310186 0.567875 0.583369 -0.326020
O52   O     O_R   0.418406 0.568904 0.730472 -0.366769
N11   N     N_R   0.867763 0.035165 0.337392 0.297311
O53   O     O_R   0.925226 0.040435 0.441369 -0.324363
O54   O     O_R   0.852786 0.075016 0.237316 -0.340367
N12   N     N_R   0.863572 0.044502 0.727018 0.304124
O55   O     O_R   0.822129 0.063536 0.605398 -0.281300
O56   O     O_R   0.929787 0.055369 0.751647 -0.324994
N13   N     N_R   0.772452 0.535687 0.767553 0.206000
O57   O     O_R   0.749606 0.581527 0.694265 -0.515768
O58   O     O_R   0.834814 0.519545 0.768234 -0.351074
N14   N     N_R   0.754619 0.468633 0.260863 0.169704
O59   O     O_R   0.737614 0.420370 0.191667 -0.517986
O60   O     O_R   0.801795 0.498810 0.224763 -0.382206
N15   N     N_R   0.270762 0.034215 0.763846 0.201364
O61   O     O_R   0.248823 0.080716 0.692594 -0.516521
O62   O     O_R   0.333016 0.017910 0.764288 -0.349487
N16   N     N_R   0.255267 0.969600 0.256735 0.171340
O63   O     O_R   0.239691 0.921156 0.188021 -0.526376
O64   O     O_R   0.304190 0.998930 0.225086 -0.374310
N17   N     N_R   0.782927 0.572032 0.002854 0.212808
O65   O     O_R   0.850054 0.569473 0.051704 -0.311228
O66   O     O_R   0.756367 0.622806 0.976845 -0.477662
N18   N     N_R   0.781568 0.429217 0.498334 0.212362
O67   O     O_R   0.756312 0.377830 0.474252 -0.514105
O68   O     O_R   0.847940 0.434381 0.553610 -0.330429
N19   N     N_R   0.281267 0.071392 0.998737 0.217509
O69   O     O_R   0.348397 0.069334 0.048214 -0.312747
O70   O     O_R   0.253954 0.121911 0.972647 -0.475544
N20   N     N_R   0.277667 0.929206 0.492466 0.214017
O71   O     O_R   0.250788 0.878424 0.465839 -0.506677
O72   O     O_R   0.344063 0.932914 0.549927 -0.334844
N21   N     N_3   0.635903 0.469875 0.877016 -0.138193
H37   H     H_    0.582206 0.472364 0.866939 0.167105
H38   H     H_    0.656175 0.450539 0.978758 0.190527
N22   N     N_3   0.630566 0.531642 0.373780 -0.145765
H39   H     H_    0.576428 0.529203 0.356600 0.215930
H40   H     H_    0.648353 0.557793 0.467310 0.167810
N23   N     N_3   0.135588 0.968226 0.875789 -0.141001
H41   H     H_    0.081725 0.970199 0.863756 0.179108
H42   H     H_    0.155518 0.950399 0.979573 0.172080
N24   N     N_3   0.131118 0.035320 0.375626 -0.155725
H43   H     H_    0.077060 0.034528 0.361264 0.213772
H44   H     H_    0.151158 0.058888 0.472645 0.171222
N25   N     N_3   0.631071 0.550267 0.725290 -0.167217
H45   H     H_    0.577050 0.545395 0.704855 0.181165
H46   H     H_    0.639544 0.593589 0.726454 0.180119
N26   N     N_3   0.622099 0.436501 0.285961 -0.205294
H47   H     H_    0.645147 0.396664 0.301579 0.177786
H48   H     H_    0.618542 0.451956 0.179035 0.163089
N27   N     N_3   0.129868 0.048024 0.721436 -0.169302
H49   H     H_    0.075968 0.041955 0.699013 0.200417
H50   H     H_    0.137149 0.091558 0.722519 0.175884
N28   N     N_3   0.117705 0.943965 0.265182 -0.193790
H51   H     H_    0.141754 0.905705 0.258503 0.181537
H52   H     H_    0.108594 0.965459 0.164273 0.166710
N29   N     N_R   0.643963 0.561930 0.987184 0.242754
O73   O     O_R   0.604770 0.606655 0.954191 -0.391550
O74   O     O_R   0.660738 0.544946 0.123646 -0.458555
N30   N     N_R   0.646760 0.454884 0.539532 0.231002
O75   O     O_R   0.696274 0.452773 0.657991 -0.468795
O76   O     O_R   0.583034 0.447384 0.549724 -0.422747
N31   N     N_R   0.142124 0.060732 0.982769 0.241374
O77   O     O_R   0.096006 0.100824 0.947171 -0.381514
O78   O     O_R   0.165549 0.048341 0.121682 -0.470027
N32   N     N_R   0.142106 0.953109 0.523362 0.245036
O79   O     O_R   0.189375 0.951173 0.646318 -0.462784
O80   O     O_R   0.077616 0.944435 0.526504 -0.389507
N33   N     N_3   0.140729 0.197172 0.739286 -0.167622
H53   H     H_    0.179119 0.174495 0.703816 0.185613
H54   H     H_    0.163938 0.236285 0.774974 0.123246
N34   N     N_3   0.126719 0.815231 0.064425 -0.192255
H55   H     H_    0.130559 0.858592 0.043885 0.172692
H56   H     H_    0.109398 0.796664 0.959550 0.155181
N35   N     N_3   0.642447 0.698735 0.743820 -0.166339
H57   H     H_    0.681456 0.676191 0.710319 0.184264
H58   H     H_    0.665376 0.737852 0.780477 0.123837
N36   N     N_3   0.513998 0.359155 0.086011 -0.058207
H59   H     H_    0.535598 0.383486 0.013940 0.200964
H60   H     H_    0.504647 0.387851 0.166091 0.172685
N37   N     N_3   0.043577 0.150173 0.580992 -0.162392
H61   H     H_    0.007499 0.145925 0.645003 0.242840
H62   H     H_    0.018784 0.145149 0.468436 0.272894
N38   N     N_3   0.111856 0.815505 0.312270 -0.195705
H63   H     H_    0.162099 0.798502 0.335010 0.170745
H64   H     H_    0.085145 0.796342 0.381625 0.187950
N39   N     N_3   0.546819 0.651503 0.580777 -0.173401
H65   H     H_    0.511078 0.646188 0.645159 0.234182
H66   H     H_    0.521664 0.647421 0.468262 0.264537
N40   N     N_3   0.628429 0.321037 0.117694 -0.205812
H67   H     H_    0.625339 0.301787 0.014131 0.160715
H68   H     H_    0.667479 0.302273 0.199851 0.140085
N41   N     N_R   0.989179 0.132474 0.109175 0.324205
O81   O     O_R   0.967012 0.080615 0.077155 -0.311476
O82   O     O_R   0.046884 0.140148 0.210904 -0.397708
N42   N     N_R   0.880836 0.815853 0.520645 0.221688
O83   O     O_R   0.826869 0.822755 0.409765 -0.346584
O84   O     O_R   0.884828 0.847140 0.639287 -0.394873
N43   N     N_R   0.494081 0.631872 0.104956 0.319230
O85   O     O_R   0.476226 0.579662 0.064604 -0.287989
O86   O     O_R   0.549078 0.640425 0.213426 -0.399517
N44   N     N_R   0.388100 0.329842 0.537159 0.233507
O87   O     O_R   0.327998 0.334989 0.442386 -0.415943
O88   O     O_R   0.405388 0.369729 0.638317 -0.365770
N45   N     N_3   0.737327 0.369270 0.824181 -0.134131
H69   H     H_    0.683656 0.375425 0.803725 0.206941
H70   H     H_    0.752804 0.366038 0.724681 0.232477
N46   N     N_3   0.732483 0.624761 0.324812 -0.143548
H71   H     H_    0.678716 0.620367 0.301607 0.201643
H72   H     H_    0.747370 0.625527 0.224644 0.228132
N47   N     N_3   0.238727 0.868789 0.821591 -0.136736
H73   H     H_    0.185221 0.875108 0.802260 0.205545
H74   H     H_    0.253615 0.865626 0.721317 0.233438
N48   N     N_3   0.233900 0.124937 0.324806 -0.140769
H75   H     H_    0.180244 0.120248 0.302843 0.198381
H76   H     H_    0.248636 0.126092 0.224414 0.232529
N49   N     N_3   0.195350 0.770161 0.660720 -0.137462
H77   H     H_    0.239736 0.775282 0.620543 0.191981
H78   H     H_    0.163993 0.805559 0.625047 0.169279
N50   N     N_3   0.188045 0.221488 0.161266 -0.135314
H79   H     H_    0.230720 0.214069 0.116663 0.209778
H80   H     H_    0.154871 0.186668 0.129683 0.209217
N51   N     N_3   0.692886 0.271760 0.660495 -0.134448
H81   H     H_    0.736882 0.277510 0.619254 0.194114
H82   H     H_    0.660818 0.306886 0.625563 0.171707
N52   N     N_3   0.692499 0.723947 0.161478 -0.136231
H83   H     H_    0.737110 0.718186 0.122376 0.211678
H84   H     H_    0.660207 0.689050 0.124222 0.209386
N53   N     N_R   0.838919 0.197046 0.505384 0.266946
O89   O     O_R   0.810665 0.198190 0.618815 -0.372180
O90   O     O_R   0.884247 0.157165 0.504116 -0.264696
N54   N     N_R   0.845195 0.802498 0.005378 0.255624
O91   O     O_R   0.815777 0.796227 0.115617 -0.331054
O92   O     O_R   0.893699 0.840850 0.019458 -0.390496
N55   N     N_R   0.343359 0.695538 0.502683 0.273403
O93   O     O_R   0.316180 0.697460 0.617601 -0.359432
O94   O     O_R   0.388082 0.655247 0.500085 -0.291631
N56   N     N_R   0.338282 0.301288 0.009550 0.273638
O95   O     O_R   0.307667 0.289801 0.115395 -0.346964
O96   O     O_R   0.377805 0.346161 0.028402 -0.369266
N57   N     N_3   0.917053 0.399249 0.331945 -0.160396
H85   H     H_    0.952297 0.401910 0.266209 0.141237
H86   H     H_    0.892568 0.438272 0.330979 0.203824
N58   N     N_3   0.942525 0.613200 0.801154 -0.154122
H87   H     H_    0.933396 0.588127 0.887348 0.220381
H88   H     H_    0.984576 0.640146 0.844033 0.059482
N59   N     N_3   0.418745 0.898645 0.331489 -0.161061
H89   H     H_    0.453767 0.901339 0.265046 0.141577
H90   H     H_    0.394479 0.937694 0.332637 0.204768
N60   N     N_3   0.442519 0.112919 0.801309 -0.150680
H91   H     H_    0.433428 0.087647 0.887214 0.217351
H92   H     H_    0.485440 0.139168 0.843221 0.066720
N61   N     N_3   0.089596 0.586321 0.868208 -0.166924
H93   H     H_    0.122257 0.551261 0.878229 0.162478
H94   H     H_    0.067475 0.587068 0.756011 0.200112
N62   N     N_3   0.069716 0.392703 0.370498 -0.152548
H95   H     H_    0.038816 0.391695 0.446571 0.169032
H96   H     H_    0.085181 0.434122 0.356978 0.168916
N63   N     N_3   0.594490 0.084220 0.859603 -0.165162
H97   H     H_    0.628880 0.050147 0.886202 0.161177
H98   H     H_    0.584627 0.083299 0.744565 0.199443
N64   N     N_3   0.573603 0.895351 0.367534 -0.152183
H99   H     H_    0.541233 0.894046 0.440643 0.165791
H100  H     H_    0.591252 0.936517 0.358279 0.168756
N65   N     N_R   0.975563 0.246631 0.236942 0.197495
O97   O     O_R   0.948003 0.207435 0.302651 -0.423495
O98   O     O_R   0.991451 0.294887 0.304789 -0.537157
N66   N     N_R   0.014387 0.814172 0.740389 0.215429
O99   O     O_R   0.984550 0.815562 0.851136 -0.411241
O100  O     O_R   0.054950 0.856001 0.724342 -0.422563
N67   N     N_R   0.477702 0.746080 0.236338 0.199394
O101  O     O_R   0.448673 0.707129 0.299712 -0.431233
O102  O     O_R   0.493345 0.794296 0.304850 -0.537594
N68   N     N_R   0.509258 0.299356 0.756284 0.206765
O103  O     O_R   0.464201 0.299242 0.837596 -0.421144
O104  O     O_R   0.553802 0.341029 0.770782 -0.441601
N69   N     N_3   0.879082 0.175981 0.000233 -0.133119
H101  H     H_    0.854768 0.212976 0.950751 0.113484
H102  H     H_    0.866218 0.169911 0.102119 0.219504
N70   N     N_3   0.918216 0.738614 0.394479 -0.102216
H103  H     H_    0.960171 0.714885 0.380290 0.180371
H104  H     H_    0.892656 0.711691 0.451304 0.085533
N71   N     N_3   0.382378 0.673569 0.000662 -0.160070
H105  H     H_    0.357050 0.711364 0.960181 0.107946
H106  H     H_    0.370498 0.663015 0.101422 0.206382
N72   N     N_3   0.409855 0.254342 0.378256 -0.106731
H107  H     H_    0.444110 0.220906 0.374892 0.155774
H108  H     H_    0.368730 0.235619 0.411424 0.139691
N73   N     N_3   0.966189 0.173168 0.867716 -0.127121
H109  H     H_    0.018481 0.180649 0.872691 0.181553
H110  H     H_    0.937068 0.203967 0.799031 0.173071
N74   N     N_3   0.973642 0.827923 0.401218 -0.189317
H111  H     H_    0.990981 0.864135 0.465260 0.197366
H112  H     H_    0.936110 0.841211 0.307182 0.223354
N75   N     N_3   0.468524 0.674168 0.865600 -0.127859
H113  H     H_    0.520687 0.681914 0.869971 0.181429
H114  H     H_    0.438894 0.705392 0.799591 0.177799
N76   N     N_3   0.481580 0.336196 0.418537 -0.188067
H115  H     H_    0.503783 0.367669 0.495814 0.226059
H116  H     H_    0.446005 0.357008 0.332843 0.193157
N77   N     N_3   0.228442 0.472819 0.430082 -0.161473
H117  H     H_    0.234248 0.429955 0.459888 0.104391
H118  H     H_    0.176834 0.484191 0.418831 0.176038
N78   N     N_3   0.234814 0.506764 0.944135 -0.199248
H119  H     H_    0.264487 0.472648 0.994672 0.131976
H120  H     H_    0.252234 0.543690 0.005331 0.121971
N79   N     N_3   0.735586 0.982665 0.437389 -0.140474
H121  H     H_    0.744610 0.940803 0.475595 0.117646
H122  H     H_    0.682780 0.989618 0.425622 0.169518
N80   N     N_3   0.743991 0.991924 0.954548 -0.192673
H123  H     H_    0.762351 0.950563 0.976888 0.108749
H124  H     H_    0.776195 0.018229 0.031838 0.125623
N81   N     N_R   0.206950 0.435296 0.183114 0.185105
O105  O     O_R   0.237679 0.392608 0.135425 -0.387112
O106  O     O_R   0.139668 0.435617 0.150679 -0.365483
N82   N     N_R   0.216896 0.567247 0.736242 0.224575
O107  O     O_R   0.159604 0.564671 0.632887 -0.326764
O108  O     O_R   0.245704 0.616484 0.778036 -0.398019
N83   N     N_R   0.714935 0.935322 0.202602 0.174715
O109  O     O_R   0.748393 0.888512 0.191434 -0.367202
O110  O     O_R   0.648036 0.935877 0.151103 -0.363824
N84   N     N_R   0.734785 0.067195 0.783191 0.222596
O111  O     O_R   0.692434 0.078907 0.655815 -0.318196
O112  O     O_R   0.765845 0.108613 0.868267 -0.422093

loop_
_geom_bond_atom_site_label_1
_geom_bond_atom_site_label_2
_geom_bond_distance
_ccdc_geom_bond_type
C17   N9    1.464567 S    
O40   C15   1.404396 S    
C31   N3    1.459574 S    
N49   H78   1.043064 S    
N81   O105  1.299477 A    
O8    Ba3   2.980841 S    
N4    H28   1.040554 S    
C59   C91   1.432670 A    
P11   O43   1.769803 S    
P12   O44   1.760379 S    
N7    H34   1.041478 S    
N39   H66   1.037805 S    
C1    C29   1.567170 S    
N34   H55   1.041745 S    
O20   C24   1.437971 S    
C57   N57   1.413903 S    
P5    O46   1.638632 S    
C23   C27   1.639198 S    
C1    H1    1.112008 S    
N27   H50   1.030509 S    
P2    Ba2   3.552109 S    
C65   C69   1.427235 A    
O10   Ba2   2.960488 S    
N24   H44   1.039171 S    
C62   C66   1.443695 A    
C4    N40   1.460159 S    
O30   Ba2   2.937399 S    
C68   C72   1.434738 A    
N30   O75   1.278221 A    
P2    O18   1.812365 S    
N20   O72   1.295639 A    
N35   H58   1.040128 S    
N48   H75   1.038393 S    
O4    Ba4   2.907369 S    
C67   C71   1.429278 A    
P9    C34   1.921558 S    
P4    O8    1.631860 S    
C41   C85   1.445795 A    
P11   C36   1.921741 S    
O15   P16   1.549745 D    
C27   N27   1.463099 S    
N77   H118  1.037559 S    
N21   H37   1.046986 S    
C35   C95   1.431487 A    
C28   N24   1.465872 S    
O22   P13   1.763423 S    
P7    Ba3   3.553721 S    
N62   H95   1.036536 S    
N57   H86   1.034851 S    
C33   C93   1.428299 A    
N84   O111  1.296221 A    
C81   C85   1.431852 A    
C82   C90   1.452876 A    
N3    H25   1.042733 S    
P2    C54   2.003761 S    
C80   C84   1.442535 A    
N70   H104  1.030751 S    
N51   H82   1.044242 S    
O42   C6    1.415157 S    
N8    H35   1.037349 S    
C83   C87   1.430735 A    
P12   C35   1.903335 S    
C29   N1    1.458943 S    
N44   O87   1.299896 A    
O11   P16   1.763169 S    
O39   C16   1.397930 S    
N68   O104  1.300719 A    
N11   O53   1.302000 A    
C14   C18   1.581096 S    
N15   O61   1.296355 A    
C8    H8    1.111855 S    
C23   N19   1.462053 S    
N50   H79   1.039990 S    
N16   O64   1.279737 A    
C20   N12   1.467663 S    
C10   N74   1.462024 S    
N38   H63   1.045921 S    
C35   C39   1.447939 A    
N29   O74   1.284913 A    
C41   C45   1.387702 A    
N69   H101  1.044784 S    
C10   N42   1.470609 S    
P5    O25   1.674219 D    
N67   O101  1.294785 A    
P7    O27   1.674219 D    
P8    O28   1.667378 D    
P8    C63   1.942496 S    
Ba1   O45   2.958735 S    
O37   C14   1.402479 S    
C20   H12   1.111617 S    
Ba3   O47   2.958735 S    
O9    P14   1.767364 S    
O5    Ba2   2.960135 S    
P10   C33   1.892889 S    
C5    N65   1.457608 S    
P6    Ba2   3.556879 S    
N78   H119  1.036768 S    
C75   C77   1.394806 A    
N61   H93   1.037071 S    
C25   N21   1.474029 S    
C6    H6    1.112526 S    
C28   N28   1.460155 S    
O23   P16   1.768435 S    
C72   C86   1.467482 A    
P14   C89   1.927208 S    
O19   C23   1.433903 S    
N8    H36   1.046254 S    
N80   H124  1.032290 S    
N56   O95   1.296511 A    
C43   C47   1.389729 A    
P3    O7    1.624050 S    
Ba4   O48   2.979406 S    
O11   Ba3   2.936713 S    
N51   H81   1.041124 S    
C63   C95   1.420667 A    
N10   O51   1.301497 A    
C51   N51   1.434012 S    
C39   C51   1.417772 A    
N59   H89   1.032717 S    
C42   C46   1.400839 A    
N6    H32   1.046098 S    
C77   C81   1.439353 A    
N46   H72   1.034252 S    
N66   O99   1.296936 A    
C16   N84   1.455144 S    
C58   N58   1.420984 S    
P8    O40   1.757564 S    
C7    N67   1.457389 S    
O1    Ba1   2.906027 S    
C15   N79   1.437233 S    
N79   H121  1.045934 S    
C9    N41   1.473461 S    
N73   H109  1.040756 S    
P7    O48   1.638632 S    
N83   O110  1.294709 A    
C30   N2    1.463637 S    
N13   O57   1.295445 A    
Ba2   O45   3.160083 S    
O17   C21   1.434772 S    
O44   C8    1.416034 S    
C49   N49   1.431357 S    
N1    H22   1.041653 S    
P4    C56   2.004618 S    
N60   H91   1.041724 S    
C43   C87   1.447208 A    
C6    C10   1.566545 S    
P16   C91   1.924728 S    
N18   O67   1.301139 A    
C62   C94   1.419825 A    
N2    H24   1.033325 S    
N25   H45   1.046809 S    
C34   C38   1.442268 A    
N64   H99   1.036967 S    
C38   C50   1.413752 A    
O38   C13   1.415667 S    
C59   N59   1.414225 S    
C45   C51   1.401299 A    
C55   C59   1.433565 A    
O10   P13   1.748869 S    
C66   C74   1.384001 A    
O6    Ba1   2.980841 S    
N18   O68   1.294755 A    
N41   O82   1.300978 A    
N17   O65   1.297815 A    
C30   H14   1.111654 S    
O21   C29   1.413279 S    
C11   N43   1.472839 S    
P12   O32   1.740083 S    
C48   N48   1.406225 S    
O23   C31   1.413692 S    
P6    O38   1.793001 S    
C22   N14   1.436959 S    
O18   C22   1.435814 S    
N42   O84   1.296905 A    
C18   N10   1.467033 S    
N53   O90   1.298673 A    
N40   H68   1.041445 S    
C2    H2    1.112829 S    
N74   H111  1.039164 S    
C13   N81   1.471111 S    
C1    N37   1.463778 S    
Ba3   Ba4   5.029426 S    
C77   N53   1.425338 S    
O2    Ba2   2.907369 S    
C13   N77   1.441677 S    
N47   H74   1.037061 S    
C76   C78   1.402384 A    
C63   C67   1.443491 A    
C26   N22   1.466053 S    
N37   H61   1.036231 S    
C42   C86   1.442546 A    
O41   C5    1.417517 S    
C74   H18   1.076912 S    
N12   O56   1.300714 A    
N83   O109  1.298646 A    
C32   N4    1.461864 S    
C60   C92   1.438476 A    
N58   H88   1.041629 S    
N9    O49   1.300511 A    
N19   O70   1.302011 A    
P9    O33   1.544624 D    
N76   H115  1.040802 S    
N28   H52   1.036721 S    
P10   O30   1.743109 S    
C34   C94   1.413014 A    
P11   O35   1.546805 D    
N15   O62   1.290552 A    
C82   C86   1.433108 A    
N52   H84   1.041683 S    
N43   O86   1.300633 A    
N80   H123  1.040241 S    
N72   H108  1.035799 S    
C7    C11   1.579351 S    
C21   C25   1.640232 S    
C32   H16   1.110020 S    
P1    C53   2.039916 S    
N82   O107  1.292548 A    
C83   C91   1.447546 A    
C84   C92   1.456269 A    
C3    N35   1.468012 S    
C64   C68   1.446068 A    
N26   H47   1.035422 S    
C8    C12   1.569988 S    
N34   H56   1.034890 S    
C44   C56   1.461413 A    
O13   P14   1.550008 D    
P8    O47   1.630685 S    
C25   N29   1.459738 S    
C24   C28   1.641989 S    
N75   H114  1.040837 S    
N5    H29   1.041550 S    
P5    O37   1.777917 S    
N65   O98   1.289343 A    
C15   N83   1.465506 S    
C12   N44   1.478806 S    
N54   O91   1.296413 A    
N30   O76   1.300724 A    
O28   Ba4   2.908713 S    
C3    C31   1.566389 S    
N32   O79   1.282486 A    
N48   H76   1.034996 S    
C17   H9    1.104280 S    
C4    N36   1.466785 S    
C19   H11   1.109225 S    
C50   N50   1.432838 S    
N77   H117  1.042902 S    
N19   O69   1.297900 A    
C16   C20   1.583400 S    
N14   O59   1.297633 A    
C14   N82   1.452881 S    
N57   H85   1.031358 S    
C2    N38   1.465505 S    
N23   H41   1.046916 S    
C39   C71   1.427336 A    
O24   C32   1.417879 S    
C37   C69   1.424602 A    
C2    C30   1.568625 S    
P1    O1    1.667526 D    
C14   N78   1.438203 S    
N79   H122  1.038410 S    
C9    N69   1.467949 S    
P6    O45   1.630685 S    
P3    O3    1.667526 D    
C17   N5    1.462831 S    
P4    O20   1.814900 S    
C6    N66   1.456860 S    
C22   C26   1.633471 S    
N44   O88   1.299892 A    
N63   H97   1.041472 S    
C80   N56   1.422739 S    
P3    Ba3   3.555176 S    
N36   H59   1.045238 S    
P9    O29   1.769324 S    
N45   H70   1.036255 S    
O12   P15   1.756445 S    
O31   Ba3   2.961169 S    
C78   C82   1.435949 A    
N22   H40   1.041676 S    
C96   N64   1.410484 S    
P7    C64   1.962933 S    
P5    C62   1.968292 S    
O25   Ba1   2.910065 S    
N38   H64   1.028686 S    
N4    H27   1.034542 S    
P3    C55   2.037894 S    
C64   C96   1.420339 A    
N29   O73   1.298328 A    
N81   O106  1.293371 A    
C73   H17   1.076570 S    
C52   N52   1.431114 S    
O21   P14   1.768219 S    
C40   C52   1.413109 A    
P1    O5    1.624050 S    
C19   N7    1.459046 S    
C54   C58   1.425581 A    
N55   O93   1.298813 A    
C27   N31   1.460733 S    
C41   C53   1.466232 A    
C18   H10   1.109269 S    
P9    O41   1.767356 S    
N47   H73   1.042261 S    
N14   O60   1.280368 A    
N78   H120  1.040959 S    
N39   H65   1.036059 S    
N3    H26   1.041444 S    
N24   H43   1.046996 S    
P12   O36   1.547567 D    
N35   H57   1.041876 S    
C13   C17   1.617576 S    
O3    Ba3   2.906027 S    
N20   O71   1.301214 A    
N56   O96   1.296562 A    
C48   C50   1.401987 A    
C27   N23   1.471402 S    
C46   N46   1.410421 S    
O12   Ba4   2.960488 S    
N21   H38   1.033107 S    
C3    H3    1.110140 S    
O32   Ba4   2.937399 S    
N33   H54   1.040195 S    
C4    H4    1.111248 S    
N22   H39   1.047022 S    
N66   O100  1.299768 A    
C53   C57   1.432600 A    
C4    C32   1.557643 S    
C28   N32   1.450792 S    
C20   N8    1.458717 S    
O27   Ba3   2.910065 S    
C95   N63   1.442846 S    
C56   C60   1.424966 A    
C11   N75   1.450451 S    
N70   H103  1.034200 S    
C10   N70   1.453626 S    
C19   N11   1.478030 S    
N71   H105  1.044234 S    
O26   Ba2   2.908713 S    
P5    Ba1   3.553721 S    
N13   O58   1.290975 A    
C26   N30   1.444926 S    
N61   H94   1.019117 S    
N68   O103  1.296980 A    
C36   C96   1.409877 A    
C78   N54   1.422433 S    
P10   O34   1.548493 D    
C15   C19   1.587318 S    
P11   O31   1.773268 S    
N1    H21   1.043183 S    
N60   H92   1.042718 S    
C5    H5    1.111912 S    
C16   N80   1.433423 S    
C67   C75   1.387411 A    
C7    H7    1.111722 S    
N16   O63   1.295768 A    
N64   H100  1.037744 S    
N10   O52   1.300454 A    
C84   C88   1.433534 A    
C1    N33   1.467682 S    
N41   O81   1.299823 A    
P15   C92   1.922136 S    
N69   H102  1.040563 S    
Ba1   Ba2   5.029426 S    
C65   C73   1.383773 A    
C61   C65   1.440708 A    
P4    Ba4   3.552109 S    
C45   N45   1.395998 S    
N43   O85   1.300189 A    
C68   C76   1.389667 A    
P1    O17   1.798804 S    
Ba1   O46   3.163513 S    
C21   N13   1.436443 S    
N49   H77   1.040913 S    
P3    O19   1.799776 S    
Ba3   O48   3.163513 S    
P4    O4    1.674383 D    
C25   N25   1.463340 S    
C58   C90   1.436418 A    
C47   N47   1.401584 S    
N53   O89   1.299148 A    
N74   H112  1.044128 S    
C8    N68   1.447120 S    
C21   N17   1.461586 S    
N31   O78   1.285032 A    
N50   H80   1.042213 S    
N11   O54   1.300034 A    
N23   H42   1.032338 S    
O24   P15   1.761229 S    
C81   C89   1.448909 A    
C5    C9    1.575548 S    
C71   C85   1.471232 A    
C33   C37   1.451598 A    
Ba4   O47   3.160083 S    
O7    Ba4   2.960135 S    
Ba2   O46   2.979406 S    
N6    H31   1.040091 S    
N63   H98   1.028796 S    
C79   N55   1.423236 S    
N75   H113  1.040411 S    
C24   N16   1.438081 S    
O22   C30   1.422643 S    
N76   H116  1.045300 S    
C74   C80   1.399451 A    
O16   P15   1.546465 D    
P7    O39   1.774738 S    
C11   N71   1.471130 S    
C57   C89   1.432872 A    
C38   C70   1.430176 A    
P2    O2    1.674383 D    
C43   C55   1.465131 A    
C44   C48   1.399509 A    
C12   N76   1.458091 S    
N73   H110  1.041099 S    
N82   O108  1.300960 A    
O43   C7    1.421486 S    
P6    O26   1.667378 D    
C23   N15   1.435942 S    
N26   H48   1.037528 S    
N33   H53   1.042224 S    
N2    H23   1.032410 S    
N25   H46   1.029107 S    
C79   C83   1.440255 A    
N67   O102  1.290490 A    
P6    C61   1.937524 S    
C18   N6    1.465893 S    
N62   H96   1.035801 S    
N55   O94   1.299492 A    
C60   N60   1.425853 S    
C69   C87   1.468280 A    
C2    N34   1.462629 S    
C70   C88   1.468266 A    
N59   H90   1.035438 S    
P8    Ba4   3.556879 S    
N5    H30   1.037035 S    
N17   O66   1.301975 A    
C24   N20   1.463563 S    
N65   O97   1.295279 A    
C3    N39   1.463148 S    
N31   O77   1.298315 A    
N54   O92   1.298584 A    
C44   C88   1.442733 A    
P13   C90   1.931157 S    
C40   C72   1.430319 A    
N32   O80   1.301162 A    
P2    O6    1.631860 S    
N42   O83   1.297139 A    
C26   N26   1.453688 S    
P10   O42   1.756162 S    
N40   H67   1.039556 S    
C42   C54   1.462852 A    
P1    Ba1   3.555176 S    
O9    Ba1   2.936713 S    
C46   C52   1.402842 A    
C73   C79   1.393233 A    
O29   Ba1   2.961169 S    
C47   C49   1.403004 A    
C12   N72   1.460696 S    
N84   O112  1.299319 A    
C29   H13   1.103855 S    
C75   H19   1.075718 S    
N46   H71   1.039274 S    
C94   N62   1.409487 S    
O14   P13   1.545784 D    
N37   H62   1.038564 S    
N71   H106  1.042256 S    
C22   N18   1.463972 S    
N12   O55   1.298841 A    
N27   H49   1.046734 S    
N58   H87   1.041479 S    
N9    O50   1.302213 A    
N36   H60   1.043505 S    
N45   H69   1.044166 S    
N28   H51   1.024327 S    
C93   N61   1.438388 S    
N52   H83   1.040734 S    
C66   C70   1.434855 A    
C61   C93   1.409086 A    
N72   H107  1.042288 S    
C31   H15   1.104813 S    
N7    H33   1.042148 S    
C37   C49   1.420315 A    
C76   H20   1.074790 S    
C36   C40   1.441819 A    
C9    N73   1.452251 S    
