data_mof_unit_15936.cif
_audit_creation_date              2012-12-10T18:58:14-0500
_audit_creation_method            fapswitch 2.2
_symmetry_space_group_name_H-M    P1
_symmetry_Int_Tables_number       1
_space_group_crystal_system       triclinic
_cell_length_a                    11.073027
_cell_length_b                    10.827348
_cell_length_c                    9.544763
_cell_angle_alpha                 90.255377
_cell_angle_beta                  102.839179
_cell_angle_gamma                 90.176912
_cell_volume                      1115.70415646

loop_
_atom_site_label
_atom_site_type_symbol
_atom_type_description
_atom_site_fract_x
_atom_site_fract_y
_atom_site_fract_z
_atom_type_partial_charge
C1    C     C_R   0.501494 0.262401 0.500113 0.798990
C2    C     C_R   0.510654 0.129312 0.502982 -0.085592
C3    C     C_R   0.547939 0.063967 0.392522 -0.206227
C4    C     C_R   0.547569 0.935126 0.393094 -0.183557
C5    C     C_R   0.510220 0.871034 0.504319 -0.109930
C6    C     C_R   0.487069 0.937235 0.621636 0.077423
C7    C     C_3   0.375595 0.932769 0.686495 -0.214418
C8    C     C_3   0.375621 0.073077 0.684017 -0.503980
C9    C     C_R   0.553680 0.594907 0.087721 0.300245
C10   C     C_R   0.435632 0.413577 0.057421 -0.058228
C11   C     C_R   0.435383 0.413771 0.908427 -0.056097
C12   C     C_R   0.262797 0.498939 0.441614 0.859845
C13   C     C_R   0.553847 0.594657 0.940591 0.274285
C14   C     C_3   0.685546 0.635402 0.967968 -0.456190
C15   C     C_3   0.685781 0.635441 0.127109 -0.515166
C16   C     C_R   0.501101 0.737709 0.500626 0.800084
C17   C     C_R   0.737355 0.499436 0.558801 0.792835
C18   C     C_2   0.127858 0.495459 0.409103 -0.372506
C19   C     C_2   0.069004 0.491562 0.516989 -0.095896
C20   C     C_2   0.872610 0.498940 0.594656 0.214773
C21   C     C_2   0.934271 0.488798 0.489023 -0.225615
C22   C     C_R   0.486501 0.064729 0.619743 0.114871
Cu1   Cu    Cu3+1 0.499990 0.499980 0.640670 0.971354
Cu2   Cu    Cu3+1 0.500010 0.500020 0.359330 0.957666
H1    H     H_    0.884357 0.478773 0.378116 0.148367
H2    H     H_    0.398224 0.118358 0.791600 0.194066
H3    H     H_    0.385477 0.342243 0.099909 0.146711
H4    H     H_    0.384591 0.342985 0.839196 0.139896
H5    H     H_    0.747356 0.564114 0.938098 0.258587
H6    H     H_    0.695349 0.729226 0.924894 0.208464
H7    H     H_    0.747634 0.564052 0.187098 0.213796
H8    H     H_    0.696524 0.729199 0.176268 0.200038
H9    H     H_    0.121383 0.491324 0.627509 0.234085
H10   H     H_    0.076767 0.495940 0.297789 0.176555
H11   H     H_    0.572940 0.111889 0.303620 0.166154
H12   H     H_    0.572249 0.886126 0.304367 0.168766
H13   H     H_    0.293045 0.889339 0.615296 0.154610
H14   H     H_    0.293763 0.112221 0.608321 0.191115
N1    N     N_R   0.500780 0.500930 0.148120 -0.194533
N2    N     N_R   0.500790 0.500890 0.852210 -0.195269
O1    O     O_R   0.500000 0.319640 0.618810 -0.581032
O2    O     O_R   0.500010 0.319680 0.381230 -0.593001
O3    O     O_R   0.320680 0.500000 0.575130 -0.583887
O4    O     O_R   0.320690 0.500040 0.337550 -0.565875
O5    O     O_R   0.499990 0.680320 0.618770 -0.581254
O6    O     O_R   0.500000 0.680360 0.381190 -0.576129
O7    O     O_R   0.679310 0.499960 0.662450 -0.543437
O8    O     O_R   0.679320 0.500000 0.424870 -0.611122
Cl1   Cl    Cl    0.949286 0.513579 0.777740 -0.654111
C23   C     C_1   0.403750 0.884193 0.833708 0.315114
N3    N     N_1   0.425105 0.847515 0.950225 -0.315646

loop_
_geom_bond_atom_site_label_1
_geom_bond_atom_site_label_2
_ccdc_geom_bond_type
C16   O5    A    
C2    C22   A    
C8    C22   S    
Cu1   Cu2   S    
C4    H12   S    
C15   H7    S    
C20   Cl1   S    
Cu1   O5    S    
Cu2   O2    S    
Cu1   O1    S    
C10   H3    S    
C3    H11   S    
C17   O8    A    
Cu2   O6    S    
Cu2   N1    S    
C23   N3    T    
C7    H13   S    
Cu1   O3    S    
C15   H8    S    
C12   O4    A    
C13   C14   S    
C18   H10   S    
C6    C7    S    
C8    H14   S    
C11   H4    S    
C14   H6    S    
C4    C5    A    
C1    O1    A    
C19   C21   S    
C2    C3    A    
C12   O3    A    
C9    C15   S    
C5    C6    A    
Cu2   O4    S    
Cu1   O7    S    
C10   C11   A    
C14   H5    S    
C12   C18   S    
C11   N2    A    
C6    C22   A    
C17   O7    A    
C1    O2    A    
C7    C8    S    
C17   C20   S    
C8    H2    S    
C20   C21   D    
C1    C2    S    
C19   H9    S    
C16   O6    A    
Cu1   N2    S    
C9    C13   A    
C14   C15   S    
C18   C19   D    
C5    C16   S    
C21   H1    S    
C9    N1    A    
C3    C4    A    
C7    C23   S    
C10   N1    A    
C13   N2    A    
Cu2   O8    S    
