data_mof_unit_63520.cif
_audit_creation_date              2012-12-10T16:51:58-0500
_audit_creation_method            fapswitch 2.2
_symmetry_space_group_name_H-M    P1
_symmetry_Int_Tables_number       1
_space_group_crystal_system       triclinic
_cell_length_a                    18.385958
_cell_length_b                    18.3312
_cell_length_c                    18.418261
_cell_angle_alpha                 90.81887
_cell_angle_beta                  119.480073
_cell_angle_gamma                 119.576821
_cell_volume                      4420.24498516

loop_
_atom_site_label
_atom_site_type_symbol
_atom_type_description
_atom_site_fract_x
_atom_site_fract_y
_atom_site_fract_z
_atom_type_partial_charge
C1    C     C_R   0.777033 0.639282 0.638307 0.581407
C2    C     C_2   0.111549 0.304984 0.309281 -0.009914
C3    C     C_2   0.435029 0.165503 0.722904 -0.082319
C4    C     C_R   0.222711 0.361034 0.361236 0.541123
C5    C     C_2   0.514277 0.194993 0.807422 0.241768
C6    C     C_2   0.440345 0.216505 0.662337 0.250130
C7    C     C_2   0.490490 0.305648 0.693165 0.031653
C8    C     C_2   0.056561 0.776723 0.720739 -0.125698
C9    C     C_2   0.113485 0.796225 0.808402 -0.056043
C10   C     C_2   0.945458 0.708251 0.667077 0.216951
C11   C     C_2   0.887032 0.705890 0.692778 0.268470
C12   C     C_3   0.568541 0.766618 0.835596 -0.114024
C13   C     C_2   0.463907 0.165088 0.246256 0.260871
C14   C     C_2   0.528953 0.193702 0.222324 0.243719
C15   C     C_2   0.485210 0.228116 0.313103 0.254413
C16   C     C_R   0.501082 0.639772 0.362760 0.550212
C17   C     C_2   0.489848 0.301280 0.297912 0.254996
C18   C     C_2   0.469626 0.804958 0.250522 0.235910
C19   C     C_2   0.512088 0.817038 0.205239 -0.098096
C20   C     C_2   0.486275 0.759163 0.316215 0.233198
C21   C     C_2   0.498795 0.694056 0.306033 -0.085711
C22   C     C_R   0.502198 0.138864 0.861848 0.516694
C23   C     C_3   0.594026 0.792074 0.767095 -0.123464
C24   C     C_R   0.501913 0.863340 0.140638 0.534790
C25   C     C_R   0.777175 0.138805 0.138044 0.530806
C26   C     C_R   0.223309 0.860348 0.861859 0.520301
C27   C     C_R   0.504141 0.140999 0.145137 0.572782
C28   C     C_R   0.498697 0.361101 0.638150 0.541916
C29   C     C_R   0.500270 0.858434 0.858511 0.548900
C30   C     C_R   0.499514 0.358754 0.359038 0.578866
C31   C     C_R   0.499888 0.641691 0.641519 0.555496
C32   C     C_3   0.474510 0.673880 0.765929 0.234747
C33   C     C_3   0.406202 0.708157 0.732870 -0.139788
C34   C     C_3   0.525717 0.826355 0.734042 0.240660
C35   C     C_3   0.500510 0.801086 0.801490 0.014861
C36   C     C_3   0.431692 0.733612 0.664374 -0.108365
C37   C     C_3   0.499719 0.699140 0.698492 0.022920
C38   C     C_2   0.942511 0.161463 0.219068 -0.147958
C39   C     C_2   0.887778 0.195549 0.188385 -0.103263
C40   C     C_2   0.055058 0.216174 0.267977 0.223254
Cl1   Cl    Cl    0.933869 0.790177 0.784123 -0.547301
Cl2   Cl    Cl    0.342187 0.062143 0.189969 -0.390328
Cl3   Cl    Cl    0.440101 0.571268 0.786744 -0.523564
Cl4   Cl    Cl    0.653605 0.294968 0.288999 -0.483836
Cl5   Cl    Cl    0.507263 0.205626 0.412413 -0.415592
Cl6   Cl    Cl    0.462782 0.321780 0.196819 -0.499221
Cl7   Cl    Cl    0.394925 0.844705 0.237602 -0.368244
Cl8   Cl    Cl    0.488655 0.792785 0.408624 -0.412226
Cl9   Cl    Cl    0.560055 0.928922 0.713132 -0.470835
H1    H     H_    0.329468 0.673985 0.719948 0.158041
H2    H     H_    0.670752 0.826234 0.780000 0.177299
H3    H     H_    0.376204 0.720361 0.593737 0.186180
H4    H     H_    0.903490 0.090009 0.205852 0.161021
H5    H     H_    0.922878 0.265718 0.196594 0.120699
H6    H     H_    0.659068 0.281457 0.900863 0.360181
H7    H     H_    0.359813 0.107834 0.564579 0.350226
H8    H     H_    0.954582 0.656353 0.581755 0.342078
H9    H     H_    0.049938 0.110856 0.237424 0.341983
H10   H     H_    0.076855 0.338829 0.308318 0.071784
H11   H     H_    0.364089 0.100236 0.695558 0.113482
H12   H     H_    0.524436 0.339922 0.761290 0.144928
H13   H     H_    0.092030 0.806308 0.686547 0.155097
H14   H     H_    0.079051 0.762124 0.841969 0.173764
H15   H     H_    0.563103 0.797070 0.220180 0.081640
H16   H     H_    0.501660 0.675858 0.251686 0.075593
H17   H     H_    0.624060 0.779880 0.906224 0.175786
O1    O     O_3   0.500000 0.500000 0.500000 -0.511022
O2    O     O_R   0.270900 0.886160 0.946260 -0.499335
O3    O     O_R   0.560160 0.177420 0.117340 -0.491669
O4    O     O_R   0.729180 0.615300 0.675360 -0.509444
O5    O     O_R   0.440020 0.882760 0.822680 -0.509883
O6    O     O_R   0.439990 0.057240 0.117340 -0.493345
O7    O     O_R   0.560190 0.882760 0.942820 -0.539579
O8    O     O_R   0.729270 0.053840 0.113900 -0.537206
O9    O     O_R   0.270910 0.884750 0.824690 -0.549994
O10   O     O_R   0.560170 0.175430 0.946260 -0.535828
O11   O     O_R   0.440000 0.886160 0.115330 -0.470320
O12   O     O_R   0.439910 0.615300 0.386140 -0.484288
O13   O     O_R   0.270820 0.446200 0.386140 -0.550162
O14   O     O_R   0.560090 0.613880 0.384720 -0.528732
O15   O     O_R   0.439920 0.324620 0.553780 -0.458348
O16   O     O_R   0.560100 0.442800 0.382710 -0.495678
O17   O     O_R   0.560070 0.617290 0.677370 -0.502535
O18   O     O_R   0.439930 0.322630 0.382710 -0.502000
O19   O     O_R   0.439900 0.617290 0.557220 -0.524995
O20   O     O_3   0.608177 0.273838 0.840178 -0.693790
O21   O     O_3   0.390809 0.172291 0.573892 -0.604111
O22   O     O_3   0.900519 0.645328 0.589182 -0.651473
O23   O     O_R   0.560080 0.446200 0.675360 -0.534593
O24   O     O_3   0.102740 0.175201 0.272709 -0.617596
O25   O     O_R   0.729180 0.613880 0.553780 -0.492728
O26   O     O_R   0.270820 0.324620 0.384720 -0.463526
O27   O     O_3   0.500090 0.000040 0.000040 -0.487304
O28   O     O_R   0.440010 0.053840 0.824690 -0.540907
O29   O     O_R   0.560180 0.884750 0.113900 -0.543430
O30   O     O_R   0.729260 0.175430 0.115330 -0.520968
Zn1   Zn    Zn3+2 0.414150 0.543930 0.458110 1.006153
Zn2   Zn    Zn3+2 0.585850 0.541910 0.456060 1.035253
Zn3   Zn    Zn3+2 0.414160 0.370220 0.456060 1.067359
Zn4   Zn    Zn3+2 0.585840 0.543930 0.629770 1.023947
Zn5   Zn    Zn3+2 0.585940 0.956110 0.041940 0.969164
Zn6   Zn    Zn3+2 0.585930 0.129820 0.043980 1.016620
Zn7   Zn    Zn3+2 0.414240 0.958130 0.043980 1.059572
Zn8   Zn    Zn3+2 0.414250 0.956110 0.870280 0.980916

loop_
_geom_bond_atom_site_label_1
_geom_bond_atom_site_label_2
_ccdc_geom_bond_type
O5    Zn8   S    
C16   C21   S    
C31   O19   A    
O30   Zn6   S    
C22   O28   A    
C1    C11   S    
O2    Zn7   S    
C22   O10   A    
C3    C6    S    
C18   Cl7   S    
O27   Zn7   S    
O3    Zn6   S    
C12   C23   S    
C10   O22   S    
C36   C37   S    
C34   C35   S    
C38   C39   D    
C39   H5    S    
C29   O7    A    
C33   C36   S    
C31   O17   A    
C4    O26   A    
C25   O8    A    
C7    H12   S    
O1    Zn2   S    
C5    C22   S    
C8    C9    D    
C28   O23   A    
C14   C27   S    
C18   C20   S    
C36   H3    S    
O1    Zn3   S    
C21   H16   S    
C3    H11   S    
O7    Zn5   S    
O28   Zn8   S    
C1    O25   A    
C13   C14   D    
C12   C32   S    
C17   C30   S    
O16   Zn2   S    
O27   Zn8   S    
C13   Cl2   S    
O4    Zn4   S    
C9    C26   S    
O10   Zn6   S    
C6    O21   S    
O23   Zn4   S    
C17   Cl6   S    
C4    O13   A    
C24   O29   A    
O27   Zn5   S    
C2    H10   S    
C18   C19   D    
H7    O21   S    
O15   Zn3   S    
C33   H1    S    
C23   C37   S    
C12   H17   S    
C7    C28   S    
C31   C37   S    
C16   O14   A    
C30   O16   A    
C2    C4    S    
C23   H2    S    
C19   H15   S    
C23   C34   S    
O12   Zn1   S    
C26   O9    A    
C32   C37   S    
C12   C35   S    
H9    O24   S    
C20   Cl8   S    
O1    Zn4   S    
O8    Zn5   S    
C5    O20   S    
O17   Zn4   S    
C13   C15   S    
O9    Zn8   S    
O11   Zn7   S    
C15   Cl5   S    
C14   Cl4   S    
C15   C17   D    
C34   Cl9   S    
O14   Zn2   S    
C28   O15   A    
C9    H14   S    
O18   Zn3   S    
O13   Zn1   S    
C3    C5    D    
C27   O3    A    
O27   Zn6   S    
C6    C7    D    
O6    Zn7   S    
C29   C35   S    
C1    O4    A    
H8    O22   S    
C26   O2    A    
C32   C33   S    
H6    O20   S    
C19   C24   S    
C25   C39   S    
C38   C40   S    
C38   H4    S    
C33   C35   S    
C32   Cl3   S    
C11   Cl1   S    
C16   O12   A    
O25   Zn2   S    
C30   O18   A    
O19   Zn1   S    
C10   C11   D    
O1    Zn1   S    
C2    C40   D    
C24   O11   A    
C20   C21   D    
C34   C36   S    
C25   O30   A    
C8    C10   S    
C40   O24   S    
C27   O6    A    
O29   Zn5   S    
O26   Zn3   S    
C8    H13   S    
C29   O5    A    
