data_mof_unit_64342.cif
_audit_creation_date              2012-12-10T20:57:13-0500
_audit_creation_method            fapswitch 2.2
_symmetry_space_group_name_H-M    P1
_symmetry_Int_Tables_number       1
_space_group_crystal_system       triclinic
_cell_length_a                    15.8535
_cell_length_b                    15.093685
_cell_length_c                    14.975103
_cell_angle_alpha                 89.992734
_cell_angle_beta                  89.965428
_cell_angle_gamma                 90.07871
_cell_volume                      3583.35441772

loop_
_atom_site_label
_atom_site_type_symbol
_atom_type_description
_atom_site_fract_x
_atom_site_fract_y
_atom_site_fract_z
_atom_type_partial_charge
Br1   Br    Br    0.331095 0.571526 0.745692 -0.440450
Br2   Br    Br    0.668905 0.428474 0.254307 -0.440450
Br3   Br    Br    0.106033 0.690042 0.523597 -0.230430
Br4   Br    Br    0.893967 0.309958 0.476403 -0.230430
Br5   Br    Br    0.894923 0.690348 0.523405 -0.257693
Br6   Br    Br    0.105077 0.309652 0.476595 -0.257693
C1    C     C_R   0.338983 0.499943 0.499914 0.937921
C2    C     C_R   0.086998 0.499883 0.500021 -0.145582
C3    C     C_1   0.824018 0.500198 0.500030 0.153605
C4    C     C_1   0.175982 0.499801 0.499970 0.153605
C5    C     C_1   0.250751 0.499827 0.499927 -0.022156
C6    C     C_1   0.749248 0.500173 0.500073 -0.022156
C7    C     C_R   0.423445 0.952844 0.501260 0.328023
C8    C     C_R   0.576555 0.047156 0.498740 0.328023
C9    C     C_R   0.576561 0.953082 0.498765 0.320618
C10   C     C_R   0.423439 0.046918 0.501235 0.320618
C11   C     C_R   0.500006 0.905026 0.500015 -0.282859
C12   C     C_R   0.661017 0.500057 0.500086 0.937921
C13   C     C_R   0.499994 0.094974 0.499984 -0.282859
C14   C     C_1   0.500005 0.807017 0.500009 0.354794
C15   C     C_1   0.499995 0.192983 0.499991 0.354794
C16   C     C_R   0.500307 0.500000 0.326794 1.004633
C17   C     C_R   0.499693 0.500000 0.673206 1.004632
C18   C     C_R   0.570759 0.468072 0.813089 0.287021
C19   C     C_R   0.429241 0.531928 0.186911 0.287021
C20   C     C_R   0.499614 0.499995 0.768324 -0.207826
C21   C     C_R   0.500386 0.500004 0.231676 -0.207826
C22   C     C_R   0.428485 0.531893 0.813317 0.155257
C23   C     C_R   0.358933 0.564063 0.046522 -0.112675
C24   C     C_R   0.571515 0.468107 0.186683 0.155257
C25   C     C_R   0.428476 0.532299 0.906521 0.060067
C26   C     C_R   0.571524 0.467701 0.093479 0.060067
C27   C     C_R   0.499897 0.500004 0.953121 0.007494
C28   C     C_R   0.500103 0.499996 0.046878 0.007494
C29   C     C_R   0.571114 0.467700 0.906210 0.036240
C30   C     C_R   0.428886 0.532300 0.093790 0.036239
C31   C     C_R   0.358739 0.564067 0.954239 -0.127459
C32   C     C_R   0.641260 0.435933 0.045761 -0.127459
C33   C     C_R   0.641067 0.435937 0.953478 -0.112675
C34   C     C_R   0.956217 0.580655 0.509942 0.217995
C35   C     C_R   0.043783 0.419345 0.490058 0.217995
C36   C     C_R   0.044179 0.580533 0.509980 0.232097
C37   C     C_R   0.955821 0.419467 0.490020 0.232097
C38   C     C_R   0.913002 0.500117 0.499979 -0.145582
Cl1   Cl    Cl    0.659772 0.431299 0.751030 -0.566757
Cl2   Cl    Cl    0.340228 0.568701 0.248970 -0.566757
Cl3   Cl    Cl    0.326637 0.104796 0.502768 -0.407382
Cl4   Cl    Cl    0.673363 0.895204 0.497232 -0.407382
Cl5   Cl    Cl    0.673344 0.105345 0.497119 -0.389448
Cl6   Cl    Cl    0.326656 0.894655 0.502881 -0.389448
H1    H     H_    0.303191 0.589501 0.921310 0.211722
H2    H     H_    0.696809 0.410499 0.078690 0.211722
H3    H     H_    0.303547 0.589439 0.079996 0.220019
H4    H     H_    0.696453 0.410561 0.920004 0.220019
N1    N     N_1   0.500000 0.270550 0.500000 -0.068629
N2    N     N_1   0.500000 0.729450 0.500000 -0.068629
O1    O     O_R   0.378020 0.573650 0.500030 -0.573297
O2    O     O_R   0.621980 0.426350 0.499970 -0.573297
O3    O     O_R   0.621980 0.573650 0.499970 -0.610402
O4    O     O_R   0.378020 0.426350 0.500030 -0.610402
O5    O     O_R   0.499980 0.573670 0.367860 -0.591874
O6    O     O_R   0.500020 0.426330 0.632140 -0.591874
O7    O     O_R   0.500020 0.573670 0.632140 -0.597988
O8    O     O_R   0.499980 0.426330 0.367860 -0.597988
Zn1   Zn    Zn3+2 0.500000 0.598370 0.500000 1.105405
Zn2   Zn    Zn3+2 0.500000 0.401630 0.500000 1.105405

loop_
_geom_bond_atom_site_label_1
_geom_bond_atom_site_label_2
_ccdc_geom_bond_type
Br1   C22   S    
C29   C33   A    
C37   C38   A    
O7    Zn1   S    
Br3   C36   S    
C9    C11   A    
Br4   C37   S    
C26   C32   A    
C19   C21   A    
C18   C29   A    
C1    O4    A    
C20   C22   A    
C7    C11   A    
C14   N2    T    
O1    Zn1   S    
C11   C14   S    
C17   O7    A    
C27   C28   A    
O4    Zn2   S    
O8    Zn2   S    
O3    Zn1   S    
C16   O5    A    
C1    C5    S    
C35   C37   A    
C23   C30   A    
O2    Zn2   S    
C23   H3    S    
C9    Cl4   S    
C10   C13   A    
C18   Cl1   S    
C8    C13   A    
C10   Cl3   S    
C34   C36   A    
C33   H4    S    
C13   C15   S    
C2    C36   A    
C28   C30   A    
C16   C21   S    
C22   C25   A    
C32   C33   A    
C31   H1    S    
C3    C6    T    
C7    C10   A    
C8    Cl5   S    
C32   H2    S    
C25   C27   A    
O6    Zn2   S    
C19   C30   A    
C16   O8    A    
C7    Cl6   S    
C24   C26   A    
O5    Zn1   S    
C12   O3    A    
C34   C38   A    
N1    Zn2   S    
Br2   C24   S    
C2    C35   A    
C2    C4    S    
C4    C5    T    
C17   C20   S    
C23   C31   A    
C15   N1    T    
C21   C24   A    
C8    C9    A    
C3    C38   S    
C27   C29   A    
C26   C28   A    
Br5   C34   S    
C19   Cl2   S    
C1    O1    A    
C17   O6    A    
N2    Zn1   S    
C25   C31   A    
C12   O2    A    
C18   C20   A    
Br6   C35   S    
C6    C12   S    
