data_mof_unit_18477.cif
_audit_creation_date              2012-12-10T18:21:26-0500
_audit_creation_method            fapswitch 2.2
_symmetry_space_group_name_H-M    P1
_symmetry_Int_Tables_number       1
_space_group_crystal_system       triclinic
_cell_length_a                    15.043379
_cell_length_b                    14.003357
_cell_length_c                    10.730489
_cell_angle_alpha                 90.038791
_cell_angle_beta                  90.776693
_cell_angle_gamma                 89.715364
_cell_volume                      2260.22527657

loop_
_atom_site_label
_atom_site_type_symbol
_atom_type_description
_atom_site_fract_x
_atom_site_fract_y
_atom_site_fract_z
_atom_type_partial_charge
C1    C     C_R   0.326803 0.500102 0.496245 0.850226
C2    C     C_R   0.049151 0.632732 0.646731 -0.219144
C3    C     C_R   0.094361 0.565113 0.574557 0.099904
C4    C     C_R   0.496214 0.500258 0.257243 0.882329
C5    C     C_R   0.046195 0.507532 0.489808 0.027982
C6    C     C_R   0.090868 0.447798 0.404416 0.114031
C7    C     C_R   0.040907 0.385291 0.328468 -0.235332
C8    C     C_R   0.948999 0.384443 0.333471 -0.132953
C9    C     C_R   0.186115 0.551420 0.588177 0.078829
C10   C     C_R   0.230935 0.500786 0.493822 -0.146685
C11   C     C_R   0.184102 0.452908 0.396778 0.079476
C12   C     C_3   0.589618 0.501184 0.930185 -0.399384
C13   C     C_R   0.556365 0.798905 0.426431 -0.101262
C14   C     C_R   0.557780 0.200348 0.428707 -0.090751
C15   C     C_R   0.441297 0.795681 0.574884 0.722193
C16   C     C_R   0.440775 0.204998 0.574148 0.736436
C17   C     C_R   0.435664 0.897781 0.578237 -0.119566
C18   C     C_R   0.436721 0.102904 0.580039 -0.124891
C19   C     C_R   0.673183 0.499901 0.503946 0.942923
C20   C     C_R   0.495787 0.949305 0.503498 -0.062825
C21   C     C_R   0.495967 0.050697 0.503841 -0.062884
C22   C     C_R   0.556261 0.899086 0.426704 -0.196429
C23   C     C_R   0.812660 0.443867 0.420516 0.529466
C24   C     C_R   0.556922 0.100195 0.427813 -0.202751
C25   C     C_R   0.373173 0.949402 0.652584 0.136511
C26   C     C_R   0.376257 0.051886 0.657600 0.127448
C27   C     C_R   0.616004 0.049090 0.352390 0.554620
C28   C     C_R   0.615533 0.949515 0.351622 0.561079
C29   C     C_R   0.495879 0.499835 0.742137 0.880020
C30   C     C_3   0.428027 0.581401 0.065683 -0.161303
C31   C     C_3   0.461159 0.400426 0.069433 -0.149939
C32   C     C_3   0.445447 0.590978 0.924840 0.385976
C33   C     C_3   0.441417 0.410766 0.928396 0.404860
C34   C     C_R   0.768763 0.500381 0.507767 -0.238731
C35   C     C_3   0.588855 0.518750 0.071766 -0.397037
C36   C     C_3   0.493767 0.500984 0.120430 -0.054774
C37   C     C_3   0.493034 0.499451 0.877988 -0.104690
C38   C     C_3   0.425625 0.683138 0.126374 -0.226298
C39   C     C_3   0.351007 0.694780 0.221104 -0.881303
C40   C     C_3   0.526856 0.314404 0.094769 -0.192548
C41   C     C_3   0.476850 0.221544 0.118965 -0.817707
C42   C     C_3   0.233838 0.583190 0.707952 -0.330765
C43   C     C_3   0.199581 0.529368 0.821756 -0.941977
C44   C     C_3   0.232101 0.410769 0.284214 -0.394695
C45   C     C_R   0.815816 0.559377 0.592691 0.033394
C46   C     C_3   0.204790 0.461440 0.163073 -0.920322
C47   C     C_3   0.299922 0.896137 0.721087 -0.369594
C48   C     C_3   0.331677 0.859460 0.848746 -0.758524
C49   C     C_3   0.317396 0.105668 0.749550 -0.339505
C50   C     C_3   0.231990 0.143468 0.687165 -0.771725
C51   C     C_3   0.770099 0.605323 0.704420 -0.361189
C52   C     C_3   0.802704 0.560772 0.827480 -0.880053
C53   C     C_R   0.908211 0.568269 0.577986 0.113201
C54   C     C_R   0.952863 0.507629 0.493490 -0.035681
C55   C     C_R   0.904621 0.445090 0.415381 -0.008236
C56   C     C_R   0.957564 0.635170 0.647082 -0.190687
F1    F     F_    0.390930 0.739298 0.647297 -0.678972
F2    F     F_    0.385656 0.262108 0.639275 -0.637578
F3    F     F_    0.674550 0.095673 0.279037 -0.626249
F4    F     F_    0.673542 0.902267 0.277416 -0.631901
F5    F     F_    0.497747 0.670306 0.899828 -0.644174
F6    F     F_    0.460212 0.326391 0.865897 -0.623506
F7    F     F_    0.765283 0.388098 0.339796 -0.676117
H1    H     H_    0.083677 0.683462 0.705578 0.155784
H2    H     H_    0.608932 0.593576 0.092154 0.223370
H3    H     H_    0.638899 0.471621 0.118255 0.192122
H4    H     H_    0.626853 0.559775 0.886096 0.228775
H5    H     H_    0.624586 0.433274 0.908219 0.186221
H6    H     H_    0.926640 0.688102 0.705786 0.164634
H7    H     H_    0.286702 0.707213 0.171455 0.234467
H8    H     H_    0.343582 0.630124 0.278907 0.283416
H9    H     H_    0.364791 0.757034 0.282413 0.251819
H10   H     H_    0.491261 0.703131 0.166524 0.237898
H11   H     H_    0.411171 0.738820 0.055144 0.235255
H12   H     H_    0.071794 0.335215 0.265665 0.164176
H13   H     H_    0.436798 0.228312 0.204765 0.235313
H14   H     H_    0.432032 0.204070 0.039225 0.282471
H15   H     H_    0.525062 0.161979 0.131882 0.270491
H16   H     H_    0.572332 0.302622 0.015623 0.245154
H17   H     H_    0.572932 0.326478 0.174156 0.219673
H18   H     H_    0.127262 0.540231 0.834511 0.280684
H19   H     H_    0.213065 0.451699 0.811617 0.278109
H20   H     H_    0.233840 0.555458 0.907233 0.236036
H21   H     H_    0.305753 0.568604 0.705511 0.229689
H22   H     H_    0.227491 0.661424 0.721493 0.221438
H23   H     H_    0.912861 0.335361 0.273599 0.211932
H24   H     H_    0.133433 0.451997 0.140014 0.278778
H25   H     H_    0.218133 0.539041 0.170864 0.263547
H26   H     H_    0.243273 0.431554 0.084567 0.239412
H27   H     H_    0.305090 0.417473 0.291546 0.204811
H28   H     H_    0.219313 0.332981 0.276771 0.204490
H29   H     H_    0.338539 0.919116 0.916089 0.223545
H30   H     H_    0.282594 0.808085 0.885640 0.233881
H31   H     H_    0.397177 0.823315 0.842913 0.325720
H32   H     H_    0.239666 0.940320 0.733951 0.188043
H33   H     H_    0.272890 0.837486 0.662783 0.231934
H34   H     H_    0.601559 0.759087 0.368109 0.207874
H35   H     H_    0.246049 0.184281 0.601195 0.285927
H36   H     H_    0.187317 0.083717 0.661186 0.225404
H37   H     H_    0.196439 0.190926 0.753003 0.251165
H38   H     H_    0.298921 0.061406 0.830224 0.181922
H39   H     H_    0.354832 0.163471 0.796837 0.277490
H40   H     H_    0.780866 0.485254 0.832718 0.259431
H41   H     H_    0.876002 0.562236 0.838048 0.271081
H42   H     H_    0.774748 0.601022 0.907119 0.260149
H43   H     H_    0.780836 0.683652 0.704843 0.214689
H44   H     H_    0.697238 0.596575 0.701836 0.220853
H45   H     H_    0.604093 0.239527 0.372117 0.233078
H46   H     H_    0.359667 0.552673 0.073291 0.100665
H47   H     H_    0.397120 0.384101 0.115214 0.134917
H48   H     H_    0.381120 0.602067 0.876168 0.081676
H49   H     H_    0.368903 0.423386 0.913992 0.047088
N1    N     N_R   0.500070 0.750030 0.500050 -0.155417
N2    N     N_R   0.500070 0.249970 0.500050 -0.166956
O1    O     O_R   0.367860 0.580280 0.500020 -0.599942
O2    O     O_R   0.367860 0.419720 0.500020 -0.576286
O3    O     O_R   0.500000 0.580270 0.314790 -0.624592
O4    O     O_R   0.500000 0.419730 0.314790 -0.645269
O5    O     O_R   0.632160 0.580270 0.499960 -0.645373
O6    O     O_R   0.632160 0.419730 0.499960 -0.577507
O7    O     O_R   0.500030 0.580270 0.685200 -0.548527
O8    O     O_R   0.500030 0.419730 0.685200 -0.516977
Zn1   Zn    Zn3+2 0.500020 0.607200 0.499990 0.992533
Zn2   Zn    Zn3+2 0.500020 0.392800 0.499990 1.027545

loop_
_geom_bond_atom_site_label_1
_geom_bond_atom_site_label_2
_ccdc_geom_bond_type
C30   C32   S    
C4    C36   S    
C52   H40   S    
C32   H48   S    
C18   C21   A    
C43   H20   S    
C35   C36   S    
C18   C26   A    
C24   C27   A    
C7    C8    A    
C46   H26   S    
C53   C54   A    
C12   H5    S    
C9    C42   S    
C48   H31   S    
C32   F5    S    
C41   H14   S    
C38   C39   S    
C45   C51   S    
C47   H32   S    
C17   C20   A    
C31   C40   S    
C30   C38   S    
C14   C24   A    
C12   C37   S    
C39   H7    S    
C2    H1    S    
C33   F6    S    
C29   O7    A    
C47   H33   S    
C40   H17   S    
C1    O2    A    
C9    C10   A    
C25   C47   S    
N2    Zn2   S    
C14   H45   S    
C19   O5    A    
C22   C28   A    
C15   F1    S    
C4    O4    A    
C8    C55   A    
C44   C46   S    
C46   H25   S    
C28   F4    S    
C12   H4    S    
C50   H35   S    
O1    Zn1   S    
C48   H30   S    
C30   H46   S    
C51   C52   S    
C5    C54   A    
C42   H21   S    
C26   C49   S    
C42   H22   S    
C41   H15   S    
C34   C45   A    
O4    Zn2   S    
C35   H3    S    
C25   C26   A    
C14   N2    A    
C33   C37   S    
C3    C9    A    
C47   C48   S    
N1    Zn1   S    
C39   H9    S    
C23   C34   A    
C29   O8    A    
C15   N1    A    
C50   H36   S    
C40   H16   S    
C11   C44   S    
C33   H49   S    
C16   F2    S    
C32   C37   S    
C12   C35   S    
C44   H28   S    
C16   C18   A    
C40   C41   S    
C20   C22   A    
C19   O6    A    
C49   C50   S    
C6    C11   A    
C43   H18   S    
C4    O3    A    
C42   C43   S    
O8    Zn2   S    
C49   H39   S    
C44   H27   S    
C46   H24   S    
C38   H11   S    
C53   C56   A    
C15   C17   A    
C54   C55   A    
C52   H41   S    
C31   C33   S    
C39   H8    S    
O2    Zn2   S    
C1    C10   S    
C3    C5    A    
C19   C34   S    
C16   N2    A    
C52   H42   S    
C7    H12   S    
C23   C55   A    
C6    C7    A    
O5    Zn1   S    
C50   H37   S    
C30   C36   S    
C17   C25   A    
C2    C3    A    
O3    Zn1   S    
C27   F3    S    
C41   H13   S    
C49   H38   S    
C5    C6    A    
C51   H43   S    
C23   F7    S    
C31   H47   S    
C13   C22   A    
C8    H23   S    
C13   H34   S    
O7    Zn1   S    
C10   C11   A    
C45   C53   A    
C20   C21   A    
C51   H44   S    
C56   H6    S    
C48   H29   S    
C21   C24   A    
C29   C37   S    
C27   C28   A    
C43   H19   S    
C35   H2    S    
C31   C36   S    
C2    C56   A    
C1    O1    A    
C13   N1    A    
O6    Zn2   S    
C38   H10   S    
