data_mof_unit_54922.cif
_audit_creation_date              2013-03-05T16:48:55-0500
_audit_creation_method            fapswitch 2.2
_symmetry_space_group_name_H-M    P1
_symmetry_Int_Tables_number       1
_space_group_crystal_system       triclinic
_cell_length_a                    10.893042
_cell_length_b                    10.874621
_cell_length_c                    12.712166
_cell_angle_alpha                 91.83798
_cell_angle_beta                  91.233686
_cell_angle_gamma                 90.110311
_cell_volume                      1504.72521915

loop_
_atom_site_label
_atom_site_type_symbol
_atom_site_description
_atom_site_fract_x
_atom_site_fract_y
_atom_site_fract_z
_atom_type_partial_charge
O1    O     O_R   0.313000 0.493330 0.412070 -0.581654
O2    O     O_R   0.687000 0.506670 0.587930 -0.591550
O3    O     O_R   0.326280 0.506660 0.587930 -0.572761
O4    O     O_R   0.673720 0.493340 0.412070 -0.576722
C1    C     C_R   0.261978 0.497650 0.502050 0.813739
C2    C     C_R   0.738171 0.500563 0.498075 0.828359
O5    O     O_R   0.493370 0.312980 0.412070 -0.564747
O6    O     O_R   0.506630 0.687020 0.587930 -0.565689
O7    O     O_R   0.506650 0.326310 0.587930 -0.600177
O8    O     O_R   0.493350 0.673690 0.412070 -0.593591
C3    C     C_R   0.499726 0.261885 0.501639 0.824292
C4    C     C_R   0.499009 0.737997 0.498361 0.834142
Cu1   Cu    Cu3+1 0.492140 0.492110 0.395880 1.018855
Cu2   Cu    Cu3+1 0.507860 0.507890 0.604120 1.008603
H1    H     H_    0.680220 0.283227 0.959167 0.194966
H2    H     H_    0.300539 0.740475 0.035291 0.229231
C5    C     C_R   0.729057 0.248803 0.798626 -0.200070
C6    C     C_R   0.254399 0.772536 0.196689 -0.185708
H3    H     H_    0.811447 0.304192 0.807400 0.206796
H4    H     H_    0.164995 0.730321 0.184325 0.241857
C7    C     C_R   0.700241 0.188141 0.701906 0.384275
C8    C     C_R   0.289576 0.823001 0.296260 0.352378
C9    C     C_R   0.586546 0.123988 0.691592 -0.056527
C10   C     C_R   0.409024 0.875500 0.308795 -0.061722
C11   C     C_R   0.512933 0.111609 0.780240 -0.259701
C12   C     C_R   0.486090 0.880208 0.221681 -0.233963
H5    H     H_    0.429265 0.057730 0.772785 0.199454
H6    H     H_    0.575554 0.923361 0.231402 0.210955
C13   C     C_R   0.547527 0.165099 0.878222 0.399577
C14   C     C_R   0.447641 0.834114 0.122091 0.381960
C15   C     C_R   0.654146 0.237093 0.885519 -0.197872
C16   C     C_R   0.331866 0.778428 0.110928 -0.181946
C17   C     C_R   0.541508 0.936058 0.586566 -0.171954
C18   C     C_R   0.455825 0.063522 0.413411 -0.169019
H7    H     H_    0.575828 0.887160 0.654169 0.186756
H8    H     H_    0.421655 0.112512 0.345810 0.185710
C19   C     C_R   0.498610 0.871471 0.496090 -0.058862
C20   C     C_R   0.498986 0.128155 0.503876 -0.061204
C21   C     C_R   0.454535 0.935930 0.408329 0.092250
C22   C     C_R   0.542498 0.063489 0.591765 0.088134
H9    H     H_    0.214080 0.310586 0.967107 0.210420
H10   H     H_    0.813662 0.469925 0.994872 0.151363
C23   C     C_R   0.210149 0.283422 0.799732 -0.157306
C24   C     C_R   0.814339 0.585754 0.134946 -0.144557
H11   H     H_    0.250119 0.192730 0.802525 0.190350
H12   H     H_    0.784619 0.666440 0.093885 0.195659
C25   C     C_R   0.175059 0.330591 0.703034 -0.050852
C26   C     C_R   0.841211 0.594815 0.242902 -0.072738
H13   H     H_    0.187349 0.274902 0.631849 0.146573
H14   H     H_    0.834221 0.683043 0.284316 0.172831
C27   C     C_R   0.118828 0.446308 0.698615 0.066311
C28   C     C_R   0.882832 0.491283 0.295737 0.046509
C29   C     C_R   0.100382 0.515218 0.792319 -0.230402
C30   C     C_R   0.895398 0.378636 0.240325 -0.169104
H15   H     H_    0.055293 0.603708 0.788727 0.190484
H16   H     H_    0.931782 0.300043 0.280925 0.190235
C31   C     C_R   0.136271 0.468462 0.890217 0.381951
C32   C     C_R   0.872015 0.369657 0.131587 0.392004
C33   C     C_R   0.189718 0.351006 0.892875 -0.129964
C34   C     C_R   0.831082 0.474213 0.079072 -0.158520
C35   C     C_R   0.935582 0.494664 0.593117 -0.127752
C36   C     C_R   0.065007 0.506123 0.408197 -0.124857
H17   H     H_    0.885841 0.486763 0.665592 0.164335
H18   H     H_    0.114366 0.511332 0.335210 0.194069
C37   C     C_R   0.871883 0.501436 0.496243 -0.070661
C38   C     C_R   0.128460 0.496664 0.504449 -0.091206
C39   C     C_R   0.937998 0.503792 0.402364 0.025111
C40   C     C_R   0.062730 0.485564 0.598016 0.043630
N1    N     N_1   0.480320 0.480250 0.239400 -0.161006
N2    N     N_1   0.519680 0.519750 0.760600 -0.162581
C41   C     C_2   0.469154 0.464287 0.031735 -0.231329
C42   C     C_2   0.533143 0.536812 0.968220 -0.288240
C43   C     C_1   0.524738 0.526047 0.852597 0.269769
C44   C     C_1   0.476369 0.474601 0.147376 0.302512
H19   H     H_    0.593555 0.606781 0.003032 0.190832
H20   H     H_    0.410169 0.393603 0.996591 0.185503
N3    N     N_R   0.115653 0.538261 0.986305 0.103085
O9    O     O_R   0.149927 0.495551 0.076783 -0.404612
O10   O     O_R   0.062136 0.645089 0.984270 -0.370706
N4    N     N_R   0.897344 0.256914 0.074385 0.125102
O11   O     O_R   0.931441 0.259019 0.977092 -0.368586
O12   O     O_R   0.898705 0.152761 0.122043 -0.288515
N5    N     N_R   0.789383 0.188955 0.619142 0.115595
O13   O     O_R   0.763781 0.146537 0.524406 -0.361071
O14   O     O_R   0.901934 0.222817 0.640956 -0.366479
N6    N     N_R   0.201741 0.823219 0.380169 0.123563
O15   O     O_R   0.229615 0.865116 0.474653 -0.358130
O16   O     O_R   0.089626 0.785896 0.361044 -0.362418
N7    N     N_R   0.475978 0.144919 0.970090 0.127127
O17   O     O_R   0.518852 0.176553 0.063454 -0.355290
O18   O     O_R   0.370933 0.087827 0.962030 -0.348551
N8    N     N_R   0.524539 0.846713 0.032332 0.132290
O19   O     O_R   0.481419 0.822939 0.937546 -0.353343
O20   O     O_R   0.636809 0.886818 0.044123 -0.325286

loop_
_geom_bond_atom_site_label_1
_geom_bond_atom_site_label_2
_geom_bond_distance
_ccdc_geom_bond_type
C38   C40   1.409798 A    
C29   H15   1.083063 S    
C13   N7    1.440281 S    
C25   H13   1.083477 S    
N3    O9    1.301704 A    
O5    C3    1.283473 A    
C36   C39   1.384036 A    
O1    C1    1.281994 A    
C20   C22   1.412910 A    
C10   C12   1.406138 A    
C41   H20   1.080265 S    
N4    O11   1.299891 A    
N6    O16   1.301662 A    
C31   C33   1.405829 A    
C32   C34   1.405384 A    
C9    C22   1.480699 S    
C4    C19   1.452701 S    
C10   C21   1.482219 S    
O4    Cu1   1.984199 S    
C35   H17   1.084525 S    
C36   H18   1.085304 S    
C5    H3    1.081675 S    
C2    C37   1.457231 S    
C7    N5    1.447235 S    
C28   C30   1.401777 A    
C37   C39   1.407998 A    
N7    O18   1.301320 A    
C18   H8    1.085005 S    
C23   C33   1.395640 A    
C26   H14   1.083098 S    
C6    C8    1.408511 A    
Cu1   Cu2   2.649069 S    
Cu2   N2    1.990622 S    
O2    C2    1.281617 A    
C42   H19   1.082480 S    
C24   H12   1.081828 S    
N3    O10   1.301527 A    
C11   C13   1.401521 A    
C30   H16   1.083835 S    
C17   C22   1.385228 A    
C36   C38   1.399062 A    
C18   C21   1.386972 A    
C31   N3    1.439313 S    
H9    C33   1.081842 S    
N4    O12   1.301456 A    
H10   C34   1.082536 S    
C29   C31   1.407313 A    
N6    O15   1.300419 A    
C42   C43   1.471594 S    
C25   C27   1.402815 A    
C17   C19   1.399381 A    
C27   C29   1.405157 A    
C3    C20   1.455456 S    
O7    Cu2   1.978723 S    
O7    C3    1.283262 A    
N5    O13   1.300107 A    
O5    Cu1   1.965407 S    
O6    C4    1.283452 A    
N2    C43   1.169394 T    
N8    O20   1.301601 A    
N1    C44   1.169330 T    
C23   H11   1.080147 S    
O3    Cu2   1.984201 S    
O8    C4    1.282128 A    
O4    C2    1.286711 A    
N5    O14   1.301032 A    
C12   C14   1.401818 A    
C7    C9    1.421812 A    
C11   H5    1.083327 S    
C5    C15   1.396299 A    
C8    C10   1.423616 A    
O1    Cu1   1.966631 S    
C30   C32   1.400438 A    
O6    Cu2   1.965407 S    
C18   C20   1.400413 A    
C28   C39   1.472990 S    
C1    C38   1.455424 S    
O3    C1    1.285308 A    
O8    Cu1   1.978723 S    
C41   C44   1.471126 S    
H1    C15   1.080159 S    
C32   N4    1.435557 S    
H2    C16   1.082201 S    
C12   H6    1.083755 S    
C41   C42   1.350099 D    
C19   C21   1.412413 A    
C14   C16   1.400423 A    
C35   C40   1.388948 A    
Cu1   N1    1.990623 S    
C24   C34   1.400074 A    
N8    O19   1.301736 A    
C17   H7    1.085039 S    
C6    H4    1.082102 S    
C27   C40   1.481031 S    
C8    N6    1.448105 S    
O2    Cu2   1.966630 S    
C5    C7    1.405695 A    
C35   C37   1.404508 A    
C26   C28   1.400566 A    
C9    C11   1.406871 A    
C6    C16   1.395942 A    
C13   C15   1.399149 A    
N7    O17   1.301696 A    
C23   C25   1.393283 A    
C24   C26   1.397383 A    
C14   N8    1.439832 S    
