data_mof_unit_49383.cif
_audit_creation_date              2012-12-11T15:22:40-0500
_audit_creation_method            fapswitch 2.2
_symmetry_space_group_name_H-M    P1
_symmetry_Int_Tables_number       1
_space_group_crystal_system       triclinic
_cell_length_a                    22.539985
_cell_length_b                    12.946642
_cell_length_c                    26.958077
_cell_angle_alpha                 90.137268
_cell_angle_beta                  90.166079
_cell_angle_gamma                 89.754824
_cell_volume                      7866.70087931

loop_
_atom_site_label
_atom_site_type_symbol
_atom_type_description
_atom_site_fract_x
_atom_site_fract_y
_atom_site_fract_z
_atom_type_partial_charge
Br1   Br    Br    0.778902 0.086199 0.854973 -0.489913
Br2   Br    Br    0.135035 0.029134 0.867536 -0.457363
Br3   Br    Br    0.364421 0.532223 0.131581 -0.463357
Br4   Br    Br    0.635038 0.529161 0.867543 -0.457380
Br5   Br    Br    0.217621 0.086237 0.145484 -0.495758
Br6   Br    Br    0.278904 0.586197 0.854974 -0.489890
Br7   Br    Br    0.717619 0.586234 0.145478 -0.495744
Br8   Br    Br    0.510098 0.372227 0.850240 -0.438487
Br9   Br    Br    0.488831 0.371950 0.149925 -0.444765
Br10  Br    Br    0.010095 0.872225 0.850241 -0.438484
Br11  Br    Br    0.988826 0.871948 0.149927 -0.444775
Br12  Br    Br    0.864419 0.032233 0.131579 -0.463363
C1    C     C_R   0.720784 0.344411 0.178186 0.574485
C2    C     C_R   0.487832 0.261013 0.894180 0.141770
C3    C     C_R   0.904809 0.640917 0.534500 -0.113754
C4    C     C_R   0.490160 0.085322 0.388550 -0.121149
C5    C     C_R   0.391243 0.135458 0.584918 -0.141304
C6    C     C_R   0.990280 0.585204 0.388595 -0.121153
C7    C     C_R   0.891307 0.635133 0.584924 -0.141287
C8    C     C_R   0.741701 0.950665 0.370174 0.027933
C9    C     C_R   0.258991 0.951674 0.629231 0.022973
C10   C     C_R   0.241715 0.450628 0.370163 0.027937
C11   C     C_R   0.758946 0.451556 0.629267 0.022976
C12   C     C_R   0.692739 0.912088 0.396128 -0.124485
C13   C     C_R   0.012172 0.760864 0.105854 0.142438
C14   C     C_R   0.308040 0.910228 0.604078 -0.134563
C15   C     C_R   0.192762 0.412011 0.396116 -0.124492
C16   C     C_R   0.807960 0.409953 0.604126 -0.134611
C17   C     C_R   0.697480 0.891454 0.446318 -0.122924
C18   C     C_R   0.305517 0.895784 0.553217 -0.129760
C19   C     C_R   0.197517 0.391333 0.446302 -0.122912
C20   C     C_R   0.805416 0.395427 0.553270 -0.129768
C21   C     C_R   0.751590 0.906663 0.470934 0.034077
C22   C     C_R   0.253030 0.917817 0.527177 0.033185
C23   C     C_R   0.251631 0.406544 0.470913 0.034061
C24   C     C_R   0.987829 0.761012 0.894181 0.141771
C25   C     C_R   0.752939 0.417532 0.527228 0.033195
C26   C     C_R   0.802103 0.934712 0.443899 -0.121836
C27   C     C_R   0.201873 0.947081 0.553382 -0.125208
C28   C     C_R   0.302135 0.434629 0.443875 -0.121843
C29   C     C_R   0.701803 0.446912 0.553432 -0.125212
C30   C     C_R   0.797116 0.957252 0.393703 -0.123152
C31   C     C_R   0.204957 0.964834 0.604136 -0.126253
C32   C     C_R   0.297134 0.457207 0.393685 -0.123119
C33   C     C_R   0.704910 0.464748 0.604178 -0.126199
C34   C     C_R   0.787806 0.969144 0.552948 -0.115667
C35   C     C_R   0.507247 0.266834 0.052962 0.018792
C36   C     C_R   0.216813 0.980085 0.444868 -0.123110
C37   C     C_R   0.287834 0.469054 0.552925 -0.115643
C38   C     C_R   0.716763 0.479894 0.444920 -0.123117
C39   C     C_R   0.720979 0.347224 0.321792 0.546155
C40   C     C_R   0.279454 0.345904 0.677790 0.537866
C41   C     C_R   0.220985 0.847242 0.321784 0.546173
C42   C     C_R   0.779449 0.845916 0.677795 0.537882
C43   C     C_R   0.792530 0.957822 0.604080 -0.116588
C44   C     C_R   0.210057 0.965136 0.394053 -0.123972
C45   C     C_R   0.292544 0.457763 0.604059 -0.116575
C46   C     C_R   0.493110 0.266957 0.947075 0.018138
C47   C     C_R   0.710035 0.465021 0.394097 -0.124023
C48   C     C_R   0.725885 0.811185 0.600029 -0.127430
C49   C     C_R   0.279311 0.821340 0.397947 -0.125998
C50   C     C_R   0.225934 0.311079 0.600012 -0.127464
C51   C     C_R   0.779227 0.321133 0.397982 -0.125982
C52   C     C_R   0.722361 0.820928 0.549052 -0.124684
C53   C     C_R   0.284575 0.834158 0.448673 -0.125512
C54   C     C_R   0.222423 0.320793 0.549033 -0.124719
C55   C     C_R   0.784458 0.333873 0.448715 -0.125511
C56   C     C_R   0.754248 0.898520 0.525014 0.035884
C57   C     C_R   0.007244 0.766833 0.052964 0.018795
C58   C     C_R   0.251878 0.911377 0.472848 0.032368
C59   C     C_R   0.254297 0.398399 0.524992 0.035870
C60   C     C_R   0.751784 0.411110 0.472897 0.032367
C61   C     C_R   0.762873 0.876903 0.627687 0.027616
C62   C     C_R   0.239542 0.883028 0.370734 0.026707
C63   C     C_R   0.262894 0.376843 0.627671 0.027609
C64   C     C_R   0.739509 0.382918 0.370766 0.026694
C65   C     C_R   0.553706 0.159137 0.321541 0.546385
C66   C     C_R   0.418240 0.155347 0.673264 0.545249
C67   C     C_R   0.053704 0.659135 0.321540 0.546410
C68   C     C_R   0.993107 0.766957 0.947077 0.018132
C69   C     C_R   0.918247 0.655350 0.673262 0.545296
C70   C     C_R   0.731810 0.001283 0.322604 0.550262
C71   C     C_R   0.268242 0.000918 0.677352 0.538360
C72   C     C_R   0.231812 0.501279 0.322602 0.550274
C73   C     C_R   0.768235 0.500898 0.677361 0.538353
C74   C     C_R   0.518839 0.074072 0.101344 -0.153506
C75   C     C_R   0.482447 0.074168 0.898217 -0.153234
C76   C     C_R   0.018835 0.574071 0.101345 -0.153503
C77   C     C_R   0.982441 0.574168 0.898219 -0.153235
C78   C     C_R   0.507909 0.076919 0.050947 0.011238
C79   C     C_R   0.503920 0.172812 0.025920 0.022041
C80   C     C_R   0.493645 0.076994 0.948575 0.011523
C81   C     C_R   0.007903 0.576918 0.050949 0.011239
C82   C     C_R   0.993638 0.576994 0.948577 0.011523
C83   C     C_R   0.497976 0.983705 0.974184 -0.131038
C84   C     C_R   0.504379 0.983665 0.025064 -0.131264
C85   C     C_R   0.997966 0.483704 0.974187 -0.131034
C86   C     C_R   0.004370 0.483664 0.025066 -0.131261
C87   C     C_3   0.638855 0.835942 0.033114 -0.378218
C88   C     C_3   0.362476 0.841122 0.967664 -0.378286
C89   C     C_3   0.138854 0.335951 0.033112 -0.378221
C90   C     C_R   0.497053 0.172865 0.973856 0.022117
C91   C     C_3   0.862472 0.341086 0.967657 -0.378286
C92   C     C_3   0.474483 0.462618 0.950398 -0.363802
C93   C     C_3   0.525551 0.462211 0.050242 -0.363097
C94   C     C_3   0.974485 0.962620 0.950399 -0.363800
C95   C     C_3   0.025549 0.962209 0.050245 -0.363096
C96   C     C_3   0.855255 0.944846 0.025740 -0.371086
C97   C     C_3   0.144279 0.942999 0.973522 -0.370781
C98   C     C_3   0.355257 0.444833 0.025743 -0.371084
C99   C     C_3   0.644283 0.443007 0.973526 -0.370781
C100  C     C_R   0.003915 0.672811 0.025922 0.022042
C101  C     C_R   0.279249 0.344359 0.821822 0.575977
C102  C     C_R   0.997048 0.672864 0.973858 0.022115
C103  C     C_R   0.506537 0.361612 0.026029 -0.007109
C104  C     C_R   0.493625 0.361721 0.974284 -0.007512
C105  C     C_R   0.006535 0.861611 0.026031 -0.007109
C106  C     C_R   0.993623 0.861721 0.974285 -0.007509
C107  C     C_R   0.741576 0.953229 0.130258 0.009927
C108  C     C_R   0.258816 0.953716 0.869785 0.009686
C109  C     C_R   0.241575 0.453229 0.130258 0.009929
C110  C     C_R   0.758815 0.453713 0.869784 0.009684
C111  C     C_R   0.794718 0.967273 0.103148 0.171164
C112  C     C_R   0.220784 0.844411 0.178187 0.574473
C113  C     C_R   0.205273 0.966516 0.896562 0.171905
C114  C     C_R   0.294719 0.467269 0.103149 0.171164
C115  C     C_R   0.705274 0.466520 0.896563 0.171903
C116  C     C_R   0.797088 0.937124 0.053069 0.006625
C117  C     C_R   0.202835 0.936718 0.946637 0.006680
C118  C     C_R   0.297089 0.437118 0.053070 0.006622
C119  C     C_R   0.702836 0.436713 0.946637 0.006687
C120  C     C_R   0.745300 0.900960 0.029151 0.027478
C121  C     C_R   0.254896 0.902194 0.970921 0.027712
C122  C     C_R   0.245300 0.400959 0.029151 0.027478
C123  C     C_R   0.779249 0.844360 0.821821 0.575969
C124  C     C_R   0.754895 0.402177 0.970919 0.027712
C125  C     C_R   0.693968 0.879769 0.056918 -0.001310
C126  C     C_R   0.306846 0.882616 0.943490 -0.001626
C127  C     C_R   0.193967 0.379773 0.056918 -0.001313
C128  C     C_R   0.806844 0.382593 0.943486 -0.001619
C129  C     C_R   0.553063 0.157670 0.177820 0.571720
C130  C     C_R   0.446999 0.157626 0.822152 0.579543
C131  C     C_R   0.053062 0.657670 0.177820 0.571723
C132  C     C_R   0.946998 0.657626 0.822152 0.579551
C133  C     C_R   0.693184 0.904217 0.107307 -0.114226
C134  C     C_R   0.475925 0.165104 0.871246 0.014136
C135  C     C_R   0.307737 0.906588 0.893097 -0.115456
C136  C     C_R   0.193182 0.404221 0.107306 -0.114228
C137  C     C_R   0.807734 0.406572 0.893094 -0.115450
C138  C     C_R   0.743577 0.791674 0.953971 -0.129796
C139  C     C_R   0.257886 0.792938 0.045949 -0.129728
C140  C     C_R   0.243577 0.291673 0.953971 -0.129800
C141  C     C_R   0.757887 0.292927 0.045949 -0.129728
C142  C     C_R   0.751922 0.779942 0.903450 -0.139133
C143  C     C_R   0.249766 0.780934 0.096471 -0.139577
C144  C     C_R   0.251921 0.279941 0.903450 -0.139140
C145  C     C_R   0.524474 0.165008 0.128604 0.015138
C146  C     C_R   0.749766 0.280927 0.096472 -0.139575
C147  C     C_R   0.763746 0.965632 0.894004 0.150289
C148  C     C_R   0.234788 0.966122 0.106263 0.150741
C149  C     C_R   0.263747 0.465630 0.894004 0.150289
C150  C     C_R   0.734787 0.466116 0.106260 0.150742
C151  C     C_R   0.753344 0.977300 0.944806 -0.093661
C152  C     C_R   0.244989 0.978127 0.055473 -0.094061
C153  C     C_R   0.253346 0.477299 0.944807 -0.093662
C154  C     C_R   0.744990 0.478116 0.055470 -0.094056
C155  C     C_R   0.744738 0.890086 0.974935 -0.004426
C156  C     C_R   0.975922 0.665104 0.871247 0.014137
C157  C     C_R   0.255083 0.891262 0.025155 -0.004576
C158  C     C_R   0.244739 0.390085 0.974935 -0.004426
C159  C     C_R   0.755084 0.391249 0.025153 -0.004576
C160  C     C_R   0.763344 0.866046 0.873241 0.044392
C161  C     C_R   0.236874 0.866597 0.126873 0.044266
C162  C     C_R   0.263345 0.366044 0.873241 0.044388
C163  C     C_R   0.736874 0.366592 0.126872 0.044262
C164  C     C_R   0.520960 0.169721 0.368664 0.024568
C165  C     C_R   0.433438 0.163536 0.620663 0.030282
C166  C     C_R   0.020942 0.669702 0.368657 0.024561
C167  C     C_R   0.024471 0.665007 0.128605 0.015141
C168  C     C_R   0.933438 0.663542 0.620660 0.030285
C169  C     C_R   0.526339 0.260480 0.397037 -0.123418
C170  C     C_R   0.488657 0.201415 0.605650 -0.102736
C171  C     C_R   0.026171 0.760560 0.396977 -0.123405
C172  C     C_R   0.988570 0.701786 0.605631 -0.102773
C173  C     C_R   0.504674 0.264380 0.445470 -0.122325
C174  C     C_R   0.502015 0.208520 0.555205 -0.120466
C175  C     C_R   0.004498 0.764473 0.445408 -0.122310
C176  C     C_R   0.001911 0.708905 0.555183 -0.120448
C177  C     C_R   0.731569 0.001899 0.179182 0.560670
C178  C     C_R   0.512175 0.260865 0.105852 0.142436
C179  C     C_R   0.268516 0.001903 0.820829 0.563885
C180  C     C_R   0.231569 0.501899 0.179182 0.560669
C181  C     C_R   0.768516 0.501904 0.820829 0.563870
C182  C     C_R   0.476459 0.178244 0.466121 0.030736
C183  C     C_R   0.460411 0.177383 0.519224 0.025059
C184  C     C_R   0.976429 0.678245 0.466113 0.030775
C185  C     C_R   0.960378 0.677421 0.519214 0.025110
C186  C     C_R   0.467693 0.089859 0.436758 -0.115467
C187  C     C_R   0.404760 0.141227 0.534494 -0.113745
C188  C     C_R   0.967813 0.589745 0.436801 -0.115475
Cr1   Cr    Cr6+3 0.756570 0.170940 0.251190 1.071432
Cr2   Cr    Cr6+3 0.374010 0.036240 0.749520 1.032555
Cr3   Cr    Cr6+3 0.125990 0.536240 0.250480 1.032797
Cr4   Cr    Cr6+3 0.874010 0.536240 0.749520 1.032561
Cr5   Cr    Cr6+3 0.243430 0.170940 0.748810 1.067557
Cr6   Cr    Cr6+3 0.256570 0.670940 0.251190 1.071433
Cr7   Cr    Cr6+3 0.743430 0.670940 0.748810 1.067556
Cr8   Cr    Cr6+3 0.623740 0.299110 0.249580 1.096303
Cr9   Cr    Cr6+3 0.376260 0.299110 0.750420 1.099733
Cr10  Cr    Cr6+3 0.123740 0.799110 0.249580 1.096285
Cr11  Cr    Cr6+3 0.876260 0.799110 0.750420 1.099710
Cr12  Cr    Cr6+3 0.625990 0.036240 0.250480 1.032801
H1    H     H_    0.475789 0.999819 0.880439 0.142404
H2    H     H_    0.521474 0.224363 0.632915 0.136750
H3    H     H_    0.110139 0.901544 0.951631 0.195808
H4    H     H_    0.144834 0.905829 0.010472 0.135695
H5    H     H_    0.131345 0.025292 0.977972 0.144519
H6    H     H_    0.390238 0.404855 0.047452 0.195628
H7    H     H_    0.354901 0.406926 0.988878 0.135732
H8    H     H_    0.366890 0.527429 0.021019 0.144669
H9    H     H_    0.610128 0.401614 0.951624 0.195821
H10   H     H_    0.644832 0.405776 0.010463 0.135707
H11   H     H_    0.631374 0.525304 0.978005 0.144489
H12   H     H_    0.049811 0.826784 0.382727 0.133486
H13   H     H_    0.021337 0.725000 0.632886 0.136752
H14   H     H_    0.371749 0.118018 0.507434 0.120900
H15   H     H_    0.446199 0.022360 0.451993 0.108113
H16   H     H_    0.871848 0.617443 0.507450 0.120864
H17   H     H_    0.946438 0.522172 0.452076 0.108087
H18   H     H_    0.347678 0.109940 0.596104 0.105838
H19   H     H_    0.485343 0.014460 0.367514 0.131287
H20   H     H_    0.847795 0.609366 0.596118 0.105890
H21   H     H_    0.525938 0.999732 0.118939 0.141867
H22   H     H_    0.985578 0.514262 0.367604 0.131314
H23   H     H_    0.511376 0.333701 0.467322 0.104547
H24   H     H_    0.545408 0.235826 0.544287 0.113179
H25   H     H_    0.011079 0.833884 0.467220 0.104503
H26   H     H_    0.045243 0.736484 0.544256 0.113121
H27   H     H_    0.649454 0.905990 0.378822 0.136939
H28   H     H_    0.350252 0.898795 0.622624 0.139928
H29   H     H_    0.149475 0.405915 0.378815 0.136901
H30   H     H_    0.850167 0.398474 0.622671 0.139877
H31   H     H_    0.811304 0.031696 0.535177 0.104790
H32   H     H_    0.975782 0.499819 0.880442 0.142404
H33   H     H_    0.192935 0.042923 0.462465 0.101650
H34   H     H_    0.311322 0.531614 0.535152 0.104827
H35   H     H_    0.692904 0.542746 0.462523 0.101676
H36   H     H_    0.821286 0.009198 0.624768 0.137155
H37   H     H_    0.179617 0.014131 0.373584 0.133137
H38   H     H_    0.321283 0.509170 0.624748 0.137159
H39   H     H_    0.679630 0.514081 0.373628 0.133127
H40   H     H_    0.495934 0.910362 0.954825 0.111354
H41   H     H_    0.506973 0.910297 0.044214 0.110776
H42   H     H_    0.995922 0.410361 0.954828 0.111351
H43   H     H_    0.025933 0.499731 0.118941 0.141867
H44   H     H_    0.006964 0.410296 0.044217 0.110777
H45   H     H_    0.657822 0.870038 0.466325 0.106564
H46   H     H_    0.345769 0.873368 0.534148 0.103439
H47   H     H_    0.157867 0.369888 0.466311 0.106560
H48   H     H_    0.845652 0.372911 0.534205 0.103413
H49   H     H_    0.696578 0.765030 0.528339 0.101767
H50   H     H_    0.311599 0.779483 0.469102 0.102629
H51   H     H_    0.196657 0.264870 0.528320 0.101763
H52   H     H_    0.811447 0.279137 0.469140 0.102615
H53   H     H_    0.703072 0.747013 0.617119 0.139941
H54   H     H_    0.652715 0.891130 0.127915 0.152589
H55   H     H_    0.302599 0.757033 0.380976 0.138680
H56   H     H_    0.203131 0.246899 0.617105 0.139956
H57   H     H_    0.802500 0.256819 0.381003 0.138709
H58   H     H_    0.844777 0.943348 0.461976 0.108187
H59   H     H_    0.160078 0.959998 0.534447 0.101455
H60   H     H_    0.344812 0.443268 0.461948 0.108214
H61   H     H_    0.660011 0.459878 0.534498 0.101443
H62   H     H_    0.835652 0.985517 0.374121 0.136093
H63   H     H_    0.166200 0.994946 0.623032 0.136368
H64   H     H_    0.335664 0.485500 0.374103 0.136118
H65   H     H_    0.348617 0.894698 0.872777 0.151762
H66   H     H_    0.666173 0.494961 0.623067 0.136400
H67   H     H_    0.738968 0.723673 0.976958 0.124754
H68   H     H_    0.263690 0.725105 0.022830 0.125501
H69   H     H_    0.238967 0.223672 0.976958 0.124752
H70   H     H_    0.763691 0.225092 0.022832 0.125499
H71   H     H_    0.752724 0.702320 0.888325 0.145487
H72   H     H_    0.250219 0.703310 0.111417 0.149067
H73   H     H_    0.252722 0.202319 0.888325 0.145481
H74   H     H_    0.750218 0.203304 0.111419 0.149069
H75   H     H_    0.754922 0.053622 0.961333 0.136430
H76   H     H_    0.152713 0.391138 0.127914 0.152588
H77   H     H_    0.242195 0.054373 0.039116 0.135885
H78   H     H_    0.254925 0.553621 0.961334 0.136431
H79   H     H_    0.742196 0.554360 0.039111 0.135883
H80   H     H_    0.623892 0.886720 0.002353 0.150275
H81   H     H_    0.647987 0.757344 0.018515 0.144305
H82   H     H_    0.601989 0.829203 0.060101 0.124352
H83   H     H_    0.376374 0.892941 0.998410 0.150878
H84   H     H_    0.354560 0.762458 0.982331 0.144318
H85   H     H_    0.399635 0.835228 0.940877 0.123604
H86   H     H_    0.123893 0.386730 0.002351 0.150276
H87   H     H_    0.848612 0.394675 0.872772 0.151762
H88   H     H_    0.147984 0.257352 0.018514 0.144304
H89   H     H_    0.101987 0.329216 0.060099 0.124350
H90   H     H_    0.876373 0.392897 0.998406 0.150874
H91   H     H_    0.854552 0.262420 0.982321 0.144316
H92   H     H_    0.899631 0.335193 0.940870 0.123605
H93   H     H_    0.456857 0.518669 0.977752 0.112163
H94   H     H_    0.512712 0.499977 0.932020 0.205023
H95   H     H_    0.437258 0.449725 0.924089 0.183797
H96   H     H_    0.543374 0.517942 0.023089 0.111776
H97   H     H_    0.487213 0.500194 0.068520 0.205598
H98   H     H_    0.550095 0.326620 0.382829 0.133496
H99   H     H_    0.562573 0.448748 0.076721 0.184541
H100  H     H_    0.956860 0.018672 0.977753 0.112161
H101  H     H_    0.012717 0.999975 0.932023 0.205024
H102  H     H_    0.937261 0.949729 0.924089 0.183799
H103  H     H_    0.043374 0.017940 0.023092 0.111769
H104  H     H_    0.987211 0.000194 0.068523 0.205598
H105  H     H_    0.062571 0.948745 0.076725 0.184540
H106  H     H_    0.890239 0.904879 0.047450 0.195628
H107  H     H_    0.854901 0.906930 0.988878 0.135735
H108  H     H_    0.866883 0.027443 0.021012 0.144661
O1    O     O_R   0.769900 0.064540 0.196060 -0.451773
O2    O     O_R   0.433710 0.069580 0.694600 -0.500458
O3    O     O_R   0.066290 0.569580 0.305400 -0.518872
O4    O     O_R   0.933710 0.569580 0.694600 -0.500402
O5    O     O_R   0.680760 0.993330 0.302620 -0.503630
O6    O     O_R   0.319240 0.993330 0.697380 -0.520937
O7    O     O_R   0.180760 0.493330 0.302620 -0.503633
O8    O     O_R   0.819240 0.493330 0.697380 -0.520950
O9    O     O_3   0.668770 0.168760 0.250420 -0.272455
O10   O     O_3   0.331230 0.168760 0.749580 -0.296209
O11   O     O_3   0.168770 0.668760 0.250420 -0.272440
O12   O     O_R   0.230100 0.064540 0.803940 -0.449703
O13   O     O_3   0.831230 0.668760 0.749580 -0.296185
O14   O     O_R   0.750800 0.274080 0.199250 -0.501890
O15   O     O_R   0.249200 0.274080 0.800750 -0.498875
O16   O     O_R   0.250800 0.774080 0.199250 -0.501899
O17   O     O_R   0.749200 0.774080 0.800750 -0.498878
O18   O     O_R   0.669990 0.371670 0.194150 -0.461165
O19   O     O_R   0.330010 0.371670 0.805850 -0.460477
O20   O     O_R   0.169990 0.871670 0.194150 -0.461175
O21   O     O_R   0.830010 0.871670 0.805850 -0.460482
O22   O     O_R   0.574600 0.238480 0.197800 -0.452805
O23   O     O_R   0.269900 0.564540 0.196060 -0.451776
O24   O     O_R   0.425400 0.238480 0.802200 -0.448672
O25   O     O_R   0.074600 0.738480 0.197800 -0.452810
O26   O     O_R   0.925400 0.738480 0.802200 -0.448669
O27   O     O_R   0.566130 0.068680 0.194240 -0.530083
O28   O     O_R   0.433870 0.068680 0.805760 -0.525771
O29   O     O_R   0.066130 0.568680 0.194240 -0.530080
O30   O     O_R   0.933870 0.568680 0.805760 -0.525769
O31   O     O_R   0.680610 0.992490 0.199570 -0.513467
O32   O     O_R   0.319390 0.992490 0.800430 -0.512483
O33   O     O_R   0.180610 0.492490 0.199570 -0.513471
O34   O     O_R   0.730100 0.564540 0.803940 -0.449704
O35   O     O_R   0.819390 0.492490 0.800430 -0.512494
O36   O     O_R   0.770060 0.065440 0.307230 -0.513458
O37   O     O_R   0.229940 0.065440 0.692770 -0.512386
O38   O     O_R   0.270060 0.565440 0.307230 -0.513439
O39   O     O_R   0.729940 0.565440 0.692770 -0.512388
O40   O     O_R   0.750960 0.274920 0.302300 -0.507053
O41   O     O_R   0.249040 0.274920 0.697700 -0.509206
O42   O     O_R   0.250960 0.774920 0.302300 -0.507052
O43   O     O_R   0.749040 0.774920 0.697700 -0.509202
O44   O     O_R   0.670160 0.372580 0.305320 -0.512240
O45   O     O_R   0.574760 0.239320 0.300850 -0.494701
O46   O     O_R   0.329840 0.372580 0.694680 -0.512230
O47   O     O_R   0.170160 0.872580 0.305320 -0.512244
O48   O     O_R   0.829840 0.872580 0.694680 -0.512246
O49   O     O_R   0.425240 0.239320 0.699150 -0.484997
O50   O     O_R   0.074760 0.739320 0.300850 -0.494702
O51   O     O_R   0.925240 0.739320 0.699150 -0.485055
O52   O     O_R   0.566290 0.069580 0.305400 -0.518847

loop_
_geom_bond_atom_site_label_1
_geom_bond_atom_site_label_2
_ccdc_geom_bond_type
C9    C14   A    
C130  C134  S    
C53   H50   S    
C48   H53   S    
C124  C128  A    
C40   C63   S    
C109  C180  S    
C29   H61   S    
Cr6   O42   S    
C38   C47   A    
C3    C185  A    
Cr9   O24   S    
C51   C64   A    
C165  C170  A    
C177  O1    A    
C24   C156  A    
Cr9   O46   S    
C70   O5    A    
C77   C82   A    
C38   C60   A    
C1    O14   A    
C49   H55   S    
C71   O37   A    
C92   C104  S    
C140  C144  A    
C171  H12   S    
C34   C43   A    
C133  H54   S    
C139  C143  A    
C183  C187  A    
C37   H34   S    
C80   C90   A    
C95   H105  S    
C23   C59   S    
C169  H98   S    
C94   C106  S    
C71   O6    A    
C118  C122  A    
C16   H30   S    
C34   H31   S    
C88   H83   S    
C135  H65   S    
Cr6   O16   S    
C74   H21   S    
C147  C160  A    
C15   C19   A    
C110  C137  A    
Br1   C147  S    
C67   O3    A    
C74   C78   A    
Cr2   O28   S    
C18   C22   A    
C52   H49   S    
C184  C185  S    
C82   C85   A    
Cr4   O30   S    
C120  C125  A    
C17   H45   S    
C3    C7    A    
Cr4   O13   S    
Cr12  O27   S    
C140  C158  A    
Cr8   O9    S    
C124  C159  S    
C44   H37   S    
C123  C160  S    
Cr7   O39   S    
C117  C121  A    
C129  C145  S    
C173  H23   S    
C10   C15   A    
C113  C117  A    
C50   C63   A    
C13   C57   A    
C187  H14   S    
C54   H51   S    
C4    C186  A    
C181  O35   A    
C76   C167  A    
Cr8   O18   S    
C5    C165  A    
C1    C163  S    
Br4   C115  S    
Cr2   O6    S    
C69   C168  S    
C36   C58   A    
C39   O44   A    
C83   H40   S    
C8    C30   A    
C5    H18   S    
C6    H22   S    
Cr9   O10   S    
C107  C111  A    
C49   C62   A    
C65   O52   A    
C21   C26   A    
C48   C52   A    
C23   C28   A    
C149  C162  A    
C180  O33   A    
C5    C187  A    
Cr10  O20   S    
Cr1   O40   S    
C115  C119  A    
C81   C100  A    
C30   H62   S    
C95   H103  S    
Cr3   O29   S    
C37   C59   A    
C29   C33   A    
C88   H85   S    
C149  C153  A    
C168  C172  A    
C153  H78   S    
C75   C134  A    
C8    C70   S    
C66   C165  S    
C148  C161  A    
Cr8   O44   S    
C132  O30   A    
C87   H82   S    
Cr10  O47   S    
C100  C102  A    
C85   C86   A    
C89   C127  S    
C130  O24   A    
C52   C56   A    
Br11  C13   S    
C53   C58   A    
C37   C45   A    
C55   C60   A    
C141  C146  A    
Cr10  O50   S    
C138  H67   S    
C50   H56   S    
C12   C17   A    
C17   C21   A    
C131  C167  S    
Cr6   O38   S    
C112  O20   A    
Cr11  O13   S    
C46   C104  A    
Cr10  O25   S    
C101  O15   A    
C144  H73   S    
C27   H59   S    
C76   H43   S    
C174  H24   S    
C28   H60   S    
C127  C136  A    
C92   H95   S    
C50   C54   A    
C22   C27   A    
C9    C71   S    
C20   H48   S    
C39   C64   S    
C119  C124  A    
C108  C179  S    
C122  C127  A    
C150  C163  A    
Cr7   O13   S    
C99   H10   S    
Cr8   O45   S    
Cr6   O23   S    
C139  H68   S    
C34   C56   A    
Cr1   O1    S    
C180  O23   A    
Br6   C149  S    
Br5   C148  S    
Cr12  O52   S    
C20   C25   A    
C96   C116  S    
C98   H7    S    
C99   C119  S    
C154  H79   S    
C14   C18   A    
C65   C164  S    
C43   H36   S    
C97   C117  S    
Cr10  O11   S    
C87   H80   S    
Cr2   O32   S    
C101  O19   A    
C91   H92   S    
Cr7   O34   S    
C141  H70   S    
C18   H46   S    
C41   O42   A    
C93   C103  S    
Cr12  O31   S    
C19   H47   S    
C78   C84   A    
Cr12  O5    S    
C131  O25   A    
C4    H19   S    
C73   O39   A    
C45   C63   A    
C35   C178  A    
C51   H57   S    
Cr7   O43   S    
C91   C128  S    
C93   H99   S    
C47   H39   S    
C94   H100  S    
C182  C186  A    
Br12  C111  S    
C1    O18   A    
C123  O17   A    
C49   C53   A    
C25   C29   A    
C74   C145  A    
C97   H5    S    
C43   C61   A    
Br2   C113  S    
C14   H28   S    
C146  C163  A    
C28   C32   A    
C6    C166  A    
C122  C158  S    
C87   C125  S    
Cr4   O8    S    
Cr2   O10   S    
C39   O40   A    
C6    C188  A    
C47   C64   A    
C94   H101  S    
C101  C162  S    
C177  O31   A    
C96   H107  S    
C11   C33   A    
Cr11  O51   S    
C175  C184  A    
C41   C62   S    
C120  C155  S    
C40   O46   A    
C173  C182  A    
C88   H84   S    
C97   H4    S    
C69   O51   A    
Cr5   O41   S    
Br3   C114  S    
C112  O16   A    
C35   C103  A    
C144  C162  A    
C148  C152  A    
C125  C133  A    
C57   C100  A    
C66   O49   A    
C31   H63   S    
C114  C118  A    
C48   C61   A    
C36   C44   A    
C170  C174  A    
Cr9   O49   S    
C121  C157  S    
C145  C178  A    
C150  C154  A    
C70   O36   A    
C91   H90   S    
Cr1   O36   S    
C132  O26   A    
C46   C90   A    
C7    H20   S    
C22   C58   S    
C73   O8    A    
C166  C171  A    
C4    C164  A    
C182  C183  S    
C121  C126  A    
C75   C80   A    
C142  H71   S    
C172  H13   S    
C15   H29   S    
C181  O34   A    
C151  H75   S    
C164  C169  A    
C2    C46   A    
C68   C106  A    
C44   C62   A    
Cr3   O33   S    
C67   O50   A    
Cr3   O11   S    
C137  H87   S    
C92   H94   S    
C129  O22   A    
C77   C156  A    
C36   H33   S    
C171  C175  A    
C42   C61   S    
C72   O38   A    
C54   C59   A    
C16   C20   A    
Cr5   O10   S    
C109  C136  A    
C99   H11   S    
C26   H58   S    
C12   H27   S    
C88   C126  S    
C42   O43   A    
C24   C68   A    
C19   C23   A    
C188  H17   S    
C110  C181  S    
Br9   C178  S    
C186  H15   S    
C153  C158  A    
Cr7   O17   S    
C108  C113  A    
C35   C79   A    
C87   H81   S    
C139  C157  A    
C84   H41   S    
C13   C167  A    
Cr3   O7    S    
C107  C133  A    
C3    H16   S    
C41   O47   A    
C89   H86   S    
C78   C79   A    
C176  C185  A    
C138  C155  A    
Cr11  O21   S    
C98   C118  S    
C93   H96   S    
C108  C135  A    
C33   H66   S    
C66   O2    A    
C25   C60   S    
C92   H93   S    
Br10  C24   S    
C45   H38   S    
C105  C106  A    
C7    C168  A    
C95   C105  S    
C103  C104  A    
Cr12  O9    S    
C131  O29   A    
Cr8   O22   S    
Cr9   O19   S    
C83   C84   A    
C184  C188  A    
C86   H44   S    
C55   H52   S    
C82   C102  A    
C42   O48   A    
C69   O4    A    
C65   O45   A    
C96   H106  S    
C123  O21   A    
C132  C156  S    
C40   O41   A    
C26   C30   A    
C152  H77   S    
Cr5   O12   S    
C110  C115  A    
C99   H9    S    
C143  H72   S    
Cr4   O4    S    
Cr11  O48   S    
C95   H104  S    
C10   C32   A    
C8    C12   A    
C98   H8    S    
C89   H89   S    
C93   H97   S    
C143  C161  A    
C91   H91   S    
C154  C159  A    
C9    C31   A    
Cr4   O35   S    
C152  C157  A    
C116  C120  A    
C175  H25   S    
Br7   C150  S    
C51   C55   A    
C77   H32   S    
C179  O12   A    
C174  C183  A    
C89   H88   S    
C169  C173  A    
C27   C31   A    
C112  C161  S    
C80   C83   A    
C172  C176  A    
C10   C72   S    
C151  C155  A    
Cr1   O14   S    
Cr2   O2    S    
C126  C135  A    
C141  C159  A    
C75   H1    S    
C67   C166  S    
C142  C160  A    
C129  O27   A    
C136  H76   S    
C68   C102  A    
Cr5   O15   S    
C72   O7    A    
C11   C73   S    
C147  C151  A    
C11   C16   A    
C79   C90   A    
C140  H69   S    
C94   H102  S    
C146  H74   S    
C76   C81   A    
C96   H108  S    
Br8   C2    S    
C32   H64   S    
Cr5   O37   S    
C179  O32   A    
C107  C177  S    
C97   H3    S    
C2    C134  A    
C109  C114  A    
C130  O28   A    
C111  C116  A    
C128  C137  A    
C57   C105  A    
C98   H6    S    
C176  H26   S    
Cr6   O11   S    
C21   C56   S    
C138  C142  A    
C170  H2    S    
Cr11  O26   S    
Cr1   O9    S    
C81   C86   A    
C38   H35   S    
C85   H42   S    
Cr3   O3    S    
