data_mof_unit_14800.cif
_audit_creation_date              2012-12-10T18:57:10-0500
_audit_creation_method            fapswitch 2.2
_symmetry_space_group_name_H-M    P1
_symmetry_Int_Tables_number       1
_space_group_crystal_system       triclinic
_cell_length_a                    8.658813
_cell_length_b                    10.783397
_cell_length_c                    9.625737
_cell_angle_alpha                 90.676832
_cell_angle_beta                  94.840105
_cell_angle_gamma                 91.38446
_cell_volume                      895.215755071

loop_
_atom_site_label
_atom_site_type_symbol
_atom_type_description
_atom_site_fract_x
_atom_site_fract_y
_atom_site_fract_z
_atom_type_partial_charge
C1    C     C_R   0.498500 0.262925 0.498792 0.833849
C2    C     C_R   0.396802 0.931941 0.404113 -0.182603
C3    C     C_R   0.502553 0.871188 0.497494 -0.117329
C4    C     C_R   0.622151 0.941190 0.568918 0.133305
C5    C     C_3   0.691113 0.940380 0.716202 -0.097713
C6    C     C_3   0.687410 0.081674 0.715542 -0.399900
C7    C     C_R   0.575699 0.591390 0.079035 0.196214
C8    C     C_R   0.411329 0.417544 0.067888 -0.038705
C9    C     C_R   0.410050 0.417145 0.919926 0.233446
C10   C     C_R   0.566790 0.596471 0.932703 0.189076
C11   C     C_3   0.727480 0.647716 0.933237 -0.521648
C12   C     C_R   0.205891 0.487870 0.468109 0.837350
C13   C     C_3   0.744950 0.626989 0.089029 -0.025736
C14   C     C_R   0.501112 0.737458 0.500354 0.779742
C15   C     C_R   0.795227 0.503629 0.532817 0.893722
C16   C     C_2   0.044893 0.454724 0.464397 0.046219
C17   C     C_2   0.958990 0.523288 0.542005 -0.361781
C18   C     C_R   0.620160 0.068547 0.568527 0.099617
C19   C     C_R   0.501795 0.130075 0.493985 -0.070472
C20   C     C_R   0.396719 0.061688 0.402019 -0.175698
Cu1   Cu    Cu3+1 0.499990 0.499980 0.640670 0.985371
Cu2   Cu    Cu3+1 0.500010 0.500020 0.359330 0.996502
H1    H     H_    0.804302 0.592649 0.871503 0.251811
H2    H     H_    0.728973 0.747425 0.910210 0.158131
H3    H     H_    0.773580 0.713271 0.151221 0.140604
H4    H     H_    0.006741 0.605243 0.598930 0.122652
H5    H     H_    0.310426 0.108061 0.334568 0.171580
H6    H     H_    0.310600 0.879501 0.337888 0.161805
H7    H     H_    0.614473 0.896253 0.789328 0.155851
H8    H     H_    0.604223 0.120102 0.785708 0.198437
H9    H     H_    0.803681 0.128634 0.723158 0.238265
H10   H     H_    0.340870 0.350273 0.118300 0.168307
N1    N     N_R   0.500980 0.500930 0.148050 -0.194930
N2    N     N_R   0.500990 0.500890 0.852140 -0.192702
O1    O     O_R   0.500000 0.319640 0.618810 -0.560715
O2    O     O_R   0.500020 0.319680 0.381230 -0.576082
O3    O     O_R   0.274830 0.499980 0.591380 -0.564728
O4    O     O_R   0.274850 0.500020 0.353800 -0.567844
O5    O     O_R   0.499980 0.680320 0.618770 -0.586874
O6    O     O_R   0.500000 0.680360 0.381190 -0.585841
O7    O     O_R   0.725150 0.499980 0.646200 -0.585100
O8    O     O_R   0.725170 0.500020 0.408620 -0.537874
I1    I     I_    0.980125 0.266603 0.409724 -0.321986
I2    I     I_    0.251033 0.286828 0.816873 -0.324416
I3    I     I_    0.899485 0.476668 0.121334 -0.305380
N3    N     N_3   0.849441 0.895609 0.724174 -0.549443
H11   H     H_    0.844126 0.800519 0.701086 0.214665
H12   H     H_    0.896520 0.906358 0.827365 0.238979

loop_
_geom_bond_atom_site_label_1
_geom_bond_atom_site_label_2
_ccdc_geom_bond_type
C7    C10   A    
Cu1   O1    S    
C20   H5    S    
C11   C13   S    
C5    N3    S    
C15   O8    A    
C19   C20   A    
Cu1   O5    S    
Cu2   O6    S    
C2    C3    A    
C4    C18   A    
C10   N2    A    
Cu1   Cu2   S    
C13   I3    S    
C5    C6    S    
C7    N1    A    
C16   I1    S    
C13   H3    S    
Cu2   O8    S    
C3    C14   S    
Cu1   O7    S    
C17   H4    S    
C11   H1    S    
C6    H8    S    
C6    H9    S    
C5    H7    S    
C8    N1    A    
C12   O4    A    
C9    N2    A    
C6    C18   S    
N3    H12   S    
C1    C19   S    
C10   C11   S    
C2    C20   A    
C3    C4    A    
Cu2   O4    S    
C11   H2    S    
C7    C13   S    
Cu1   O3    S    
C15   O7    A    
C18   C19   A    
C12   O3    A    
C15   C17   S    
Cu2   N1    S    
N3    H11   S    
C16   C17   D    
C9    I2    S    
C2    H6    S    
Cu1   N2    S    
C1    O1    A    
C14   O5    A    
C4    C5    S    
C14   O6    A    
Cu2   O2    S    
C12   C16   S    
C1    O2    A    
C8    C9    A    
C8    H10   S    
