data_mof_unit_62843.cif
_audit_creation_date              2012-10-26T17:39:23-0400
_audit_creation_method            fapswitch 2.2
_symmetry_space_group_name_H-M    P1
_symmetry_Int_Tables_number       1
_space_group_crystal_system       triclinic
_cell_length_a                    30.421253
_cell_length_b                    30.421247
_cell_length_c                    23.67636
_cell_angle_alpha                 90.0
_cell_angle_beta                  90.000024
_cell_angle_gamma                 89.999957
_cell_volume                      21911.3454061

loop_
_atom_site_label
_atom_site_type_symbol
_atom_type_description
_atom_site_fract_x
_atom_site_fract_y
_atom_site_fract_z
_atom_type_partial_charge
C1    C     C_R   0.584927 1.000000 0.500000 0.544655
C2    C     C_R   0.975507 0.842621 0.541255 -0.022862
C3    C     C_R   0.471030 0.843997 0.964936 -0.125119
C4    C     C_R   0.843452 0.460301 0.004781 -0.127715
C5    C     C_R   0.471030 0.156003 0.035064 -0.125119
C6    C     C_R   0.156548 0.539699 0.004786 -0.127716
C7    C     C_R   0.528970 0.843997 0.035064 -0.125119
C8    C     C_R   0.632951 1.000000 0.500000 0.024407
C9    C     C_R   1.000000 0.633299 0.500000 0.017468
C10   C     C_R   0.367049 0.000000 0.500000 0.024407
C11   C     C_R   0.000000 0.366701 0.500000 0.017467
C12   C     C_R   0.133298 0.500000 1.000000 0.017468
C13   C     C_R   0.156390 0.960785 0.511753 -0.019431
C14   C     C_R   0.500000 0.132951 1.000000 0.024408
C15   C     C_R   0.866701 0.500000 0.000000 0.017468
C16   C     C_R   0.500000 0.867049 1.000000 0.024408
C17   C     C_R   0.725384 1.000000 0.500000 0.032084
C18   C     C_R   0.000000 0.725435 0.500000 0.030061
C19   C     C_R   0.274616 1.000000 0.500000 0.032084
C20   C     C_R   0.000000 0.274565 0.500000 0.030061
C21   C     C_R   0.225435 0.500000 1.000000 0.030061
C22   C     C_R   0.500000 0.225384 1.000000 0.032085
C23   C     C_R   0.774565 0.500001 0.000000 0.030061
C24   C     C_R   0.024494 0.157379 0.541254 -0.022862
C25   C     C_R   0.500000 0.774616 1.000000 0.032084
C26   C     C_R   0.797653 0.038873 0.510552 -0.104177
C27   C     C_R   0.975750 0.796683 0.540415 -0.104432
C28   C     C_R   0.202347 0.961127 0.510553 -0.104178
C29   C     C_R   0.024252 0.203317 0.540414 -0.104432
C30   C     C_R   0.202346 0.038873 0.489447 -0.104177
C31   C     C_R   0.024250 0.796683 0.459585 -0.104432
C32   C     C_R   0.797654 0.961127 0.489448 -0.104177
C33   C     C_R   0.975749 0.203317 0.459586 -0.104432
C34   C     C_R   0.296683 0.524250 0.040415 -0.104431
C35   C     C_R   0.156390 0.039215 0.488246 -0.019431
C36   C     C_R   0.461127 0.297653 0.010554 -0.104177
C37   C     C_R   0.703317 0.475749 0.040414 -0.104432
C38   C     C_R   0.538873 0.702346 0.010554 -0.104177
C39   C     C_R   0.703316 0.524253 0.959587 -0.104432
C40   C     C_R   0.538873 0.297653 0.989445 -0.104177
C41   C     C_R   0.296683 0.475750 0.959585 -0.104431
C42   C     C_R   0.461127 0.702346 0.989446 -0.104177
C43   C     C_3   0.865971 0.082278 0.525171 -0.403919
C44   C     C_3   0.948395 0.865241 0.586109 -0.384103
C45   C     C_3   0.134029 0.917722 0.525172 -0.403918
C46   C     C_R   0.024493 0.842621 0.458745 -0.022862
C47   C     C_3   0.051608 0.134758 0.586107 -0.384104
C48   C     C_3   0.134029 0.082278 0.474828 -0.403919
C49   C     C_3   0.051606 0.865241 0.413891 -0.384103
C50   C     C_3   0.865971 0.917721 0.474830 -0.403918
C51   C     C_3   0.948392 0.134759 0.413893 -0.384104
C52   C     C_3   0.365241 0.551605 0.086109 -0.384103
C53   C     C_3   0.417722 0.365971 0.025174 -0.403916
C54   C     C_3   0.634759 0.448391 0.086107 -0.384104
C55   C     C_3   0.582278 0.634029 0.025174 -0.403919
C56   C     C_3   0.634758 0.551609 0.913894 -0.384103
C57   C     C_R   0.843610 0.960785 0.488248 -0.019431
C58   C     C_3   0.582278 0.365971 0.974825 -0.403919
C59   C     C_3   0.365241 0.448394 0.913891 -0.384103
C60   C     C_3   0.417722 0.634029 0.974827 -0.403917
C61   C     C_R   0.975506 0.157379 0.458746 -0.022862
C62   C     C_R   0.342621 0.524493 0.041255 -0.022862
C63   C     C_R   0.460785 0.343610 0.011755 -0.019431
C64   C     C_R   0.657379 0.475506 0.041254 -0.022862
C65   C     C_R   1.000000 0.585048 0.500000 0.548664
C66   C     C_R   0.539215 0.656390 0.011754 -0.019432
C67   C     C_R   0.657378 0.524495 0.958747 -0.022863
C68   C     C_R   0.539215 0.343610 0.988245 -0.019432
C69   C     C_R   0.342621 0.475507 0.958745 -0.022862
C70   C     C_R   0.460785 0.656390 0.988246 -0.019431
C71   C     C_R   0.866919 1.000000 0.500000 0.062722
C72   C     C_R   1.000000 0.866199 0.500000 0.040225
C73   C     C_R   0.133081 1.000000 0.500000 0.062722
C74   C     C_R   0.000000 0.133801 0.500000 0.040226
C75   C     C_R   0.366199 0.500000 0.000000 0.040225
C76   C     C_R   0.415073 0.000000 0.500000 0.544655
C77   C     C_R   0.500000 0.366919 1.000000 0.062721
C78   C     C_R   0.633801 0.500000 0.000000 0.040226
C79   C     C_R   0.500000 0.633081 0.000000 0.062721
C80   C     C_R   0.774224 1.000000 0.500000 0.006189
C81   C     C_R   1.000000 0.773717 0.500000 0.003106
C82   C     C_R   0.225776 1.000000 0.500000 0.006189
C83   C     C_R   0.000000 0.226283 0.500000 0.003105
C84   C     C_R   0.273717 0.500000 1.000000 0.003106
C85   C     C_R   0.500000 0.274224 1.000000 0.006190
C86   C     C_R   0.726283 0.500001 0.000001 0.003106
C87   C     C_R   0.000000 0.414952 0.500000 0.548664
C88   C     C_R   0.500000 0.725776 1.000000 0.006189
C89   C     C_R   0.000000 0.914748 0.500000 0.537505
C90   C     C_R   0.084991 0.000000 0.500000 0.545097
C91   C     C_R   0.000000 0.085252 0.500000 0.537504
C92   C     C_R   0.915009 0.000000 0.500000 0.545097
C93   C     C_R   0.500000 0.415009 1.000000 0.545097
C94   C     C_R   0.585252 0.500000 0.000000 0.537504
C95   C     C_R   0.500000 0.584991 0.000000 0.545096
C96   C     C_R   0.414748 0.500000 0.000000 0.537505
C97   C     C_R   0.500000 0.000000 0.608131 0.549909
C98   C     C_R   0.085048 0.500000 1.000000 0.548663
C99   C     C_R   1.000000 0.500000 0.608131 0.553848
C100  C     C_R   0.500000 0.000000 0.391869 0.549910
C101  C     C_R   0.000000 0.500000 0.391869 0.553849
C102  C     C_R   0.000000 0.500000 0.108131 0.553849
C103  C     C_R   0.500000 1.000000 0.108131 0.549909
C104  C     C_R   0.000000 0.500000 0.891869 0.553849
C105  C     C_R   0.500000 0.000000 0.891869 0.549909
C106  C     C_1   0.500000 0.000000 0.668992 -0.018127
C107  C     C_1   0.000000 0.500000 0.668992 -0.016889
C108  C     C_1   0.500000 0.000000 0.331008 -0.018127
C109  C     C_R   0.500000 0.084927 0.000000 0.544656
C110  C     C_1   1.000000 0.500000 0.331008 -0.016889
C111  C     C_1   0.000000 0.500000 0.168992 -0.016889
C112  C     C_1   0.500000 1.000000 0.168992 -0.018127
C113  C     C_1   0.000000 0.500000 0.831008 -0.016889
C114  C     C_1   0.500000 1.000000 0.831008 -0.018127
C115  C     C_1   0.500000 1.000000 0.720061 -0.038031
C116  C     C_1   0.000000 0.500000 0.720062 -0.037173
C117  C     C_1   0.500000 0.000000 0.279938 -0.038031
C118  C     C_1   1.000000 0.500000 0.279938 -0.037173
C119  C     C_1   1.000000 0.500000 0.220062 -0.037173
C120  C     C_R   0.914952 0.500000 1.000000 0.548664
C121  C     C_1   0.500000 1.000000 0.220061 -0.038031
C122  C     C_1   0.000000 0.500000 0.779938 -0.037173
C123  C     C_1   0.500000 0.000000 0.779938 -0.038031
C124  C     C_R   0.701816 0.971525 0.464183 -0.116239
C125  C     C_R   0.039672 0.702294 0.495095 -0.120667
C126  C     C_R   0.298184 0.028474 0.464183 -0.116239
C127  C     C_R   0.960327 0.297706 0.495099 -0.120668
C128  C     C_R   0.298184 0.971526 0.535817 -0.116239
C129  C     C_R   0.960328 0.702294 0.504905 -0.120668
C130  C     C_R   0.701816 0.028474 0.535817 -0.116239
C131  C     C_R   0.500000 0.915073 1.000000 0.544656
C132  C     C_R   0.039673 0.297706 0.504901 -0.120668
C133  C     C_R   0.202294 0.460328 0.995092 -0.120667
C134  C     C_R   0.528473 0.201816 0.964181 -0.116239
C135  C     C_R   0.797706 0.539673 0.995097 -0.120668
C136  C     C_R   0.471526 0.798184 0.964182 -0.116239
C137  C     C_R   0.797706 0.460328 0.004903 -0.120667
C138  C     C_R   0.471526 0.201816 0.035818 -0.116239
C139  C     C_R   0.202294 0.539672 0.004908 -0.120668
C140  C     C_R   0.528474 0.798184 0.035818 -0.116239
C141  C     C_R   0.656003 0.971028 0.464937 -0.125119
C142  C     C_R   0.843610 0.039215 0.511753 -0.019432
C143  C     C_R   0.039700 0.656548 0.495216 -0.127715
C144  C     C_R   0.343997 0.028971 0.464937 -0.125119
C145  C     C_R   0.960300 0.343452 0.495220 -0.127716
C146  C     C_R   0.343997 0.971029 0.535063 -0.125119
C147  C     C_R   0.960300 0.656548 0.504783 -0.127716
C148  C     C_R   0.656003 0.028971 0.535063 -0.125120
C149  C     C_R   0.039700 0.343452 0.504780 -0.127716
C150  C     C_R   0.156548 0.460301 0.995214 -0.127716
C151  C     C_R   0.528970 0.156003 0.964935 -0.125119
C152  C     C_R   0.843452 0.539700 0.995219 -0.127715
Cu1   Cu    Cu3+1 0.500000 0.044070 0.500000 0.941438
Cu2   Cu    Cu3+1 1.000000 0.000000 0.444200 0.901969
Cu3   Cu    Cu3+1 0.500000 0.500000 0.055800 0.901968
Cu4   Cu    Cu3+1 0.500000 0.500000 0.944200 0.901969
Cu5   Cu    Cu3+1 0.955930 0.500000 0.500000 0.935899
Cu6   Cu    Cu3+1 0.500000 0.955930 0.500000 0.941438
Cu7   Cu    Cu3+1 0.044070 0.500000 0.500000 0.935899
Cu8   Cu    Cu3+1 0.000000 0.544070 0.000000 0.935899
Cu9   Cu    Cu3+1 0.455930 0.000000 0.000000 0.941438
Cu10  Cu    Cu3+1 0.000000 0.455930 0.000000 0.935899
Cu11  Cu    Cu3+1 0.544070 0.000000 0.000000 0.941438
Cu12  Cu    Cu3+1 0.000000 0.000000 0.555800 0.901969
H1    H     H_    0.718605 0.949948 0.434956 0.103462
H2    H     H_    0.550049 0.218605 0.934952 0.103461
H3    H     H_    0.780366 0.570669 0.991814 0.106545
H4    H     H_    0.449950 0.781395 0.934953 0.103461
H5    H     H_    0.780365 0.429332 0.008186 0.106545
H6    H     H_    0.449951 0.218605 0.065047 0.103461
H7    H     H_    0.219634 0.570667 0.008194 0.106545
H8    H     H_    0.550049 0.781394 0.065047 0.103461
H9    H     H_    0.638525 0.948757 0.437172 0.119152
H10   H     H_    0.070789 0.639454 0.491492 0.130827
H11   H     H_    0.361475 0.051242 0.437172 0.119152
H12   H     H_    0.070668 0.719634 0.491810 0.106545
H13   H     H_    0.929210 0.360546 0.491499 0.130827
H14   H     H_    0.361475 0.948758 0.562828 0.119152
H15   H     H_    0.929211 0.639454 0.508508 0.130827
H16   H     H_    0.638525 0.051243 0.562828 0.119152
H17   H     H_    0.070790 0.360546 0.508501 0.130827
H18   H     H_    0.139454 0.429211 0.991487 0.130827
H19   H     H_    0.551241 0.138525 0.937169 0.119151
H20   H     H_    0.860546 0.570790 0.991496 0.130827
H21   H     H_    0.448759 0.861475 0.937170 0.119151
H22   H     H_    0.860545 0.429211 0.008504 0.130827
H23   H     H_    0.281395 0.050051 0.434955 0.103461
H24   H     H_    0.448759 0.138525 0.062831 0.119151
H25   H     H_    0.139454 0.570789 0.008512 0.130827
H26   H     H_    0.551241 0.861475 0.062830 0.119151
H27   H     H_    0.780270 0.069474 0.517446 0.109189
H28   H     H_    0.957432 0.778534 0.572016 0.110955
H29   H     H_    0.219730 0.930526 0.517447 0.109189
H30   H     H_    0.042570 0.221466 0.572014 0.110955
H31   H     H_    0.219730 0.069473 0.482552 0.109189
H32   H     H_    0.042568 0.778534 0.427984 0.110955
H33   H     H_    0.780270 0.930526 0.482554 0.109189
H34   H     H_    0.929332 0.280366 0.491817 0.106546
H35   H     H_    0.957430 0.221466 0.427987 0.110955
H36   H     H_    0.278534 0.542567 0.072016 0.110954
H37   H     H_    0.430526 0.280270 0.017450 0.109189
H38   H     H_    0.721466 0.457430 0.072014 0.110954
H39   H     H_    0.569473 0.719730 0.017449 0.109189
H40   H     H_    0.721466 0.542572 0.927988 0.110955
H41   H     H_    0.569473 0.280270 0.982549 0.109189
H42   H     H_    0.278534 0.457433 0.927984 0.110954
H43   H     H_    0.430526 0.719730 0.982551 0.109189
H44   H     H_    0.902289 0.080055 0.525638 0.148298
H45   H     H_    0.281395 0.949949 0.565045 0.103462
H46   H     H_    0.856445 0.107287 0.493277 0.121396
H47   H     H_    0.855262 0.093826 0.567479 0.133484
H48   H     H_    0.926254 0.889915 0.566674 0.140972
H49   H     H_    0.927476 0.841644 0.609770 0.111182
H50   H     H_    0.970350 0.881533 0.617130 0.160274
H51   H     H_    0.097711 0.919945 0.525638 0.148298
H52   H     H_    0.143555 0.892713 0.493279 0.121396
H53   H     H_    0.144737 0.906174 0.567480 0.133484
H54   H     H_    0.073748 0.110084 0.566670 0.140971
H55   H     H_    0.072528 0.158355 0.609766 0.111183
H56   H     H_    0.929332 0.719634 0.508190 0.106545
H57   H     H_    0.029653 0.118467 0.617129 0.160274
H58   H     H_    0.097711 0.080055 0.474361 0.148298
H59   H     H_    0.143555 0.107287 0.506721 0.121396
H60   H     H_    0.144738 0.093825 0.432519 0.133485
H61   H     H_    0.073747 0.889916 0.433327 0.140972
H62   H     H_    0.072525 0.841644 0.390231 0.111182
H63   H     H_    0.029651 0.881533 0.382870 0.160274
H64   H     H_    0.902289 0.919945 0.474363 0.148298
H65   H     H_    0.856445 0.892713 0.506724 0.121396
H66   H     H_    0.855262 0.906173 0.432522 0.133484
H67   H     H_    0.718605 0.050051 0.565044 0.103462
H68   H     H_    0.926252 0.110084 0.433329 0.140971
H69   H     H_    0.927473 0.158356 0.390233 0.111183
H70   H     H_    0.970347 0.118467 0.382871 0.160274
H71   H     H_    0.389915 0.573747 0.066674 0.140971
H72   H     H_    0.341644 0.572524 0.109770 0.111182
H73   H     H_    0.381533 0.529650 0.117130 0.160275
H74   H     H_    0.419945 0.402289 0.025640 0.148299
H75   H     H_    0.392712 0.356445 0.993282 0.121395
H76   H     H_    0.406175 0.355263 0.067484 0.133484
H77   H     H_    0.610085 0.426251 0.066670 0.140970
H78   H     H_    0.070669 0.280366 0.508183 0.106546
H79   H     H_    0.658356 0.427472 0.109767 0.111183
H80   H     H_    0.618466 0.470346 0.117128 0.160275
H81   H     H_    0.580054 0.597711 0.025642 0.148299
H82   H     H_    0.607288 0.643554 0.993281 0.121396
H83   H     H_    0.593825 0.644738 0.067483 0.133484
H84   H     H_    0.610079 0.573745 0.933330 0.140978
H85   H     H_    0.658354 0.572533 0.890240 0.111183
H86   H     H_    0.618471 0.529653 0.882869 0.160268
H87   H     H_    0.580054 0.402289 0.974359 0.148299
H88   H     H_    0.607288 0.356444 0.006716 0.121395
H89   H     H_    0.219634 0.429332 0.991805 0.106545
H90   H     H_    0.593824 0.355263 0.932515 0.133484
H91   H     H_    0.389915 0.426253 0.933327 0.140971
H92   H     H_    0.341644 0.427476 0.890229 0.111182
H93   H     H_    0.381534 0.470349 0.882871 0.160276
H94   H     H_    0.419945 0.597711 0.974362 0.148299
H95   H     H_    0.392712 0.643556 0.006719 0.121395
H96   H     H_    0.406175 0.644737 0.932518 0.133484
O1    O     O_R   0.564260 0.037220 0.500020 -0.508764
O2    O     O_R   0.462780 0.064260 0.000020 -0.508764
O3    O     O_R   0.935740 0.462780 0.000020 -0.513644
O4    O     O_R   0.537220 0.935740 0.000020 -0.508764
O5    O     O_R   0.935740 0.537220 0.999980 -0.513645
O6    O     O_R   0.537220 0.064260 0.999980 -0.508764
O7    O     O_R   0.064260 0.462780 0.999980 -0.513645
O8    O     O_R   0.462780 0.935740 0.999980 -0.508764
O9    O     O_R   0.499990 0.037220 0.581420 -0.502798
O10   O     O_R   0.962780 0.499990 0.581420 -0.501716
O11   O     O_R   0.500010 0.962780 0.581420 -0.502798
O12   O     O_R   0.962780 0.564260 0.500020 -0.513645
O13   O     O_R   0.037220 0.500010 0.581420 -0.501716
O14   O     O_R   0.500010 0.037220 0.418580 -0.502798
O15   O     O_R   0.037220 0.499990 0.418580 -0.501716
O16   O     O_R   0.499990 0.962780 0.418580 -0.502798
O17   O     O_R   0.962780 0.500010 0.418580 -0.501715
O18   O     O_R   0.999990 0.537220 0.081420 -0.501716
O19   O     O_R   0.462780 0.999990 0.081420 -0.502798
O20   O     O_R   0.000010 0.462780 0.081420 -0.501715
O21   O     O_R   0.537220 0.000010 0.081420 -0.502798
O22   O     O_R   0.000010 0.537220 0.918580 -0.501716
O23   O     O_R   0.435740 0.962780 0.500020 -0.508764
O24   O     O_R   0.537220 0.999990 0.918580 -0.502798
O25   O     O_R   0.999990 0.462780 0.918580 -0.501716
O26   O     O_R   0.462780 0.000010 0.918580 -0.502798
O27   O     O_R   0.999990 0.935770 0.547120 -0.515038
O28   O     O_R   0.064230 0.999990 0.547120 -0.507624
O29   O     O_R   0.000010 0.064230 0.547120 -0.515037
O30   O     O_R   0.935770 0.000010 0.547120 -0.507624
O31   O     O_R   0.000010 0.935770 0.452880 -0.515037
O32   O     O_R   0.935770 0.999990 0.452880 -0.507623
O33   O     O_R   0.999990 0.064230 0.452880 -0.515037
O34   O     O_R   0.037220 0.435740 0.500020 -0.513645
O35   O     O_R   0.064230 0.000010 0.452880 -0.507624
O36   O     O_R   0.499990 0.435770 0.047120 -0.507623
O37   O     O_R   0.564230 0.499990 0.047120 -0.515038
O38   O     O_R   0.500010 0.564230 0.047120 -0.507624
O39   O     O_R   0.435770 0.500010 0.047120 -0.515038
O40   O     O_R   0.500010 0.435770 0.952880 -0.507624
O41   O     O_R   0.435770 0.499990 0.952880 -0.515038
O42   O     O_R   0.499990 0.564230 0.952880 -0.507624
O43   O     O_R   0.564230 0.500010 0.952880 -0.515037
O44   O     O_R   0.435740 0.037220 0.499980 -0.508764
O45   O     O_R   0.037220 0.564260 0.499980 -0.513645
O46   O     O_R   0.564260 0.962780 0.499980 -0.508764
O47   O     O_R   0.962780 0.435740 0.499980 -0.513644
O48   O     O_R   0.064260 0.537220 0.000020 -0.513644

loop_
_geom_bond_atom_site_label_1
_geom_bond_atom_site_label_2
_ccdc_geom_bond_type
C14   C109  S    
C50   H64   S    
C110  C118  T    
C9    C143  A    
C66   C79   A    
C56   H84   S    
C44   H50   S    
C126  H23   S    
C18   C125  A    
C33   H35   S    
Cu9   O8    S    
Cu10  O7    S    
C15   C120  S    
C50   H65   S    
C60   H94   S    
C113  C122  T    
Cu11  O21   S    
C14   C151  A    
C139  H7    S    
C19   C82   S    
C43   H47   S    
C46   C72   A    
C43   H44   S    
C39   H40   S    
Cu4   O42   S    
C102  C111  S    
C32   C57   A    
C20   C132  A    
C53   H76   S    
C21   C133  A    
Cu9   Cu11  S    
C115  C123  S    
C59   H91   S    
Cu7   O13   S    
C12   C150  A    
C25   C140  A    
Cu8   O18   S    
C133  H89   S    
Cu8   O48   S    
C101  C110  S    
Cu5   O12   S    
C25   C88   S    
C26   C80   A    
Cu6   O11   S    
C93   O36   A    
C38   C88   A    
C103  C112  S    
C30   C82   A    
C32   H33   S    
C128  H45   S    
C32   C80   A    
C30   H31   S    
C56   H85   S    
C42   H43   S    
C57   C71   A    
C33   C83   A    
C127  C145  A    
C132  H78   S    
C13   C73   A    
C89   O27   A    
C90   O28   A    
Cu8   O22   S    
C62   C75   A    
C21   C139  A    
C127  H34   S    
C76   O44   A    
C52   H72   S    
C41   C69   A    
C68   C77   A    
C22   C138  A    
C91   O29   A    
Cu12  O27   S    
C70   C79   A    
C50   C57   S    
C26   H27   S    
C61   C74   A    
Cu3   O36   S    
C99   O10   A    
C106  C115  T    
C51   H69   S    
C60   H96   S    
C13   C45   S    
Cu1   O44   S    
C48   H58   S    
C78   C94   S    
C134  C151  A    
C45   H51   S    
C9    C147  A    
C58   H90   S    
C45   H52   S    
C9    C65   S    
C129  C147  A    
Cu5   O17   S    
C147  H15   S    
C33   C61   A    
Cu5   O47   S    
C92   O30   A    
Cu3   Cu4   S    
C43   C142  S    
C5    H24   S    
C109  O2    A    
Cu12  O30   S    
C1    C8    S    
Cu3   O38   S    
Cu2   Cu12  S    
C73   C90   S    
C129  H56   S    
C4    H22   S    
C135  C152  A    
Cu2   O31   S    
C42   C70   A    
C146  H14   S    
C111  C119  T    
C3    C136  A    
C22   C85   S    
Cu2   O32   S    
Cu1   Cu6   S    
C16   C131  S    
C4    C137  A    
C71   C92   S    
C2    C44   S    
C31   C46   A    
C37   H38   S    
C7    H26   S    
C8    C141  A    
Cu1   O1    S    
C47   H57   S    
C58   H87   S    
C34   C84   A    
C3    H21   S    
C11   C149  A    
C100  C108  S    
C28   C82   A    
C37   C86   A    
C20   C127  A    
C48   H60   S    
C41   C84   A    
C55   H82   S    
C17   C80   S    
C100  O14   A    
C96   O39   A    
Cu8   Cu10  S    
C34   H36   S    
C17   C124  A    
C120  O3    A    
C92   O32   A    
Cu6   O46   S    
C10   C144  A    
C10   C146  A    
C114  C123  T    
Cu11  O6    S    
C124  C141  A    
C36   H37   S    
C49   H61   S    
Cu9   O26   S    
C40   H41   S    
C17   C130  A    
C64   C78   A    
C108  C117  T    
C133  C150  A    
C151  H19   S    
C90   O35   A    
C39   C86   A    
C54   H79   S    
C112  C121  T    
C52   C62   S    
C53   C63   S    
C97   O9    A    
C54   C64   S    
C125  C143  A    
Cu6   O23   S    
C6    H25   S    
C126  C144  A    
C50   H66   S    
C107  C116  T    
C124  H1    S    
Cu11  O24   S    
C148  H16   S    
C27   H28   S    
C135  H3    S    
C125  H12   S    
C3    C16   A    
C94   O43   A    
C53   H75   S    
C150  H18   S    
C46   C49   S    
C116  C122  S    
C100  O16   A    
C101  O17   A    
C6    C12   A    
C7    C140  A    
Cu3   O39   S    
C19   C128  A    
C34   C62   A    
C41   H42   S    
C65   O12   A    
C24   C29   A    
C104  O22   A    
C89   O31   A    
C23   C86   S    
C56   H86   S    
Cu11  O4    S    
C134  H2    S    
C13   C28   A    
C2    C27   A    
C49   H63   S    
C12   C98   S    
Cu5   Cu7   S    
C149  H17   S    
C132  C149  A    
C8    C148  A    
C2    C72   A    
C35   C48   S    
C15   C152  A    
C23   C137  A    
C75   C96   S    
C47   H54   S    
Cu2   O35   S    
C87   O34   A    
Cu12  O28   S    
C98   O48   A    
C44   H49   S    
C54   H77   S    
Cu9   O19   S    
Cu10  O20   S    
C97   O11   A    
C131  O8    A    
C40   C85   A    
C79   C95   S    
C21   C84   S    
C5    C14   A    
Cu7   O45   S    
C97   C106  S    
C58   C68   S    
C7    C16   A    
C38   H39   S    
C95   O38   A    
Cu4   O41   S    
C37   C64   A    
C59   H92   S    
C102  O20   A    
Cu6   O16   S    
C36   C85   A    
C99   C107  S    
Cu3   O37   S    
C19   C126  A    
C23   C135  A    
C31   H32   S    
C77   C93   S    
C69   C75   A    
Cu10  O25   S    
C40   C68   A    
C59   H93   S    
C18   C129  A    
C143  H10   S    
C52   H71   S    
C74   C91   S    
Cu2   O33   S    
C138  H6    S    
C45   H53   S    
C76   O23   A    
C58   H88   S    
C51   C61   S    
Cu7   O34   S    
C103  O19   A    
C128  C146  A    
C18   C81   S    
C99   O13   A    
C5    C138  A    
C30   C35   A    
C22   C134  A    
C51   H70   S    
C130  H67   S    
C60   H95   S    
C29   C83   A    
Cu12  O29   S    
C87   O47   A    
C29   H30   S    
C6    C139  A    
C105  O24   A    
C25   C136  A    
C43   H46   S    
C117  C121  S    
C118  C119  S    
C10   C76   S    
Cu9   O2    S    
C38   C66   A    
Cu4   O43   S    
Cu1   O14   S    
C152  H20   S    
C36   C63   A    
C137  H5    S    
C104  O25   A    
Cu8   O5    S    
C140  H8    S    
C55   H83   S    
C141  H9    S    
C67   C78   A    
C102  O18   A    
C130  C148  A    
C105  C114  S    
C27   C81   A    
C11   C87   S    
C11   C145  A    
C136  H4    S    
C47   H55   S    
C91   O33   A    
C104  C113  S    
C44   H48   S    
C54   H80   S    
C60   C70   S    
C98   O7    A    
C28   H29   S    
C93   O40   A    
C65   O45   A    
C52   H73   S    
C71   C142  A    
C1    O1    A    
C59   C69   S    
C42   C88   A    
C96   O41   A    
C131  O4    A    
C63   C77   A    
C35   C73   A    
C120  O5    A    
C51   H68   S    
C24   C47   S    
C39   C67   A    
Cu4   O40   S    
Cu1   O9    S    
C109  O6    A    
C53   H74   S    
C48   H59   S    
C56   C67   S    
C1    O46   A    
C105  O26   A    
C31   C81   A    
Cu7   O15   S    
C4    C15   A    
C72   C89   S    
C24   C74   A    
Cu10  O3    S    
Cu5   O10   S    
C144  H11   S    
C95   O42   A    
C94   O37   A    
C55   H81   S    
C20   C83   S    
C145  H13   S    
C101  O15   A    
C49   H62   S    
C26   C142  A    
C103  O21   A    
C55   C66   S    
