data_mof_unit_57037.cif
_audit_creation_date              2012-10-26T18:31:58-0400
_audit_creation_method            fapswitch 2.2
_symmetry_space_group_name_H-M    P1
_symmetry_Int_Tables_number       1
_space_group_crystal_system       triclinic
_cell_length_a                    12.357387
_cell_length_b                    13.265255
_cell_length_c                    14.231976
_cell_angle_alpha                 93.271725
_cell_angle_beta                  107.914879
_cell_angle_gamma                 116.861726
_cell_volume                      1926.77717773

loop_
_atom_site_label
_atom_site_type_symbol
_atom_type_description
_atom_site_fract_x
_atom_site_fract_y
_atom_site_fract_z
_atom_type_partial_charge
C1    C     C_R   0.651680 0.714208 0.510188 0.602492
C2    C     C_R   0.152152 0.410308 0.997971 -0.016653
C3    C     C_R   0.110268 0.439013 0.072555 -0.030477
C4    C     C_R   0.617330 0.514968 0.686874 0.557880
C5    C     C_R   0.267314 0.402898 0.027402 -0.077565
C6    C     C_R   0.342532 0.426219 0.129866 -0.128103
C7    C     C_R   0.193227 0.471080 0.174876 -0.072318
C8    C     C_R   0.148270 0.964180 0.376980 -0.121478
C9    C     C_R   0.253553 0.162550 0.469968 -0.005058
C10   C     C_R   0.750019 0.916135 0.600031 -0.207031
C11   C     C_R   0.859759 0.024908 0.642100 -0.060409
C12   C     C_R   0.826245 0.465805 0.913609 0.017219
C13   C     C_R   0.963932 0.057629 0.610157 0.393829
C14   C     C_R   0.953327 0.985927 0.525429 -0.029545
C15   C     C_R   0.839145 0.875058 0.481100 -0.024336
C16   C     C_R   0.345926 0.285419 0.485875 0.536516
C17   C     C_R   0.053008 0.018436 0.484755 0.018735
C18   C     C_R   0.045311 0.935912 0.411251 -0.020345
C19   C     C_R   0.930689 0.829954 0.366468 -0.087892
C20   C     C_R   0.825398 0.803540 0.395431 0.384694
C21   C     C_R   0.155048 0.132760 0.508696 -0.067155
C22   C     C_R   0.253534 0.076909 0.407821 -0.118140
C23   C     C_R   0.769252 0.471220 0.984862 -0.074863
C24   C     C_R   0.742982 0.837820 0.525003 -0.008805
C25   C     C_R   0.254075 0.685971 0.661348 -0.083659
C26   C     C_R   0.654333 0.341546 0.363928 0.052234
C27   C     C_R   0.731591 0.305616 0.334868 -0.139514
C28   C     C_R   0.380261 0.481634 0.312838 0.561428
C29   C     C_R   0.866899 0.364369 0.386663 -0.075986
C30   C     C_R   0.927480 0.461331 0.468086 0.026618
C31   C     C_R   0.843798 0.494537 0.495677 0.206373
C32   C     C_R   0.067255 0.526100 0.523390 -0.003879
C33   C     C_R   0.119126 0.621234 0.605357 -0.009057
C34   C     C_R   0.929068 0.438505 0.939381 -0.059398
C35   C     C_R   0.036340 0.651653 0.631331 -0.149986
C36   C     C_R   0.902252 0.590072 0.577799 -0.069958
C37   C     C_R   0.159055 0.501599 0.501408 0.015221
C38   C     C_R   0.338474 0.657273 0.636346 0.565494
C39   C     C_R   0.673328 0.509190 0.792485 -0.006452
C40   C     C_R   0.306036 0.461090 0.204220 -0.000888
C41   C     C_R   0.663540 0.492288 0.958675 -0.088323
C42   C     C_R   0.614096 0.509184 0.862511 0.403268
C43   C     C_R   0.782175 0.492969 0.820596 -0.135608
C44   C     C_R   0.990488 0.440887 0.042511 -0.023753
C45   C     C_R   0.927143 0.440725 0.110628 0.373645
C46   C     C_R   0.817626 0.454678 0.081241 -0.075922
C47   C     C_R   0.969439 0.404341 0.865875 0.385199
C48   C     C_R   0.078500 0.389349 0.895279 0.427565
Cu1   Cu    Cu3+1 0.416420 0.526630 0.522910 1.095808
Cu2   Cu    Cu3+1 0.583580 0.473370 0.477090 0.997935
F1    F     F_    0.076824 0.154208 0.669451 -0.590488
F2    F     F_    0.708450 0.710785 0.335522 -0.620814
F3    F     F_    0.468828 0.720055 0.690951 -0.597067
F4    F     F_    0.113367 0.356056 0.822522 -0.537158
F5    F     F_    0.508201 0.524479 0.838382 -0.565455
F6    F     F_    0.961121 0.415333 0.202432 -0.687915
F7    F     F_    0.897383 0.373376 0.764900 -0.606317
H1    H     H_    0.919405 0.770343 0.304137 0.139444
H2    H     H_    0.329254 0.098829 0.377013 0.129299
H3    H     H_    0.144334 0.900609 0.322736 0.118695
H4    H     H_    0.868279 0.081106 0.705434 0.198690
H5    H     H_    0.174096 0.508292 0.232906 0.204134
H6    H     H_    0.294130 0.758650 0.724325 0.130814
H7    H     H_    0.128044 0.431224 0.439968 0.140944
H8    H     H_    0.549465 0.295005 0.323340 0.119007
H9    H     H_    0.921637 0.331881 0.361796 0.161910
H10   H     H_    0.618074 0.494295 0.012367 0.139525
H11   H     H_    0.833723 0.505090 0.769698 0.205888
H12   H     H_    0.154033 0.202282 0.550342 0.223313
H13   H     H_    0.676186 0.889615 0.633236 0.193578
H14   H     H_    0.075763 0.724448 0.694085 0.117234
H15   H     H_    0.686303 0.231560 0.272092 0.126424
H16   H     H_    0.848024 0.620603 0.604049 0.162935
H17   H     H_    0.429658 0.417947 0.150729 0.142196
H18   H     H_    0.771244 0.453748 0.134916 0.139933
H19   H     H_    0.299436 0.378955 0.971373 0.208041
N1    N     N_R   0.290690 0.566960 0.557640 -0.228710
N2    N     N_R   0.709100 0.433710 0.442970 -0.226771
O1    O     O_R   0.545970 0.684450 0.528810 -0.471497
O2    O     O_R   0.687130 0.639470 0.490120 -0.477374
O3    O     O_R   0.519670 0.535100 0.660030 -0.370127
O4    O     O_R   0.660830 0.490120 0.621340 -0.541475
O5    O     O_R   0.312870 0.360530 0.509880 -0.511137
O6    O     O_R   0.454030 0.315550 0.471190 -0.511008
O7    O     O_R   0.339170 0.509880 0.378660 -0.526053
O8    O     O_R   0.480330 0.464900 0.339970 -0.482232

loop_
_geom_bond_atom_site_label_1
_geom_bond_atom_site_label_2
_ccdc_geom_bond_type
C27   C29   A    
C41   C42   A    
C19   C20   A    
Cu2   O6    S    
C41   H10   S    
C45   C46   A    
C48   F4    S    
C12   C23   A    
C26   C27   A    
C26   N2    A    
C9    C16   S    
C12   C43   A    
C3    C7    A    
C30   C31   A    
C42   F5    S    
C9    C22   A    
C28   C40   S    
C16   O6    A    
C18   C19   A    
C25   H6    S    
Cu1   O3    S    
C13   F1    S    
C4    O3    A    
C35   C36   A    
C45   F6    S    
C43   H11   S    
C8    C22   A    
C7    C40   A    
C35   H14   S    
C23   C46   A    
C13   C14   A    
C14   C17   A    
Cu2   N2    S    
C46   H18   S    
C6    H17   S    
C39   C42   A    
C19   H1    S    
C15   C20   A    
C3    C44   A    
Cu1   O7    S    
C34   C44   A    
C10   C11   A    
C22   H2    S    
C39   C43   A    
C2    C48   A    
C37   N1    A    
C16   O5    A    
C8    C18   A    
Cu1   O1    S    
C21   H12   S    
C7    H5    S    
C29   C30   A    
C25   C38   A    
C47   F7    S    
C47   C48   A    
C4    C39   S    
C17   C18   A    
C32   C37   A    
C10   H13   S    
C15   C24   A    
C28   O8    A    
C1    O1    A    
C6    C40   A    
C2    C5    A    
C12   C34   A    
C37   H7    S    
C44   C45   A    
Cu2   O4    S    
C31   N2    A    
C14   C15   A    
C26   H8    S    
C11   H4    S    
Cu2   O2    S    
C38   N1    A    
C23   C41   A    
C10   C24   A    
C32   C33   A    
Cu1   O5    S    
C5    H19   S    
C2    C3    A    
C20   F2    S    
C8    H3    S    
C30   C32   A    
C11   C13   A    
C9    C21   A    
C5    C6    A    
C38   F3    S    
C33   C35   A    
Cu1   N1    S    
C17   C21   A    
C36   H16   S    
Cu2   O8    S    
C29   H9    S    
C4    O4    A    
C1    C24   S    
Cu1   Cu2   S    
C28   O7    A    
C1    O2    A    
C31   C36   A    
C34   C47   A    
C27   H15   S    
C25   C33   A    
