data_mof_unit_6520.cif
_audit_creation_date              2012-10-26T21:33:05-0400
_audit_creation_method            fapswitch 2.2
_symmetry_space_group_name_H-M    P1
_symmetry_Int_Tables_number       1
_space_group_crystal_system       triclinic
_cell_length_a                    28.24241
_cell_length_b                    18.471468
_cell_length_c                    17.099709
_cell_angle_alpha                 89.899821
_cell_angle_beta                  60.530676
_cell_angle_gamma                 90.257331
_cell_volume                      7766.24816597

loop_
_atom_site_label
_atom_site_type_symbol
_atom_type_description
_atom_site_fract_x
_atom_site_fract_y
_atom_site_fract_z
_atom_type_partial_charge
C1    C     C_R   0.702004 0.269137 0.675745 0.887850
C2    C     C_R   0.968815 0.632214 0.442584 -0.220159
C3    C     C_R   0.074079 0.900519 0.933937 0.893552
C4    C     C_R   0.575793 0.597350 0.931853 0.910495
C5    C     C_R   0.428326 0.397564 0.063827 0.904371
C6    C     C_R   0.425779 0.599273 0.066223 0.920794
C7    C     C_R   0.574060 0.400494 0.933952 0.894817
C8    C     C_R   0.530183 0.998398 0.559696 0.022065
C9    C     C_R   0.441705 0.997994 0.526502 0.021403
C10   C     C_R   0.058567 0.501998 0.472707 0.022277
C11   C     C_R   0.970039 0.501582 0.439619 0.021522
C12   C     C_R   0.501602 0.063241 0.568979 0.048962
C13   C     C_R   0.978330 0.372569 0.412806 -0.208857
C14   C     C_R   0.471042 0.933813 0.516197 0.046312
C15   C     C_R   0.454132 0.061350 0.559863 0.050102
C16   C     C_R   0.511080 0.932669 0.542898 0.050691
C17   C     C_R   0.029223 0.566177 0.483001 0.048149
C18   C     C_R   0.998652 0.436744 0.430261 0.047042
C19   C     C_R   0.989169 0.567314 0.456338 0.050499
C20   C     C_R   0.046159 0.438642 0.439318 0.049295
C21   C     C_R   0.603930 0.932970 0.565137 0.068483
C22   C     C_R   0.367808 0.061037 0.519022 0.061457
C23   C     C_R   0.386913 0.935919 0.470458 0.075543
C24   C     C_R   0.038810 0.626166 0.524033 -0.216892
C25   C     C_R   0.602301 0.064918 0.570737 0.070482
C26   C     C_R   0.132393 0.438941 0.480425 0.063702
C27   C     C_R   0.896160 0.567011 0.434538 0.068490
C28   C     C_R   0.897791 0.435049 0.428957 0.069004
C29   C     C_R   0.113240 0.564056 0.529007 0.077229
C30   C     C_R   0.656854 0.934527 0.556689 -0.123989
C31   C     C_R   0.329601 0.062510 0.487166 -0.118672
C32   C     C_R   0.340145 0.936082 0.458607 -0.130033
C33   C     C_R   0.656213 0.064679 0.558654 -0.128707
C34   C     C_R   0.170507 0.437473 0.512491 -0.111443
C35   C     C_R   0.531385 0.867768 0.556744 -0.220132
C36   C     C_R   0.843178 0.565463 0.443202 -0.129570
C37   C     C_R   0.843822 0.435300 0.441246 -0.127994
C38   C     C_R   0.159929 0.563891 0.541078 -0.130935
C39   C     C_R   0.681016 0.999789 0.556077 -0.295818
C40   C     C_R   0.316251 0.000330 0.458139 -0.298421
C41   C     C_R   0.183807 0.499650 0.541593 -0.299949
C42   C     C_R   0.818994 0.500195 0.443921 -0.294119
C43   C     C_R   0.578663 0.998832 0.565823 0.075890
C44   C     C_R   0.399192 0.998510 0.504574 0.073421
C45   C     C_R   0.101030 0.501476 0.494766 0.073414
C46   C     C_R   0.418135 0.119928 0.583763 -0.212994
C47   C     C_R   0.921475 0.501143 0.433721 0.076113
C48   C     C_R   0.125342 0.381275 0.432903 -0.177689
C49   C     C_R   0.925345 0.631591 0.426232 -0.176140
C50   C     C_R   0.929273 0.371891 0.411623 -0.182280
C51   C     C_R   0.078934 0.624351 0.548733 -0.170082
C52   C     C_R   0.574757 0.868393 0.573344 -0.177215
C53   C     C_R   0.374912 0.118690 0.566487 -0.175864
C54   C     C_R   0.421212 0.875611 0.450683 -0.169833
C55   C     C_R   0.570835 0.128071 0.587997 -0.181827
C56   C     C_R   0.461408 0.873810 0.475235 -0.216198
C57   C     C_R   0.521875 0.127411 0.586537 -0.211309
C58   C     C_R   0.723109 0.269716 0.951080 -0.058808
C59   C     C_R   0.278480 0.732897 0.047155 -0.033624
C60   C     C_R   0.269261 0.290555 0.055168 -0.093171
C61   C     C_R   0.298059 0.731025 0.324219 0.895012
C62   C     C_R   0.709266 0.757262 0.964011 -0.095839
C63   C     C_R   0.223144 0.769750 0.951041 -0.058989
C64   C     C_R   0.778511 0.232933 0.047122 -0.033372
C65   C     C_R   0.770033 0.789043 0.054491 -0.094381
C66   C     C_R   0.208842 0.258261 0.964200 -0.093105
C67   C     C_R   0.735822 0.197395 0.958273 -0.344914
C68   C     C_R   0.265620 0.805144 0.040387 -0.273212
C69   C     C_R   0.221547 0.247827 0.095488 -0.217280
C70   C     C_R   0.755193 0.803523 0.925523 -0.223388
C71   C     C_R   0.235714 0.697398 0.958419 -0.346529
C72   C     C_R   0.296564 0.272733 0.325333 0.889770
C73   C     C_R   0.765504 0.305147 0.040543 -0.271451
C74   C     C_R   0.722956 0.745128 0.094130 -0.212513
C75   C     C_R   0.255320 0.303509 0.925108 -0.227610
C76   C     C_R   0.763285 0.178449 0.005706 0.470785
C77   C     C_R   0.239496 0.824483 0.991576 0.466152
C78   C     C_R   0.188706 0.238983 0.056035 0.446300
C79   C     C_R   0.781872 0.824731 0.972747 0.442602
C80   C     C_R   0.263145 0.678417 0.005891 0.470109
C81   C     C_R   0.739349 0.324455 0.991770 0.466841
C82   C     C_R   0.689801 0.736606 0.055253 0.446753
C83   C     C_R   0.700134 0.734767 0.676280 0.888818
C84   C     C_R   0.281808 0.325140 0.972465 0.440991
C85   C     C_R   0.644376 0.328331 0.945307 -0.197915
C86   C     C_R   0.355612 0.671636 0.054821 -0.116048
C87   C     C_R   0.357636 0.325502 0.053410 -0.194525
C88   C     C_R   0.645239 0.672964 0.941249 -0.203200
C89   C     C_R   0.144437 0.828422 0.945258 -0.199407
C90   C     C_R   0.855672 0.171725 0.054776 -0.114373
C91   C     C_R   0.858155 0.824759 0.052957 -0.194648
C92   C     C_R   0.144938 0.173552 0.941653 -0.203802
C93   C     C_R   0.616838 0.347804 0.898249 -0.071101
C94   C     C_R   0.202022 0.769171 0.675733 0.888612
C95   C     C_R   0.382937 0.651821 0.102063 -0.100354
C96   C     C_R   0.385630 0.344209 0.099822 -0.085885
C97   C     C_R   0.617482 0.651958 0.895559 -0.085592
C98   C     C_R   0.116889 0.847879 0.898211 -0.071165
C99   C     C_R   0.882987 0.151896 0.102027 -0.100274
C100  C     C_R   0.885955 0.843807 0.099577 -0.083558
C101  C     C_R   0.117461 0.152025 0.895649 -0.087773
C102  C     C_R   0.633444 0.322449 0.813352 -0.261713
C103  C     C_R   0.366339 0.677138 0.186945 -0.263883
C104  C     C_R   0.367410 0.321440 0.186108 -0.249796
C105  C     C_R   0.798077 0.231060 0.324207 0.894350
C106  C     C_R   0.631320 0.680186 0.812975 -0.254185
C107  C     C_R   0.133501 0.822542 0.813309 -0.261756
C108  C     C_R   0.866398 0.177233 0.186902 -0.263891
C109  C     C_R   0.867714 0.821036 0.185910 -0.256196
C110  C     C_R   0.131511 0.179858 0.812810 -0.251890
C111  C     C_R   0.680068 0.282460 0.770686 -0.058079
C112  C     C_R   0.320102 0.717902 0.229200 -0.056149
C113  C     C_R   0.316983 0.290405 0.232178 -0.054002
C114  C     C_R   0.674901 0.726238 0.772726 -0.063476
C115  C     C_R   0.180118 0.782543 0.770649 -0.058663
C116  C     C_R   0.796688 0.772509 0.325235 0.895528
C117  C     C_R   0.820152 0.217986 0.229163 -0.055614
C118  C     C_R   0.817365 0.789725 0.231857 -0.054470
C119  C     C_R   0.174916 0.226183 0.772674 -0.060421
C120  C     C_R   0.708852 0.262466 0.816056 -0.187475
C121  C     C_R   0.291831 0.738910 0.183284 -0.207635
C122  C     C_R   0.283942 0.282109 0.191704 -0.190091
C123  C     C_R   0.698434 0.755988 0.822271 -0.179010
C124  C     C_R   0.208909 0.762553 0.816006 -0.188578
C125  C     C_R   0.791887 0.238998 0.183237 -0.206597
C126  C     C_R   0.784556 0.780873 0.191065 -0.181431
C127  C     C_R   0.200139 0.234763 0.676263 0.890356
C128  C     C_R   0.198227 0.256327 0.822327 -0.187082
C129  C     C_R   0.691377 0.286107 0.904020 0.084281
C130  C     C_R   0.309298 0.715171 0.095318 0.139051
C131  C     C_R   0.303916 0.299102 0.100220 0.111906
C132  C     C_R   0.683033 0.730483 0.909816 0.109417
C133  C     C_R   0.191432 0.786186 0.903968 0.084702
C134  C     C_R   0.809352 0.215252 0.095270 0.138429
C135  C     C_R   0.804604 0.797836 0.099578 0.107320
C136  C     C_R   0.182747 0.231072 0.909988 0.108736
C137  C     C_R   0.691065 0.129373 0.535556 0.897934
C138  C     C_R   0.082166 0.380058 0.415462 -0.211883
C139  C     C_R   0.308450 0.870961 0.467077 0.894905
C140  C     C_R   0.303138 0.127915 0.483151 0.916740
C141  C     C_R   0.691467 0.870628 0.534399 0.891442
C142  C     C_R   0.191569 0.629021 0.532834 0.897419
C143  C     C_R   0.808946 0.370619 0.464413 0.895113
C144  C     C_R   0.808549 0.629379 0.465544 0.911686
C145  C     C_R   0.196901 0.372079 0.516722 0.895978
C146  C     C_R   0.075788 0.097370 0.931882 0.910717
C147  C     C_R   0.928422 0.897480 0.063749 0.904827
C148  C     C_R   0.925797 0.099297 0.066209 0.922022
H1    H     H_    0.721798 0.000113 0.547018 0.200054
H2    H     H_    0.346739 0.163095 0.593256 0.179660
H3    H     H_    0.418624 0.829779 0.413751 0.171998
H4    H     H_    0.582389 0.178728 0.605335 0.174603
H5    H     H_    0.078950 0.333469 0.380329 0.148699
H6    H     H_    0.987650 0.683834 0.440499 0.144884
H7    H     H_    0.998469 0.321225 0.403216 0.147058
H8    H     H_    0.013829 0.674060 0.541311 0.146754
H9    H     H_    0.512563 0.816151 0.558770 0.144615
H10   H     H_    0.421362 0.166514 0.618880 0.143489
H11   H     H_    0.486377 0.825904 0.457954 0.149692
H12   H     H_    0.284194 0.000950 0.440579 0.195434
H13   H     H_    0.501771 0.178771 0.596039 0.142910
H14   H     H_    0.723320 0.155237 0.928152 0.158375
H15   H     H_    0.277855 0.847536 0.070611 0.182594
H16   H     H_    0.206954 0.223124 0.160536 0.171068
H17   H     H_    0.769762 0.827577 0.860176 0.170955
H18   H     H_    0.223126 0.655249 0.928411 0.158343
H19   H     H_    0.777651 0.347548 0.070882 0.182670
H20   H     H_    0.709058 0.719287 0.158384 0.173280
H21   H     H_    0.270576 0.326376 0.858992 0.169701
H22   H     H_    0.630571 0.348133 0.012693 0.178221
H23   H     H_    0.215793 0.499029 0.559319 0.194619
H24   H     H_    0.369635 0.652005 0.987310 0.175565
H25   H     H_    0.377283 0.335649 0.982076 0.195440
H26   H     H_    0.637805 0.642278 0.999849 0.208578
H27   H     H_    0.130638 0.848224 0.012643 0.177288
H28   H     H_    0.869702 0.152097 0.987262 0.176518
H29   H     H_    0.877698 0.835165 0.981664 0.195609
H30   H     H_    0.137237 0.143409 0.000783 0.208130
H31   H     H_    0.611987 0.338096 0.778017 0.177115
H32   H     H_    0.387540 0.661000 0.222527 0.180774
H33   H     H_    0.390870 0.332602 0.219457 0.176739
H34   H     H_    0.778177 0.499873 0.453135 0.200131
H35   H     H_    0.611449 0.660864 0.776427 0.177968
H36   H     H_    0.112042 0.838187 0.777979 0.177664
H37   H     H_    0.887597 0.161094 0.222487 0.180273
H38   H     H_    0.891016 0.832544 0.219447 0.173991
H39   H     H_    0.111855 0.160157 0.776085 0.180529
H40   H     H_    0.746089 0.231634 0.781922 0.160808
H41   H     H_    0.255019 0.770635 0.216975 0.160865
H42   H     H_    0.242489 0.264415 0.233401 0.141037
H43   H     H_    0.730161 0.795906 0.789562 0.142233
H44   H     H_    0.246142 0.731712 0.781875 0.160325
H45   H     H_    0.153506 0.336839 0.406288 0.173629
H46   H     H_    0.755071 0.270715 0.216933 0.161414
H47   H     H_    0.743134 0.762950 0.232537 0.150210
H48   H     H_    0.229738 0.296542 0.789725 0.142524
H49   H     H_    0.726683 0.405384 0.931529 0.339149
H50   H     H_    0.260656 0.575762 0.982401 0.338212
H51   H     H_    0.312803 0.412777 0.988826 0.345987
H52   H     H_    0.613333 0.738479 0.094108 0.330379
H53   H     H_    0.226907 0.905388 0.931200 0.338796
H54   H     H_    0.760997 0.075810 0.981937 0.338754
H55   H     H_    0.812442 0.912259 0.990411 0.346379
H56   H     H_    0.916011 0.682639 0.406519 0.178152
H57   H     H_    0.112432 0.241183 0.093322 0.330527
H58   H     H_    0.917643 0.321214 0.394456 0.176146
H59   H     H_    0.081439 0.670153 0.585782 0.170312
H60   H     H_    0.584010 0.817353 0.593199 0.177819
O1    O     O_R   0.746490 0.236330 0.638080 -0.633750
O2    O     O_R   0.325830 0.813840 0.483730 -0.637733
O3    O     O_R   0.325830 0.186160 0.483730 -0.637710
O4    O     O_R   0.674170 0.813840 0.516270 -0.643966
O5    O     O_R   0.174170 0.686160 0.516270 -0.636803
O6    O     O_R   0.825830 0.313840 0.483730 -0.636414
O7    O     O_R   0.825830 0.686160 0.483730 -0.637993
O8    O     O_R   0.174170 0.313840 0.516270 -0.642971
O9    O     O_R   0.739960 0.127620 0.525000 -0.624513
O10   O     O_R   0.260040 0.872380 0.475000 -0.621025
O11   O     O_R   0.260040 0.127620 0.475000 -0.623883
O12   O     O_R   0.253510 0.763670 0.361920 -0.632466
O13   O     O_R   0.739960 0.872380 0.525000 -0.629510
O14   O     O_R   0.239960 0.627620 0.525000 -0.620985
O15   O     O_R   0.760040 0.372380 0.475000 -0.624371
O16   O     O_R   0.760040 0.627620 0.475000 -0.622242
O17   O     O_R   0.239960 0.372380 0.525000 -0.631313
O18   O     O_R   0.680700 0.294870 0.629350 -0.633336
O19   O     O_R   0.319300 0.705130 0.370650 -0.630815
O20   O     O_R   0.319300 0.294870 0.370650 -0.625118
O21   O     O_R   0.680700 0.705130 0.629350 -0.633562
O22   O     O_R   0.180700 0.794870 0.629350 -0.631097
O23   O     O_R   0.253510 0.236330 0.361920 -0.645786
O24   O     O_R   0.819300 0.205130 0.370650 -0.633060
O25   O     O_R   0.819300 0.794870 0.370650 -0.635153
O26   O     O_R   0.180700 0.205130 0.629350 -0.626821
O27   O     O_R   0.062020 0.072840 0.007170 -0.617582
O28   O     O_R   0.937980 0.927160 0.992830 -0.613588
O29   O     O_R   0.937980 0.072840 0.992830 -0.617860
O30   O     O_R   0.062020 0.927160 0.007170 -0.625339
O31   O     O_R   0.562020 0.572840 0.007170 -0.617252
O32   O     O_R   0.437980 0.427160 0.992830 -0.614090
O33   O     O_R   0.437980 0.572840 0.992830 -0.618996
O34   O     O_R   0.746490 0.763670 0.638080 -0.629046
O35   O     O_R   0.562020 0.427160 0.007170 -0.624173
O36   O     O_R   0.947860 0.073950 0.109290 -0.618964
O37   O     O_R   0.052140 0.926050 0.890710 -0.627741
O38   O     O_R   0.052140 0.073950 0.890710 -0.626793
O39   O     O_R   0.947860 0.926050 0.109290 -0.621589
O40   O     O_R   0.447860 0.573950 0.109290 -0.618702
O41   O     O_R   0.552140 0.426050 0.890710 -0.627915
O42   O     O_R   0.552140 0.573950 0.890710 -0.627744
O43   O     O_R   0.447860 0.426050 0.109290 -0.620671
O44   O     O_3   0.731993 0.397396 0.983910 -0.764169
O45   O     O_R   0.246490 0.736330 0.638080 -0.634844
O46   O     O_3   0.273889 0.606921 0.014903 -0.770940
O47   O     O_3   0.317126 0.382978 0.937558 -0.781407
O48   O     O_3   0.637535 0.712588 0.111360 -0.782550
O49   O     O_3   0.232275 0.897438 0.983530 -0.765267
O50   O     O_3   0.774156 0.106973 0.014541 -0.769996
O51   O     O_3   0.816698 0.883141 0.938702 -0.779459
O52   O     O_3   0.136178 0.215776 0.111936 -0.786986
O53   O     O_R   0.753510 0.263670 0.361920 -0.631274
O54   O     O_R   0.753510 0.736330 0.361920 -0.634421
O55   O     O_R   0.246490 0.263670 0.638080 -0.646839
O56   O     O_R   0.674170 0.186160 0.516270 -0.635235
Zn1   Zn    Zn3+2 0.792340 0.208750 0.507670 0.952650
Zn2   Zn    Zn3+2 0.494040 0.500000 0.919480 0.963919
Zn3   Zn    Zn3+2 0.005960 0.000000 0.080520 0.967206
Zn4   Zn    Zn3+2 0.994040 0.000000 0.919480 0.967621
Zn5   Zn    Zn3+2 0.207660 0.791250 0.492330 0.955232
Zn6   Zn    Zn3+2 0.207660 0.208750 0.492330 0.951286
Zn7   Zn    Zn3+2 0.792340 0.791250 0.507670 0.950384
Zn8   Zn    Zn3+2 0.292340 0.708750 0.507670 0.953649
Zn9   Zn    Zn3+2 0.707660 0.291250 0.492330 0.954590
Zn10  Zn    Zn3+2 0.707660 0.708750 0.492330 0.951507
Zn11  Zn    Zn3+2 0.292340 0.291250 0.507670 0.948842
Zn12  Zn    Zn3+2 0.505960 0.500000 0.080520 0.971160

loop_
_geom_bond_atom_site_label_1
_geom_bond_atom_site_label_2
_ccdc_geom_bond_type
C125  C134  A    
C1    O18   A    
C14   C56   A    
C99   C148  S    
C28   C47   A    
C65   C79   A    
C5    O32   A    
C137  O9    A    
C123  C132  A    
O17   Zn11  S    
C5    O43   A    
C11   C47   A    
C139  O10   A    
C8    C43   A    
C121  C130  A    
C73   H19   S    
C82   O48   S    
C25   C43   A    
C74   H20   S    
C69   C78   A    
C55   H4    S    
C59   C130  S    
C42   H34   S    
C140  O3    A    
O1    Zn1   S    
C99   C108  A    
C41   H23   S    
C83   O34   A    
C11   C19   A    
C33   C39   A    
C30   C141  S    
C80   O46   S    
C124  C133  A    
C7    O41   A    
O29   Zn4   S    
C86   H24   S    
C12   C57   A    
C63   C133  S    
C6    O40   A    
O30   Zn3   S    
C72   O23   A    
C29   C51   A    
O40   Zn12  S    
C56   H11   S    
H54   O50   S    
C16   C35   A    
C143  O15   A    
C90   C134  A    
C34   C145  S    
C51   H59   S    
C75   C84   A    
C11   C18   A    
O53   Zn9   S    
C32   C139  S    
C10   C17   A    
C87   C131  A    
C46   H10   S    
O23   Zn6   S    
C90   H28   S    
C88   H26   S    
O24   Zn1   S    
C62   C70   A    
C103  H32   S    
C8    C16   A    
C20   C138  A    
C37   C42   A    
O8    Zn6   S    
C13   H7    S    
C26   C45   A    
C85   C129  A    
C31   C40   A    
C21   C43   A    
O45   Zn8   S    
C85   C93   A    
C126  H47   S    
C26   C34   A    
C22   C44   A    
C113  C122  A    
C33   C137  S    
C95   C103  A    
C71   H18   S    
C141  O13   A    
C29   C38   A    
C75   H21   S    
C87   H25   S    
C64   C73   A    
C69   H16   S    
C6    O33   A    
C122  H42   S    
O18   Zn9   S    
C125  H46   S    
C91   C100  A    
C18   C20   A    
C88   C97   A    
O13   Zn7   S    
C26   C48   A    
O54   Zn10  S    
O39   Zn3   S    
C147  O28   A    
H50   O46   S    
C24   C51   A    
C104  H33   S    
C62   C82   A    
C49   H56   S    
C147  O39   A    
C100  C109  A    
C2    H6    S    
C77   O49   S    
C4    C97   S    
C102  H31   S    
C38   C142  S    
C83   C114  S    
C105  C117  S    
C102  C111  A    
C92   C136  A    
C34   C41   A    
C28   C50   A    
C74   C82   A    
O38   Zn4   S    
C120  H40   S    
C60   C131  S    
C73   C81   A    
C71   C80   A    
H55   O51   S    
C109  C118  A    
O26   Zn6   S    
C22   C53   A    
C64   C134  S    
C139  O2    A    
O27   Zn3   S    
C7    C93   S    
C54   C56   A    
C110  H39   S    
C17   C24   A    
C89   C133  A    
C22   C31   A    
C119  C128  A    
C1    O1    A    
C148  O29   A    
O10   Zn5   S    
C105  O24   A    
C62   C132  S    
C108  H37   S    
O43   Zn12  S    
O42   Zn2   S    
C38   C41   A    
C116  C118  S    
C70   H17   S    
C10   C20   A    
C86   C130  A    
C83   O21   A    
H49   O44   S    
C61   O12   A    
C76   O50   S    
C72   C113  S    
C65   C74   A    
C120  C129  A    
C29   C45   A    
C111  C120  A    
O41   Zn2   S    
C93   C102  A    
C35   C52   A    
C9    C14   A    
C35   H9    S    
C2    C49   A    
C36   C42   A    
C59   C68   A    
C145  O8    A    
C58   C67   A    
C140  O11   A    
O15   Zn9   S    
C12   C15   A    
C8    C12   A    
C87   C96   A    
C84   O47   S    
O5    Zn5   S    
C64   C76   A    
C57   H13   S    
C101  C146  S    
C55   C57   A    
C61   O19   A    
C138  H5    S    
O12   Zn5   S    
C9    C44   A    
C141  O4    A    
C107  C115  A    
C65   C135  S    
C92   H30   S    
C92   C101  A    
H52   O48   S    
C143  O6    A    
C66   C136  S    
C114  C123  A    
C13   C18   A    
C66   C78   A    
O2    Zn8   S    
C3    O37   A    
C106  C114  A    
C126  C135  A    
O9    Zn1   S    
C96   C104  A    
C53   H2    S    
C109  H38   S    
O56   Zn9   S    
O3    Zn11  S    
C58   C81   A    
O37   Zn4   S    
C89   H27   S    
C81   O44   S    
C123  H43   S    
C50   H58   S    
C122  C131  A    
C124  H44   S    
C5    C96   S    
C94   O22   A    
C23   C54   A    
C148  O36   A    
C63   C77   A    
C68   H15   S    
C27   C47   A    
C68   C77   A    
C90   C99   A    
C39   H1    S    
C146  O27   A    
C94   O45   A    
C127  O26   A    
C78   O52   S    
C115  C124  A    
C37   C143  S    
O6    Zn1   S    
C2    C19   A    
C52   H60   S    
C58   C129  S    
C40   H12   S    
C128  H48   S    
C142  O5    A    
C63   C71   A    
C48   H45   S    
C110  C119  A    
O25   Zn7   S    
C144  O7    A    
C94   C115  S    
C59   C80   A    
C54   H3    S    
O22   Zn5   S    
O4    Zn10  S    
C27   C36   A    
O16   Zn10  S    
C21   C30   A    
C146  O38   A    
O55   Zn11  S    
C85   H22   S    
C48   C138  A    
C89   C98   A    
O36   Zn3   S    
C79   O51   S    
C23   C32   A    
O11   Zn6   S    
C128  C136  A    
C101  C110  A    
C28   C37   A    
O14   Zn8   S    
C112  C121  A    
C118  C126  A    
C25   C55   A    
C1    C111  S    
C121  H41   S    
C60   C84   A    
C67   H14   S    
H51   O47   S    
C70   C79   A    
C145  O17   A    
C60   C69   A    
C119  C127  S    
C66   C75   A    
C91   H29   S    
C46   C53   A    
C104  C113  A    
C17   C19   A    
C4    O31   A    
C127  O55   A    
C30   C39   A    
C14   C16   A    
C32   C40   A    
C36   C144  S    
C116  O25   A    
H53   O49   S    
C106  H35   S    
C144  O16   A    
C108  C117  A    
C116  O54   A    
C86   C95   A    
C23   C44   A    
C3    O30   A    
C4    O42   A    
C13   C50   A    
C137  O56   A    
C24   H8    S    
O19   Zn8   S    
O34   Zn7   S    
C91   C135  A    
O32   Zn2   S    
O35   Zn12  S    
C105  O53   A    
C6    C95   S    
C72   O20   A    
C10   C45   A    
C7    O35   A    
C100  C147  S    
O28   Zn4   S    
C88   C132  A    
O33   Zn2   S    
C103  C112  A    
C107  H36   S    
C67   C76   A    
O20   Zn11  S    
C15   C46   A    
O7    Zn7   S    
C31   C140  S    
O31   Zn12  S    
C61   C112  S    
C117  C125  A    
O21   Zn10  S    
C142  O14   A    
C21   C52   A    
C3    C98   S    
C27   C49   A    
C9    C15   A    
C25   C33   A    
C98   C107  A    
H57   O52   S    
C97   C106  A    
