data_mof_unit_36677.cif
_audit_creation_date              2012-12-10T17:48:58-0500
_audit_creation_method            fapswitch 2.2
_symmetry_space_group_name_H-M    P1
_symmetry_Int_Tables_number       1
_space_group_crystal_system       triclinic
_cell_length_a                    10.723837
_cell_length_b                    14.69963
_cell_length_c                    14.748263
_cell_angle_alpha                 65.028626
_cell_angle_beta                  103.540393
_cell_angle_gamma                 102.303601
_cell_volume                      2031.66455616

loop_
_atom_site_label
_atom_site_type_symbol
_atom_type_description
_atom_site_fract_x
_atom_site_fract_y
_atom_site_fract_z
_atom_type_partial_charge
C1    C     C_R   0.476665 0.119747 0.312326 0.797933
C2    C     C_3   0.877171 0.995872 0.502453 0.143044
C3    C     C_3   0.958157 0.990786 0.606205 -0.374977
C4    C     C_3   0.929068 0.092654 0.416953 -0.387493
C5    C     C_R   0.456102 0.187705 0.204726 -0.058290
C6    C     C_R   0.522092 0.812675 0.794848 -0.049130
C7    C     C_R   0.396120 0.216706 0.027036 -0.199814
C8    C     C_R   0.416156 0.150081 0.128282 -0.202295
C9    C     C_R   0.473977 0.292230 0.178962 -0.245486
C10   C     C_R   0.450002 0.360856 0.077790 0.085660
C11   C     C_R   0.413887 0.321550 0.001210 0.167468
C12   C     C_R   0.260410 0.998153 0.503030 0.755634
C13   C     C_R   0.464689 0.467300 0.050676 0.064817
C14   C     C_R   0.457631 0.533382 0.946647 0.067131
C15   C     C_R   0.418859 0.491063 0.872506 -0.214628
C16   C     C_R   0.396309 0.387128 0.899643 -0.231099
C17   C     C_R   0.483826 0.509775 0.123834 -0.219793
C18   C     C_R   0.503639 0.613733 0.096559 -0.228246
C19   C     C_R   0.508077 0.679181 0.996024 0.164698
C20   C     C_R   0.487065 0.639725 0.920238 0.091495
C21   C     C_R   0.533505 0.784039 0.970399 -0.197587
C22   C     C_R   0.539328 0.850513 0.870186 -0.199807
C23   C     C_R   0.520240 0.880317 0.687639 0.787878
C24   C     C_R   0.499200 0.708123 0.820734 -0.232452
C25   C     C_R   0.748460 0.299121 0.639848 -0.325894
C26   C     C_R   0.702084 0.212277 0.619723 -0.027902
C27   C     C_R   0.510368 0.281798 0.520590 0.622135
C28   C     C_R   0.561680 0.377658 0.526664 -0.122053
C29   C     C_R   0.678417 0.382034 0.593797 0.104276
C30   C     C_R   0.497974 0.466737 0.473049 0.078285
C31   C     C_R   0.537719 0.551234 0.502096 0.065010
C32   C     C_R   0.651560 0.549846 0.573710 -0.225651
C33   C     C_R   0.722605 0.468190 0.615872 -0.154696
C34   C     C_R   0.739764 0.998449 0.501146 0.759733
C35   C     C_R   0.399345 0.475404 0.388698 -0.200988
C36   C     C_R   0.330358 0.557759 0.342484 -0.229268
C37   C     C_R   0.358664 0.635806 0.377108 0.161338
C38   C     C_R   0.463517 0.634791 0.456426 -0.027294
C39   C     C_R   0.284423 0.716282 0.331234 -0.307451
C40   C     C_R   0.314320 0.795828 0.363422 0.134149
C41   C     C_R   0.488360 0.717998 0.486005 0.002187
C42   C     C_3   0.037226 0.898532 0.490002 -0.126672
C43   C     C_3   0.893206 0.901800 0.485747 -0.419038
C44   C     C_3   0.103057 0.996728 0.604998 -0.362434
C45   C     C_3   0.070986 0.089460 0.414850 -0.406446
C46   C     C_3   0.121592 0.994939 0.504567 0.072435
Cu1   Cu    Cu3+1 0.465900 0.918260 0.475680 0.945283
Cu2   Cu    Cu3+1 0.534100 0.081740 0.524320 0.959920
H1    H     H_    0.922664 0.160984 0.429465 0.178939
H2    H     H_    0.154292 0.067431 0.612597 0.160939
H3    H     H_    0.943760 0.054292 0.623393 0.158037
H4    H     H_    0.366653 0.357919 0.840451 0.139566
H5    H     H_    0.493653 0.681647 0.761952 0.148794
H6    H     H_    0.556725 0.931214 0.851709 0.153074
H7    H     H_    0.517326 0.643014 0.154981 0.151421
H8    H     H_    0.367098 0.186280 0.968785 0.128831
H9    H     H_    0.401283 0.069437 0.146586 0.151332
H10   H     H_    0.510078 0.318586 0.239266 0.156577
H11   H     H_    0.047260 0.902220 0.414925 0.125968
H12   H     H_    0.400947 0.536237 0.792349 0.145440
H13   H     H_    0.480163 0.464732 0.202915 0.141807
H14   H     H_    0.548275 0.814613 0.027901 0.132448
H15   H     H_    0.811440 0.471515 0.668311 0.146982
H16   H     H_    0.565870 0.723243 0.545691 0.120172
H17   H     H_    0.258788 0.859006 0.326869 0.117941
H18   H     H_    0.253969 0.560310 0.278907 0.150673
H19   H     H_    0.839622 0.301972 0.689980 0.150760
H20   H     H_    0.759127 0.150135 0.652419 0.146294
H21   H     H_    0.838827 0.905224 0.410331 0.162377
H22   H     H_    0.690817 0.612599 0.595995 0.134835
H23   H     H_    0.376246 0.420322 0.354895 0.190449
H24   H     H_    0.204531 0.718139 0.270128 0.137345
H25   H     H_    0.849926 0.831764 0.543523 0.175879
H26   H     H_    0.145914 0.934206 0.671948 0.191275
H27   H     H_    0.926095 0.919018 0.667791 0.177864
H28   H     H_    0.130783 0.160102 0.417572 0.205106
H29   H     H_    0.078154 0.087276 0.341711 0.155844
H30   H     H_    0.869347 0.099307 0.342233 0.156036
N1    N     N_R   0.585360 0.204570 0.560800 -0.208624
N2    N     N_R   0.414550 0.795430 0.439160 -0.172296
O1    O     O_R   0.455060 0.022100 0.338110 -0.595160
O2    O     O_R   0.512640 0.160150 0.379180 -0.564231
O3    O     O_R   0.288900 0.930980 0.479450 -0.579009
O4    O     O_R   0.346480 0.069030 0.520520 -0.526826
O5    O     O_R   0.487360 0.839850 0.620820 -0.581417
O6    O     O_R   0.544940 0.977900 0.661890 -0.592605
O7    O     O_R   0.653520 0.930970 0.479480 -0.593775
O8    O     O_R   0.711100 0.069020 0.520550 -0.598073
C47   C     C_2   0.078654 0.798038 0.568448 0.852873
O9    O     O_2   0.068536 0.770250 0.657415 -0.621673
O10   O     O_R   0.125861 0.735898 0.537548 -0.757281
H31   H     H_    0.150760 0.671114 0.595932 0.328035
O11   O     O_3   0.381404 0.261759 0.483947 -0.580935
C48   C     C_3   0.308078 0.252056 0.556576 -0.356093
H32   H     H_    0.323016 0.321195 0.572854 0.159617
H33   H     H_    0.330807 0.186062 0.628592 0.163322
H34   H     H_    0.203945 0.240988 0.526158 0.177523

loop_
_geom_bond_atom_site_label_1
_geom_bond_atom_site_label_2
_ccdc_geom_bond_type
C43   H25   S    
O11   C48   S    
C15   H12   S    
C19   C20   A    
C25   H19   S    
C41   N2    A    
C7    C8    A    
C22   H6    S    
C45   C46   S    
C4    H30   S    
C30   C35   A    
C45   H28   S    
C1    C5    S    
Cu1   O5    S    
Cu2   N1    S    
C36   C37   A    
C19   C21   A    
C18   C19   A    
C27   N1    A    
C30   C31   A    
C36   H18   S    
C1    O1    A    
C15   C16   A    
C6    C22   A    
C29   C33   A    
C12   O4    A    
C9    H10   S    
C42   C46   S    
C20   C24   A    
C17   H13   S    
C35   C36   A    
C23   O6    A    
C39   H24   S    
Cu2   O8    S    
Cu1   O3    S    
C47   O10   S    
C3    H27   S    
C9    C10   A    
C48   H33   S    
C2    C34   S    
C35   H23   S    
C43   H21   S    
C21   C22   A    
Cu1   N2    S    
C44   C46   S    
C7    C11   A    
C4    C45   S    
C25   C29   A    
C3    C44   S    
C14   C20   A    
C38   C41   A    
C12   C46   S    
O10   H31   S    
C3    H3    S    
C32   H22   S    
C48   H34   S    
C25   C26   A    
Cu2   O4    S    
C12   O3    A    
Cu1   O7    S    
C2    C4    S    
C5    C9    A    
C37   C38   A    
C8    H9    S    
C11   C16   A    
Cu1   Cu2   S    
C2    C43   S    
C33   H15   S    
C6    C24   A    
C40   N2    A    
C17   C18   A    
C34   O8    A    
C44   H26   S    
C21   H14   S    
C18   H7    S    
C40   H17   S    
Cu2   O6    S    
C27   O11   S    
C42   C43   S    
C39   C40   A    
C44   H2    S    
C28   C29   A    
C31   C32   A    
C16   H4    S    
C10   C13   A    
C42   H11   S    
C5    C8    A    
C24   H5    S    
C26   N1    A    
C31   C38   A    
C13   C17   A    
C4    H1    S    
C42   C47   S    
C26   H20   S    
C32   C33   A    
C28   C30   A    
C2    C3    S    
C1    O2    A    
C37   C39   A    
C6    C23   S    
Cu2   O2    S    
C7    H8    S    
C34   O7    A    
Cu1   O1    S    
C48   H32   S    
C10   C11   A    
C23   O5    A    
C27   C28   A    
C14   C15   A    
C45   H29   S    
C41   H16   S    
C47   O9    D    
C13   C14   A    
