data_mof_unit_19043.cif
_audit_creation_date              2012-12-10T17:28:33-0500
_audit_creation_method            fapswitch 2.2
_symmetry_space_group_name_H-M    P1
_symmetry_Int_Tables_number       1
_space_group_crystal_system       triclinic
_cell_length_a                    10.737228
_cell_length_b                    12.154475
_cell_length_c                    12.781981
_cell_angle_alpha                 96.430491
_cell_angle_beta                  90.400903
_cell_angle_gamma                 89.620176
_cell_volume                      1657.55286342

loop_
_atom_site_label
_atom_site_type_symbol
_atom_type_description
_atom_site_fract_x
_atom_site_fract_y
_atom_site_fract_z
_atom_type_partial_charge
C1    C     C_R   0.495570 0.523280 0.700539 0.911001
C2    C     C_R   0.513128 0.477091 0.299631 0.872771
C3    C     C_R   0.542046 0.461019 0.186966 -0.128262
C4    C     C_R   0.509477 0.537425 0.813394 -0.107485
C5    C     C_R   0.647571 0.606362 0.955724 0.109729
C6    C     C_R   0.499213 0.351590 0.023364 0.081954
C7    C     C_R   0.605023 0.606715 0.853350 -0.266175
C8    C     C_R   0.509825 0.361028 0.131281 -0.306008
C9    C     C_R   0.460183 0.457249 0.873403 0.121345
C10   C     C_R   0.602499 0.542488 0.133501 0.103805
C11   C     C_R   0.514941 0.447138 0.972157 0.059613
C12   C     C_R   0.591075 0.533798 0.021645 0.044897
C13   C     C_R   0.369276 0.942446 0.416487 -0.380218
C14   C     C_R   0.617671 0.058824 0.598295 -0.385016
C15   C     C_R   0.385652 0.829400 0.419483 0.228684
C16   C     C_R   0.606175 0.171779 0.588700 0.244187
C17   C     C_R   0.546732 0.865457 0.547758 0.189943
C18   C     C_R   0.448643 0.133369 0.458017 0.203472
C19   C     C_R   0.540269 0.980824 0.539296 0.035150
C20   C     C_R   0.452099 0.019114 0.470626 0.068494
C21   C     C_R   0.738793 0.500933 0.486674 0.868365
C22   C     C_R   0.259962 0.498602 0.502711 0.944945
C23   C     C_R   0.885013 0.318010 0.346956 0.058498
C24   C     C_R   0.102810 0.678785 0.610238 0.103445
C25   C     C_R   0.963111 0.234712 0.297378 0.229048
C26   C     C_R   0.045471 0.784655 0.617422 0.185883
C27   C     C_R   0.087758 0.259100 0.284709 -0.266130
C28   C     C_R   0.947881 0.801850 0.548743 -0.305438
C29   C     C_R   0.138029 0.356447 0.335399 0.073400
C30   C     C_R   0.893157 0.712626 0.487417 0.113908
C31   C     C_R   0.069217 0.418716 0.415830 0.028819
C32   C     C_R   0.936819 0.603500 0.494969 0.042097
C33   C     C_R   0.938269 0.411672 0.410681 -0.013737
C34   C     C_R   0.055674 0.590914 0.536671 -0.010340
C35   C     C_R   0.125458 0.497145 0.492489 -0.172051
C36   C     C_R   0.870720 0.505792 0.458385 -0.180342
H1    H     H_    0.913346 0.885016 0.543079 0.148732
H2    H     H_    0.143205 0.205832 0.229407 0.152694
H3    H     H_    0.291333 0.967722 0.370835 0.164608
H4    H     H_    0.687023 0.035063 0.653114 0.163805
H5    H     H_    0.485897 0.292154 0.171603 0.185964
H6    H     H_    0.655646 0.654359 0.801159 0.178100
N1    N     N_R   0.523130 0.207800 0.519340 -0.135535
N2    N     N_R   0.476870 0.792200 0.480660 -0.124426
O1    O     O_R   0.506170 0.421700 0.658830 -0.593945
O2    O     O_R   0.493830 0.578300 0.341170 -0.590821
O3    O     O_R   0.491330 0.609310 0.646410 -0.643416
O4    O     O_R   0.508670 0.390690 0.353590 -0.643400
O5    O     O_R   0.690650 0.406190 0.506220 -0.604999
O6    O     O_R   0.309350 0.593810 0.493780 -0.585749
O7    O     O_R   0.675800 0.593810 0.493800 -0.634624
O8    O     O_R   0.324200 0.406190 0.506200 -0.631204
Zn1   Zn    Zn3+2 0.509910 0.374730 0.508290 0.927695
Zn2   Zn    Zn3+2 0.490090 0.625270 0.491710 0.928374
N3    N     N_3   0.760236 0.317592 0.308604 -0.474520
H7    H     H_    0.702253 0.278369 0.357800 0.243027
H8    H     H_    0.734340 0.397777 0.296839 0.175285
N4    N     N_3   0.204032 0.659534 0.679438 -0.474223
H9    H     H_    0.171704 0.672883 0.756697 0.163669
H10   H     H_    0.274205 0.716824 0.670769 0.226234
C37   C     C_3   0.912571 0.126875 0.242757 -0.391718
C38   C     C_3   0.963396 0.028121 0.294252 -0.916825
H11   H     H_    0.066462 0.023295 0.287935 0.256599
H12   H     H_    0.936956 0.035384 0.378664 0.261858
H13   H     H_    0.923636 0.950352 0.254061 0.245972
H14   H     H_    0.809382 0.123691 0.245785 0.216978
H15   H     H_    0.939101 0.118260 0.158312 0.197599
C39   C     C_3   0.090983 0.882391 0.691461 -0.440489
C40   C     C_3   0.187605 0.948978 0.638860 -0.849942
H16   H     H_    0.272393 0.898208 0.620442 0.266278
H17   H     H_    0.149140 0.976823 0.565245 0.259954
H18   H     H_    0.214275 0.023062 0.693002 0.247756
H19   H     H_    0.010976 0.937660 0.716107 0.203786
H20   H     H_    0.130827 0.855940 0.764963 0.198160
N5    N     N_3   0.247544 0.401912 0.293486 -0.440882
H21   H     H_    0.276292 0.352530 0.225714 0.174109
H22   H     H_    0.222766 0.478215 0.268588 0.182369
N6    N     N_3   0.810982 0.735150 0.404039 -0.449174
H23   H     H_    0.742049 0.790220 0.434433 0.198471
H24   H     H_    0.862164 0.775663 0.350704 0.171778
C41   C     C_3   0.673685 0.635487 0.196291 -0.376730
C42   C     C_3   0.605690 0.747031 0.199721 -0.836641
H25   H     H_    0.522728 0.747429 0.249963 0.282142
H26   H     H_    0.668184 0.814665 0.233003 0.233684
H27   H     H_    0.573687 0.764532 0.120596 0.245980
H28   H     H_    0.690121 0.615732 0.277181 0.232312
H29   H     H_    0.770125 0.640858 0.168676 0.178303
C43   C     C_3   0.348641 0.384514 0.835049 -0.376052
C44   C     C_3   0.239470 0.448576 0.795042 -0.901376
H30   H     H_    0.221179 0.524546 0.849530 0.259733
H31   H     H_    0.258519 0.468454 0.714703 0.273216
H32   H     H_    0.154480 0.396552 0.790351 0.249782
H33   H     H_    0.377935 0.317298 0.773978 0.237132
H34   H     H_    0.307800 0.345013 0.900679 0.219442
N7    N     N_3   0.763263 0.662198 0.979172 -0.480644
H35   H     H_    0.751586 0.734733 0.029838 0.202026
H36   H     H_    0.828912 0.607835 0.005993 0.182847
N8    N     N_3   0.479235 0.244562 0.966217 -0.487352
H37   H     H_    0.400065 0.209894 0.996381 0.169590
H38   H     H_    0.555113 0.194040 0.980937 0.192693
C45   C     C_3   0.367974 0.170513 0.372124 -0.366626
C46   C     C_3   0.415052 0.123772 0.262885 -0.944561
H39   H     H_    0.358095 0.157581 0.201188 0.234722
H40   H     H_    0.514775 0.144739 0.254880 0.263919
H41   H     H_    0.407832 0.032727 0.247639 0.264683
H42   H     H_    0.269768 0.147105 0.383265 0.186760
H43   H     H_    0.367252 0.259657 0.376964 0.293054
C47   C     C_3   0.623750 0.825659 0.635931 -0.375248
C48   C     C_3   0.561462 0.856859 0.742834 -0.893716
H44   H     H_    0.534380 0.945567 0.754495 0.260897
H45   H     H_    0.476336 0.806880 0.749298 0.272408
H46   H     H_    0.627099 0.842086 0.807232 0.247018
H47   H     H_    0.640539 0.736806 0.624629 0.269410
H48   H     H_    0.718761 0.860253 0.636975 0.170156
N9    N     N_3   0.682858 0.249582 0.651219 -0.379247
H49   H     H_    0.775991 0.228602 0.635470 0.164351
H50   H     H_    0.666326 0.241431 0.730507 0.169932
N10   N     N_3   0.303139 0.752896 0.361561 -0.387199
H51   H     H_    0.212784 0.769982 0.389124 0.183200
H52   H     H_    0.304781 0.767229 0.282457 0.149786

loop_
_geom_bond_atom_site_label_1
_geom_bond_atom_site_label_2
_ccdc_geom_bond_type
C45   H43   S    
N3    H7    S    
C45   C46   S    
C27   C29   A    
N9    H50   S    
N7    H35   S    
C21   O5    A    
C41   C42   S    
C21   C36   S    
C2    O2    A    
C22   C35   S    
O6    Zn2   S    
C6    N8    S    
C24   C26   A    
C15   N2    A    
C48   H45   S    
C9    C43   S    
N6    H24   S    
C27   H2    S    
N4    H10   S    
N9    H49   S    
C33   C36   A    
C47   C48   S    
C46   H41   S    
C34   C35   A    
C7    H6    S    
C47   H48   S    
C40   H17   S    
N10   H51   S    
C42   H26   S    
C38   H12   S    
C37   H14   S    
N1    Zn1   S    
C19   C20   A    
C39   C40   S    
C23   C33   A    
C31   C33   A    
C44   H31   S    
C18   C20   A    
C41   H28   S    
C13   C20   A    
C22   O6    A    
O1    Zn1   S    
C37   C38   S    
C4    C7    A    
C5    N7    S    
O4    Zn1   S    
C43   H34   S    
C46   H39   S    
C8    H5    S    
C5    C12   A    
C3    C8    A    
C17   C47   S    
C6    C11   A    
C5    C7    A    
N6    H23   S    
C1    O3    A    
C6    C8    A    
C2    O4    A    
C39   H19   S    
C24   C34   A    
C18   C45   S    
C32   C34   A    
C47   H47   S    
C40   H18   S    
N5    H21   S    
C38   H11   S    
N5    H22   S    
C37   H15   S    
O2    Zn2   S    
C25   C37   S    
C44   H32   S    
C46   H40   S    
C9    C11   A    
C16   N1    A    
C41   H29   S    
C10   C12   A    
O3    Zn2   S    
C42   H25   S    
N8    H38   S    
N3    H8    S    
C14   C16   A    
C48   H46   S    
C44   H30   S    
C16   N9    S    
C32   C36   A    
C21   O7    A    
O8    Zn1   S    
C22   O8    A    
C45   H42   S    
C43   H33   S    
C38   H13   S    
C14   C19   A    
C11   C12   A    
N7    H36   S    
C23   N3    S    
C29   N5    S    
C25   C27   A    
C42   H27   S    
C10   C41   S    
C26   C28   A    
C15   N10   S    
C1    C4    S    
C26   C39   S    
O7    Zn2   S    
C13   C15   A    
C2    C3    S    
N4    H9    S    
C17   N2    A    
C29   C31   A    
C3    C10   A    
C18   N1    A    
C30   C32   A    
C1    O1    A    
C28   H1    S    
O5    Zn1   S    
C28   C30   A    
C17   C19   A    
C31   C35   A    
C23   C25   A    
C40   H16   S    
N10   H52   S    
C13   H3    S    
C14   H4    S    
C30   N6    S    
N2    Zn2   S    
C43   C44   S    
C24   N4    S    
N8    H37   S    
C4    C9    A    
C48   H44   S    
C39   H20   S    
