data_mof_unit_27900.cif
_audit_creation_date              2012-12-11T14:56:06-0500
_audit_creation_method            fapswitch 2.2
_symmetry_space_group_name_H-M    P1
_symmetry_Int_Tables_number       1
_space_group_crystal_system       triclinic
_cell_length_a                    28.003399
_cell_length_b                    17.251919
_cell_length_c                    18.020317
_cell_angle_alpha                 90.132689
_cell_angle_beta                  138.081556
_cell_angle_gamma                 89.931177
_cell_volume                      5816.11033782

loop_
_atom_site_label
_atom_site_type_symbol
_atom_type_description
_atom_site_fract_x
_atom_site_fract_y
_atom_site_fract_z
_atom_type_partial_charge
C1    C     C_R   0.687777 0.898716 0.802598 -0.139385
C2    C     C_3   0.298060 0.702820 0.014252 -0.157428
C3    C     C_3   0.708462 0.727194 0.945839 -0.141893
C4    C     C_3   0.208382 0.777439 0.943927 -0.143793
C5    C     C_3   0.791618 0.222560 0.056073 -0.143792
C6    C     C_3   0.834229 0.722290 0.019372 -0.152743
C7    C     C_3   0.165724 0.277572 0.980490 -0.152822
C8    C     C_3   0.278586 0.750856 0.060610 -0.132433
C9    C     C_3   0.721413 0.249143 0.939390 -0.132430
C10   C     C_3   0.760980 0.697351 0.901317 -0.127604
C11   C     C_3   0.238909 0.302554 0.098598 -0.127497
C12   C     C_3   0.735443 0.200670 0.096056 -0.125464
C13   C     C_3   0.257522 0.346640 0.047801 -0.156785
C14   C     C_3   0.264558 0.799329 0.903945 -0.125466
C15   C     C_3   0.219665 0.247238 0.938636 -0.135705
C16   C     C_3   0.780440 0.752858 0.061418 -0.135837
C17   C     C_3   0.315881 0.820951 0.068506 0.164704
C18   C     C_3   0.684119 0.179048 0.931495 0.164703
C19   C     C_3   0.727768 0.770345 0.896892 0.159978
C20   C     C_3   0.272237 0.229652 0.103089 0.159982
C21   C     C_3   0.772082 0.270337 0.102097 0.160093
C22   C     C_3   0.227919 0.729662 0.897903 0.160093
C23   C     C_3   0.185713 0.320528 0.932343 0.165417
C24   C     C_3   0.742404 0.653405 0.952241 -0.156757
C25   C     C_3   0.814276 0.679476 0.067647 0.165437
C26   C     C_3   0.245789 0.847974 0.952014 -0.157898
C27   C     C_3   0.754211 0.152025 0.047986 -0.157899
C28   C     C_3   0.799686 0.796272 0.012110 -0.157850
C29   C     C_3   0.200382 0.203686 0.987815 -0.157831
C30   C     C_R   0.716066 0.753518 0.621927 -0.094942
C31   C     C_R   0.283931 0.246480 0.378065 -0.094969
C32   C     C_R   0.389474 0.852297 0.645935 -0.075635
C33   C     C_R   0.312226 0.101281 0.197390 -0.139429
C34   C     C_R   0.610528 0.147704 0.354068 -0.075634
C35   C     C_R   0.110288 0.351949 0.353640 -0.075781
C36   C     C_R   0.889714 0.648049 0.646362 -0.075779
C37   C     C_R   0.784083 0.253433 0.378490 -0.096044
C38   C     C_R   0.215916 0.746567 0.621507 -0.096043
C39   C     C_R   0.259592 0.376119 0.396252 -0.327002
C40   C     C_R   0.740406 0.623879 0.603740 -0.326991
C41   C     C_R   0.604857 0.250142 0.255718 -0.337438
C42   C     C_R   0.395144 0.749858 0.744282 -0.337435
C43   C     C_R   0.895369 0.750591 0.745038 -0.337779
C44   C     C_R   0.333333 0.923532 0.182871 -0.116425
C45   C     C_R   0.104631 0.249406 0.254964 -0.337774
C46   C     C_R   0.240016 0.876121 0.603129 -0.326804
C47   C     C_R   0.759984 0.123879 0.396868 -0.326806
C48   C     C_R   0.303620 0.325488 0.408455 0.725569
C49   C     C_R   0.696376 0.674511 0.591530 0.725542
C50   C     C_R   0.574319 0.211363 0.280066 0.740530
C51   C     C_R   0.425682 0.788638 0.719936 0.740524
C52   C     C_R   0.925853 0.711898 0.720407 0.740977
C53   C     C_R   0.074148 0.288100 0.279595 0.740974
C54   C     C_R   0.196152 0.825504 0.591195 0.726427
C55   C     C_R   0.666667 0.076466 0.817129 -0.116438
C56   C     C_R   0.803848 0.174495 0.408800 0.726423
C57   C     C_R   0.213240 0.225032 0.312064 -0.301428
C58   C     C_R   0.786759 0.774964 0.687935 -0.301387
C59   C     C_R   0.665122 0.111781 0.376663 -0.291754
C60   C     C_R   0.334880 0.888220 0.623339 -0.291753
C61   C     C_R   0.835318 0.611909 0.624027 -0.291869
C62   C     C_R   0.164683 0.388088 0.375974 -0.291870
C63   C     C_R   0.286565 0.725238 0.687172 -0.302571
C64   C     C_R   0.713434 0.274762 0.312825 -0.302572
C65   C     C_R   0.169762 0.275260 0.301991 0.100644
C66   C     C_R   0.168067 0.422793 0.817563 -0.114749
C67   C     C_R   0.830237 0.724737 0.698010 0.100636
C68   C     C_R   0.696571 0.151213 0.354280 0.094516
C69   C     C_R   0.303430 0.848787 0.645719 0.094515
C70   C     C_R   0.803834 0.651324 0.646492 0.094652
C71   C     C_R   0.196166 0.348673 0.353507 0.094654
C72   C     C_R   0.329941 0.775508 0.697181 0.100896
C73   C     C_R   0.670059 0.224492 0.302818 0.100897
C74   C     C_R   0.325392 0.105512 0.404081 -0.151515
C75   C     C_R   0.674607 0.894487 0.595917 -0.151513
C76   C     C_R   0.638323 0.070379 0.505421 -0.132124
C77   C     C_R   0.831925 0.577212 0.182436 -0.114705
C78   C     C_R   0.361678 0.929621 0.494580 -0.132121
C79   C     C_R   0.861678 0.570559 0.494568 -0.131231
C80   C     C_R   0.138322 0.429440 0.505432 -0.131236
C81   C     C_R   0.174596 0.605588 0.595931 -0.152807
C82   C     C_R   0.825403 0.394412 0.404068 -0.152807
C83   C     C_R   0.442846 0.834194 0.579026 -0.100112
C84   C     C_R   0.557155 0.165807 0.420976 -0.100107
C85   C     C_R   0.590871 0.802901 0.503927 -0.121649
C86   C     C_R   0.409128 0.197099 0.496071 -0.121656
C87   C     C_R   0.909195 0.302955 0.496175 -0.122969
C88   C     C_R   0.812383 0.398889 0.196671 -0.140093
C89   C     C_R   0.090805 0.697045 0.503824 -0.122958
C90   C     C_R   0.057150 0.333966 0.420904 -0.098185
C91   C     C_R   0.942851 0.666034 0.579097 -0.098184
C92   C     C_R   0.582109 0.168196 0.726665 -0.139092
C93   C     C_R   0.417891 0.831804 0.273335 -0.139093
C94   C     C_R   0.394968 0.193770 0.286499 -0.113170
C95   C     C_R   0.605035 0.806228 0.713495 -0.113211
C96   C     C_R   0.104961 0.693672 0.714221 -0.112059
C97   C     C_R   0.895039 0.306328 0.285779 -0.112054
C98   C     C_R   0.916773 0.668540 0.272581 -0.139971
C99   C     C_R   0.187617 0.601111 0.803328 -0.140099
C100  C     C_R   0.083220 0.331466 0.727416 -0.139935
C101  C     C_R   0.675678 0.822993 0.806442 0.047471
C102  C     C_R   0.324328 0.177002 0.193539 0.047504
C103  C     C_R   0.360251 0.864452 0.170536 0.036782
C104  C     C_R   0.639748 0.135547 0.829464 0.036783
C105  C     C_R   0.141708 0.363518 0.830275 0.036372
C106  C     C_R   0.858277 0.636495 0.169722 0.036383
C107  C     C_R   0.824547 0.323262 0.192287 0.048201
C108  C     C_R   0.175453 0.676738 0.807713 0.048202
C109  C     C_R   0.337646 0.185092 0.427130 0.118919
C110  C     C_3   0.701940 0.297178 0.985748 -0.157427
C111  C     C_R   0.662352 0.814907 0.572865 0.118909
C112  C     C_R   0.601566 0.127715 0.422813 0.102933
C113  C     C_R   0.398435 0.872286 0.577189 0.102931
C114  C     C_R   0.898495 0.628017 0.577316 0.102793
C115  C     C_R   0.101506 0.371982 0.422685 0.102794
C116  C     C_R   0.162285 0.685108 0.572744 0.118835
C117  C     C_R   0.837714 0.314892 0.427254 0.118837
C118  C     C_3   0.663984 0.226556 0.976898 -0.154767
C119  C     C_3   0.336016 0.773443 0.023103 -0.154760
C120  C     C_3   0.291581 0.272942 0.054270 -0.141981
F1    F     F_    0.633359 0.646013 0.543461 -0.733118
F2    F     F_    0.366631 0.353987 0.456505 -0.733107
F3    F     F_    0.487568 0.760282 0.763431 -0.739896
F4    F     F_    0.512433 0.239719 0.236571 -0.739898
F5    F     F_    0.012432 0.259455 0.236401 -0.739547
F6    F     F_    0.987568 0.740545 0.763600 -0.739547
F7    F     F_    0.866758 0.146042 0.456399 -0.732813
F8    F     F_    0.133240 0.853958 0.543594 -0.732814
H1    H     H_    0.739174 0.926506 0.855274 0.089844
H2    H     H_    0.080994 0.195597 0.208428 0.164949
H3    H     H_    0.221060 0.934135 0.569261 0.169190
H4    H     H_    0.778940 0.065865 0.430737 0.169190
H5    H     H_    0.278477 0.434214 0.430200 0.169191
H6    H     H_    0.721519 0.565785 0.569787 0.169191
H7    H     H_    0.581130 0.303817 0.209193 0.164969
H8    H     H_    0.418869 0.696183 0.790807 0.164970
H9    H     H_    0.273715 0.077880 0.340294 0.094807
H10   H     H_    0.726285 0.922119 0.659702 0.094804
H11   H     H_    0.676873 0.029806 0.528355 0.106209
H12   H     H_    0.260827 0.073494 0.144711 0.089862
H13   H     H_    0.323128 0.970194 0.471646 0.106209
H14   H     H_    0.823109 0.530010 0.471544 0.106046
H15   H     H_    0.176891 0.469989 0.528456 0.106046
H16   H     H_    0.226302 0.578117 0.659726 0.095135
H17   H     H_    0.773698 0.421883 0.340273 0.095135
H18   H     H_    0.478125 0.786421 0.630177 0.178796
H19   H     H_    0.521879 0.213582 0.369827 0.178788
H20   H     H_    0.563605 0.748763 0.480766 0.184843
H21   H     H_    0.436394 0.251238 0.519235 0.184841
H22   H     H_    0.936532 0.248849 0.519523 0.184808
H23   H     H_    0.285025 0.956160 0.117494 0.097425
H24   H     H_    0.063467 0.751151 0.480475 0.184807
H25   H     H_    0.021856 0.286110 0.369669 0.179062
H26   H     H_    0.978145 0.713889 0.630333 0.179061
H27   H     H_    0.552589 0.219427 0.708509 0.115794
H28   H     H_    0.447411 0.780572 0.291491 0.115800
H29   H     H_    0.419325 0.250651 0.314127 0.116777
H30   H     H_    0.580677 0.749347 0.685867 0.116799
H31   H     H_    0.081023 0.750727 0.686303 0.116242
H32   H     H_    0.918978 0.249273 0.313696 0.116243
H33   H     H_    0.946767 0.719218 0.290705 0.115739
H34   H     H_    0.714973 0.043836 0.882505 0.097434
H35   H     H_    0.053227 0.280787 0.709291 0.115733
H36   H     H_    0.284849 0.731576 0.126272 0.128830
H37   H     H_    0.715150 0.268423 0.873728 0.128831
H38   H     H_    0.751417 0.676702 0.832708 0.134755
H39   H     H_    0.248384 0.323124 0.167149 0.134695
H40   H     H_    0.742863 0.182873 0.163300 0.133013
H41   H     H_    0.257138 0.817127 0.836701 0.133011
H42   H     H_    0.211292 0.225171 0.871641 0.128936
H43   H     H_    0.788900 0.775007 0.128470 0.128938
H44   H     H_    0.610618 0.226460 0.942093 0.125277
H45   H     H_    0.216630 0.455287 0.882585 0.095975
H46   H     H_    0.389383 0.773539 0.057909 0.125278
H47   H     H_    0.343897 0.269868 0.085768 0.166492
H48   H     H_    0.656184 0.730381 0.914442 0.166493
H49   H     H_    0.155328 0.777881 0.910235 0.165401
H50   H     H_    0.844671 0.222118 0.089764 0.165401
H51   H     H_    0.886828 0.718545 0.051934 0.125286
H52   H     H_    0.113086 0.281205 0.947828 0.125280
H53   H     H_    0.681272 0.357468 0.961144 0.118287
H54   H     H_    0.318727 0.642531 0.038856 0.118288
H55   H     H_    0.279859 0.406185 0.070769 0.123588
H56   H     H_    0.783364 0.544714 0.117418 0.095942
H57   H     H_    0.720001 0.593899 0.929305 0.123566
H58   H     H_    0.225602 0.908457 0.928372 0.124425
H59   H     H_    0.774399 0.091542 0.071629 0.124430
H60   H     H_    0.822473 0.855618 0.035722 0.118101
H61   H     H_    0.177655 0.144303 0.964156 0.118105
H62   H     H_    0.805311 0.833447 0.719327 0.148535
H63   H     H_    0.194689 0.166549 0.280676 0.148545
H64   H     H_    0.310070 0.940915 0.574962 0.149476
H65   H     H_    0.689932 0.059087 0.425040 0.149476
H66   H     H_    0.189395 0.440934 0.424334 0.149476
H67   H     H_    0.760928 0.426464 0.144048 0.090091
H68   H     H_    0.810607 0.559063 0.575668 0.149475
H69   H     H_    0.694826 0.333178 0.281539 0.148882
H70   H     H_    0.305173 0.666822 0.718459 0.148882
H71   H     H_    0.239072 0.573535 0.855952 0.090094
H72   H     H_    0.919006 0.804400 0.791575 0.164949
N1    N     N_R   0.625380 0.928280 0.709340 -0.034726
N2    N     N_R   0.613900 0.929750 0.547530 -0.040084
N3    N     N_R   0.613900 0.070250 0.547530 -0.045404
N4    N     N_R   0.386100 0.929750 0.452470 -0.045404
N5    N     N_R   0.886100 0.570250 0.452470 -0.045123
N6    N     N_R   0.113900 0.429750 0.547530 -0.045124
N7    N     N_R   0.113900 0.570250 0.547530 -0.040475
N8    N     N_R   0.886100 0.429750 0.452470 -0.040475
N9    N     N_R   0.437800 0.869550 0.507970 -0.058626
N10   N     N_R   0.562200 0.130450 0.492030 -0.058627
N11   N     N_R   0.562200 0.869550 0.492030 -0.053047
N12   N     N_R   0.374620 0.071720 0.290660 -0.034723
N13   N     N_R   0.437800 0.130450 0.507970 -0.053047
N14   N     N_R   0.937800 0.369550 0.507970 -0.053247
N15   N     N_R   0.062200 0.630450 0.492030 -0.053248
N16   N     N_R   0.062200 0.369550 0.492030 -0.058608
N17   N     N_R   0.937800 0.630450 0.507970 -0.058606
N18   N     N_R   0.573690 0.128980 0.653840 -0.043561
N19   N     N_R   0.426310 0.871020 0.346160 -0.043561
N20   N     N_R   0.426310 0.128980 0.346160 -0.043366
N21   N     N_R   0.573690 0.871020 0.653840 -0.043367
N22   N     N_R   0.073690 0.628980 0.653840 -0.043564
N23   N     N_R   0.374620 0.928280 0.290660 -0.041510
N24   N     N_R   0.926310 0.371020 0.346160 -0.043564
N25   N     N_R   0.926310 0.628980 0.346160 -0.043271
N26   N     N_R   0.073690 0.371020 0.653840 -0.043275
N27   N     N_R   0.625380 0.071720 0.709340 -0.041510
N28   N     N_R   0.125380 0.428280 0.709340 -0.040962
N29   N     N_R   0.874620 0.571720 0.290660 -0.040960
N30   N     N_R   0.874620 0.428280 0.290660 -0.034863
N31   N     N_R   0.125380 0.571720 0.709340 -0.034860
N32   N     N_R   0.386100 0.070250 0.452470 -0.040086
Ni1   Ni    Ni4+2 0.616560 1.000000 0.627280 0.217603
Ni2   Ni    Ni4+2 0.383440 1.000000 0.372720 0.217606
Ni3   Ni    Ni4+2 0.116560 0.500000 0.627280 0.217735
Ni4   Ni    Ni4+2 0.883440 0.500000 0.372720 0.217740
Ni5   Ni    Ni4+2 0.497990 0.870580 0.500000 0.224034
Ni6   Ni    Ni4+2 0.502010 0.129420 0.500000 0.224039
Ni7   Ni    Ni4+2 0.997990 0.370580 0.500000 0.224092
Ni8   Ni    Ni4+2 0.002010 0.629420 0.500000 0.224092

loop_
_geom_bond_atom_site_label_1
_geom_bond_atom_site_label_2
_ccdc_geom_bond_type
C61   C70   A    
C16   C28   S    
C80   N6    A    
C84   C112  A    
C93   H28   S    
C7    C29   S    
C6    H51   S    
C35   C53   A    
C95   H30   S    
C51   F3    S    
C83   C113  A    
C88   N30   A    
C85   H20   S    
N1    N21   A    
N2    N11   A    
C4    C8    S    
C36   C114  S    
C9    C18   S    
C93   C103  A    
C74   C109  A    
C82   N8    A    
C21   C110  S    
C76   N3    A    
N7    Ni3   S    
C62   C71   A    
C22   C108  S    
C59   H65   S    
C7    C11   S    
C99   C108  A    
N5    N17   A    
C100  C105  A    
C95   N21   A    
C40   C70   A    
C17   C26   S    
N10   Ni6   S    
C77   C106  A    
N9    Ni5   S    
C35   C62   A    
C57   H63   S    
C1    H1    S    
C28   H60   S    
C119  H46   S    
C48   F2    S    
C33   N12   A    
C84   N10   A    
C43   C52   A    
C84   H19   S    
C79   H14   S    
C20   C102  S    
C33   H12   S    
C40   C49   A    
C23   C105  S    
C12   H40   S    
C16   C25   S    
C77   H56   S    
C34   C112  S    
C15   C120  S    
C13   C23   S    
C42   H8    S    
C2    H54   S    
C56   F7    S    
C55   N27   A    
C19   C101  S    
C46   C69   A    
N4    Ni2   S    
C5    C27   S    
C37   C56   A    
N1    Ni1   S    
C44   C103  A    
C89   H24   S    
C6    C28   S    
C110  H53   S    
N28   Ni3   S    
C87   H22   S    
C90   N16   A    
N4    N9    A    
C58   H62   S    
C64   C73   A    
N11   Ni5   S    
N3    N10   A    
C35   C115  S    
C43   H72   S    
C32   C113  S    
C100  H35   S    
C18   C118  S    
C36   C52   A    
C76   C112  A    
C42   C51   A    
C89   N15   A    
C98   N25   A    
N18   Ni6   S    
C15   C23   S    
C4    C22   S    
C96   C108  A    
C89   C116  A    
C1    N1    A    
C45   H2    S    
C39   C71   A    
C64   H69   S    
C11   H39   S    
C88   H67   S    
C110  C118  S    
C3    C24   S    
C14   H41   S    
C85   N11   A    
C26   H58   S    
N7    N15   A    
C75   N2    A    
C25   C106  S    
C15   C29   S    
C20   C29   S    
C81   H16   S    
C4    C26   S    
N27   Ni1   S    
C74   H9    S    
C11   C20   S    
C34   C50   A    
C44   H23   S    
C41   C73   A    
C12   C27   S    
C33   C102  A    
C97   H32   S    
C86   C109  A    
C50   F4    S    
C24   C25   S    
C91   H26   S    
C74   N32   A    
N13   Ni6   S    
C8    H36   S    
C78   H13   S    
C46   H3    S    
C88   C107  A    
C52   F6    S    
C27   H59   S    
N12   N20   A    
C10   C24   S    
C68   C73   A    
C65   C71   A    
C40   H6    S    
C55   C104  A    
C45   C53   A    
N25   N29   A    
C15   H42   S    
N21   Ni5   S    
C24   H57   S    
C97   C107  A    
C41   C50   A    
C91   N17   A    
C69   C72   A    
C92   N18   A    
C77   N29   A    
C32   C51   A    
C5    C9    S    
N23   Ni2   S    
N24   N30   A    
C59   C68   A    
C83   H18   S    
C38   C116  S    
C58   C67   A    
C120  H47   S    
N12   Ni2   S    
C38   C54   A    
C80   C115  A    
C118  H44   S    
C10   C19   S    
C60   H64   S    
C80   H15   S    
C49   F1    S    
C3    C19   S    
C46   C54   A    
N32   Ni2   S    
C12   C21   S    
C31   C109  S    
C37   C117  S    
C66   H45   S    
C44   N23   A    
C18   C104  S    
C90   C115  A    
C14   C26   S    
C90   H25   S    
C100  N26   A    
C19   C28   S    
C47   C56   A    
N17   Ni8   S    
C83   N9    A    
N13   N32   A    
C53   F5    S    
C41   H7    S    
C12   C118  S    
C98   H33   S    
C21   C107  S    
C30   C49   A    
N22   N31   A    
C94   H29   S    
C96   N22   A    
C31   C48   A    
C45   C65   A    
C34   C59   A    
C29   H61   S    
C86   H21   S    
C78   C113  A    
C94   N20   A    
C62   H66   S    
C66   C105  A    
C99   H71   S    
C36   C61   A    
C1    C101  A    
N18   N27   A    
C20   C120  S    
C37   C64   A    
C38   C63   A    
C39   H5    S    
C76   H11   S    
N6    N16   A    
C9    C110  S    
N8    Ni4   S    
N8    N14   A    
N26   Ni7   S    
N16   Ni7   S    
C75   C111  A    
N5    Ni4   S    
C2    C8    S    
C18   C27   S    
C55   H34   S    
C57   C65   A    
C85   C111  A    
C75   H10   S    
C6    C10   S    
C99   N31   A    
C2    C119  S    
C97   N24   A    
C87   C117  A    
N15   Ni8   S    
C10   H38   S    
N20   Ni6   S    
C13   H55   S    
C30   C111  S    
N26   N28   A    
C8    C17   S    
C98   C106  A    
C63   H70   S    
C81   N7    A    
C47   H4    S    
C93   N19   A    
C67   C70   A    
N30   Ni4   S    
C14   C22   S    
N29   Ni4   S    
C9    H37   S    
N14   Ni7   S    
C17   C103  S    
C86   N13   A    
C79   N5    A    
C2    C22   S    
N2    Ni1   S    
C11   C13   S    
C16   H43   S    
C31   C57   A    
C47   C68   A    
C54   F8    S    
C60   C69   A    
C7    C23   S    
N19   Ni5   S    
C30   C58   A    
C81   C116  A    
N22   Ni8   S    
C63   C72   A    
C87   N14   A    
C7    H52   S    
C4    H49   S    
C92   H27   S    
N24   Ni7   S    
C5    H50   S    
C17   C119  S    
N19   N23   A    
C6    C25   S    
N3    Ni1   S    
C3    H48   S    
C78   N4    A    
C96   H31   S    
C5    C21   S    
C82   H17   S    
C94   C102  A    
C43   C67   A    
C14   C119  S    
C92   C104  A    
C79   C114  A    
C66   N28   A    
N25   Ni8   S    
C32   C60   A    
N6    Ni3   S    
N31   Ni3   S    
C13   C120  S    
C82   C117  A    
C42   C72   A    
C61   H68   S    
C91   C114  A    
C3    C16   S    
C95   C101  A    
C39   C48   A    
