data_mof_unit_12044.cif
_audit_creation_date              2012-12-10T20:34:52-0500
_audit_creation_method            fapswitch 2.2
_symmetry_space_group_name_H-M    P1
_symmetry_Int_Tables_number       1
_space_group_crystal_system       triclinic
_cell_length_a                    10.62389
_cell_length_b                    10.650771
_cell_length_c                    9.857169
_cell_angle_alpha                 90.304014
_cell_angle_beta                  89.679448
_cell_angle_gamma                 90.82012
_cell_volume                      1115.21754839

loop_
_atom_site_label
_atom_site_type_symbol
_atom_type_description
_atom_site_fract_x
_atom_site_fract_y
_atom_site_fract_z
_atom_type_partial_charge
C1    C     C_R   0.499514 0.260095 0.499812 0.885498
C2    C     C_3   0.878248 0.505954 0.497793 0.075428
C3    C     C_3   0.929207 0.608989 0.595492 -0.433233
C4    C     C_3   0.928833 0.533365 0.352777 -0.432240
C5    C     C_R   0.528665 0.064770 0.616242 0.129788
C6    C     C_R   0.489516 0.128092 0.501379 -0.097245
C7    C     C_R   0.430471 0.063385 0.394769 -0.220808
C8    C     C_R   0.429261 0.933591 0.395302 -0.240254
C9    C     C_R   0.485988 0.871242 0.503149 -0.102767
C10   C     C_R   0.526633 0.936917 0.617240 0.152975
C11   C     C_3   0.649771 0.930331 0.689234 -0.502697
C12   C     C_R   0.257561 0.501553 0.499925 0.923688
C13   C     C_3   0.652239 0.072635 0.687839 -0.497504
C14   C     C_R   0.410121 0.434166 0.071403 0.126471
C15   C     C_R   0.580493 0.576612 0.072710 0.492020
C16   C     C_R   0.581596 0.574185 0.927491 -0.254880
C17   C     C_R   0.409753 0.434574 0.929033 0.187605
C18   C     C_3   0.385079 0.296620 0.922703 -0.492833
C19   C     C_3   0.386436 0.296164 0.076624 -0.497934
C20   C     C_R   0.497814 0.739768 0.500399 0.867050
C21   C     C_R   0.742136 0.504667 0.499411 0.874373
C22   C     C_3   0.068163 0.374635 0.552000 0.273889
C23   C     C_3   0.923218 0.375401 0.542471 -0.502215
C24   C     C_3   0.073490 0.610455 0.591889 -0.488664
C25   C     C_3   0.072188 0.525322 0.350446 0.348294
C26   C     C_3   0.120665 0.502922 0.498291 0.044062
H1    H     H_    0.095323 0.367806 0.660657 0.097465
H2    H     H_    0.898356 0.628209 0.320833 0.206935
H3    H     H_    0.108789 0.703036 0.554673 0.220230
H4    H     H_    0.893784 0.702692 0.565529 0.166252
H5    H     H_    0.390202 0.112339 0.309821 0.166136
H6    H     H_    0.389390 0.882773 0.310042 0.161246
H7    H     H_    0.638970 0.890577 0.792663 0.193789
H8    H     H_    0.725087 0.887642 0.625959 0.186018
H9    H     H_    0.643702 0.114973 0.790704 0.200547
H10   H     H_    0.728814 0.113153 0.623437 0.189135
H11   H     H_    0.650628 0.628749 0.871329 0.149451
H12   H     H_    0.290839 0.274579 0.880371 0.187422
H13   H     H_    0.464021 0.243928 0.876312 0.218101
H14   H     H_    0.293301 0.272668 0.122573 0.200898
H15   H     H_    0.467302 0.244341 0.118857 0.213187
H16   H     H_    0.889220 0.304380 0.467339 0.174952
H17   H     H_    0.882249 0.349782 0.643003 0.156282
H18   H     H_    0.109157 0.599027 0.696982 0.183143
H19   H     H_    0.896447 0.590689 0.701148 0.191978
H20   H     H_    0.098821 0.441205 0.288984 0.104813
H21   H     H_    0.890331 0.464278 0.277983 0.162559
N1    N     N_R   0.499150 0.499140 0.142800 -0.140970
N2    N     N_R   0.499150 0.499180 0.857150 -0.117103
O1    O     O_R   0.500020 0.316790 0.614690 -0.622680
O2    O     O_R   0.500000 0.316760 0.385350 -0.621571
O3    O     O_R   0.314800 0.500000 0.614670 -0.645864
O4    O     O_R   0.314790 0.499960 0.385330 -0.592210
O5    O     O_R   0.500000 0.683240 0.614650 -0.618229
O6    O     O_R   0.499980 0.683210 0.385310 -0.605835
O7    O     O_R   0.685210 0.500040 0.614670 -0.629825
O8    O     O_R   0.685200 0.500000 0.385330 -0.583229
Zn1   Zn    Zn3+2 0.500010 0.500020 0.653130 0.929575
Zn2   Zn    Zn3+2 0.499990 0.499980 0.346870 0.982397
O9    O     O_3   0.669103 0.646013 0.144705 -0.626667
C27   C     C_3   0.658470 0.775028 0.114631 0.070827
H22   H     H_    0.558897 0.805933 0.124567 0.136617
H23   H     H_    0.693494 0.794638 0.010352 0.114833
C28   C     C_3   0.739576 0.851347 0.213764 -0.302552
H24   H     H_    0.709257 0.831224 0.319547 0.223950
H25   H     H_    0.839567 0.823636 0.202398 0.209516
C29   C     C_3   0.729728 0.992046 0.187847 -0.969832
H26   H     H_    0.765592 0.015018 0.084711 0.260014
H27   H     H_    0.786828 0.044753 0.263730 0.261003
H28   H     H_    0.630446 0.022244 0.196773 0.272682
O10   O     O_3   0.120435 0.274265 0.475272 -0.670374
C30   C     C_3   0.094432 0.154788 0.533180 0.088534
H29   H     H_    0.116966 0.083734 0.454081 0.179593
H30   H     H_    0.993207 0.140266 0.558495 0.119680
C31   C     C_3   0.174923 0.130243 0.658730 -0.374627
H31   H     H_    0.270891 0.169869 0.643515 0.243331
H32   H     H_    0.131951 0.176535 0.748492 0.188717
C32   C     C_3   0.183509 0.990281 0.688619 -0.945575
H33   H     H_    0.088432 0.949946 0.709713 0.258789
H34   H     H_    0.243666 0.977154 0.778863 0.268246
H35   H     H_    0.226185 0.939589 0.601535 0.273784
O11   O     O_3   0.126073 0.638037 0.297453 -0.643520
C33   C     C_3   0.129833 0.635645 0.153866 0.090753
H36   H     H_    0.034826 0.656008 0.113282 0.142247
H37   H     H_    0.161584 0.543652 0.112813 0.123144
C34   C     C_3   0.223580 0.735861 0.104963 -0.325876
H38   H     H_    0.195050 0.829464 0.143830 0.219225
H39   H     H_    0.318294 0.714775 0.145625 0.222422
C35   C     C_3   0.231248 0.739679 0.950418 -0.993702
H40   H     H_    0.253554 0.645671 0.908515 0.267934
H41   H     H_    0.307141 0.806316 0.919205 0.265508
H42   H     H_    0.140433 0.770936 0.907755 0.268512

loop_
_geom_bond_atom_site_label_1
_geom_bond_atom_site_label_2
_ccdc_geom_bond_type
O6    Zn2   S    
C3    H4    S    
C15   O9    S    
C18   H13   S    
C4    C25   S    
O4    Zn2   S    
C7    C8    A    
C23   H16   S    
C24   C26   S    
C13   H9    S    
C30   C31   S    
O5    Zn1   S    
C5    C6    A    
C32   H34   S    
O8    Zn2   S    
C15   C16   A    
C23   H17   S    
C18   C19   S    
C27   H23   S    
C24   H3    S    
C12   O3    A    
C8    C9    A    
C35   H41   S    
C1    O1    A    
C5    C13   S    
C12   O4    A    
C16   H11   S    
C14   C17   A    
C3    C24   S    
C15   N1    A    
C20   O6    A    
C4    H2    S    
C7    H5    S    
C1    C6    S    
O1    Zn1   S    
C28   C29   S    
C11   H7    S    
C16   N2    A    
C13   H10   S    
C20   O5    A    
C19   H14   S    
C17   N2    A    
C34   H38   S    
C14   N1    A    
C25   C26   S    
C3    H19   S    
N2    Zn1   S    
C29   H26   S    
C12   C26   S    
O9    C27   S    
C29   H27   S    
C8    H6    S    
C27   C28   S    
C2    C4    S    
C31   H31   S    
C21   O8    A    
C31   H32   S    
C9    C20   S    
C33   H36   S    
C2    C21   S    
C17   C18   S    
C35   H42   S    
C1    O2    A    
O3    Zn1   S    
C30   H30   S    
C33   H37   S    
C22   H1    S    
C25   O11   S    
C24   H18   S    
O2    Zn2   S    
C22   O10   S    
N1    Zn2   S    
C9    C10   A    
C32   H33   S    
C14   C19   S    
C11   H8    S    
C30   H29   S    
C34   C35   S    
C21   O7    A    
C6    C7    A    
C29   H28   S    
C28   H24   S    
C2    C3    S    
C18   H12   S    
C5    C10   A    
C11   C13   S    
C32   H35   S    
O7    Zn1   S    
C34   H39   S    
C27   H22   S    
C31   C32   S    
C10   C11   S    
O10   C30   S    
C33   C34   S    
O11   C33   S    
C22   C26   S    
C2    C23   S    
C22   C23   S    
C35   H40   S    
C25   H20   S    
C19   H15   S    
C28   H25   S    
C4    H21   S    
