data_mof_unit_56288.cif
_audit_creation_date              2012-10-26T21:14:52-0400
_audit_creation_method            fapswitch 2.2
_symmetry_space_group_name_H-M    P1
_symmetry_Int_Tables_number       1
_space_group_crystal_system       triclinic
_cell_length_a                    15.082561
_cell_length_b                    10.834007
_cell_length_c                    13.68218
_cell_angle_alpha                 90.288401
_cell_angle_beta                  90.128809
_cell_angle_gamma                 89.819029
_cell_volume                      2235.68571418

loop_
_atom_site_label
_atom_site_type_symbol
_atom_type_description
_atom_site_fract_x
_atom_site_fract_y
_atom_site_fract_z
_atom_type_partial_charge
C1    C     C_R   0.497545 0.262158 0.499509 0.543103
C2    C     C_R   0.575951 0.881848 0.670312 -0.005193
C3    C     C_R   0.459572 0.098135 0.236166 0.365831
C4    C     C_R   0.538755 0.899756 0.763492 0.365965
C5    C     C_R   0.422268 0.154184 0.153388 0.124103
C6    C     C_R   0.577541 0.845437 0.846185 0.112257
C7    C     C_R   0.348018 0.232316 0.164196 0.361001
C8    C     C_R   0.654248 0.772203 0.835224 0.387415
C9    C     C_R   0.468377 0.932581 0.419915 -0.083505
C10   C     C_R   0.530014 0.067460 0.580267 -0.084621
C11   C     C_R   0.503252 0.871756 0.501482 -0.006566
C12   C     C_R   0.502092 0.737881 0.500488 0.543792
C13   C     C_R   0.495516 0.128325 0.498575 -0.007841
C14   C     C_R   0.534826 0.939689 0.582905 0.020853
C15   C     C_R   0.463658 0.060467 0.417174 0.017006
C16   C     C_R   0.328558 0.501269 0.499859 0.577473
C17   C     C_R   0.671432 0.498208 0.500108 0.574554
C18   C     C_R   0.564343 0.437062 0.793261 0.077912
C19   C     C_R   0.435536 0.562704 0.206741 0.073108
C20   C     C_R   0.435341 0.562877 0.793102 0.055853
C21   C     C_R   0.564463 0.436738 0.206903 0.056011
C22   C     C_R   0.432864 0.564052 0.896492 0.025145
C23   C     C_R   0.047543 0.399970 0.660487 0.094718
C24   C     C_R   0.566740 0.435170 0.103512 0.025216
C25   C     C_R   0.499624 0.499950 0.948204 0.035564
C26   C     C_R   0.500018 0.499354 0.051801 0.038251
C27   C     C_R   0.566025 0.436228 0.896190 -0.006309
C28   C     C_R   0.433654 0.563149 0.103816 -0.006476
C29   C     C_R   0.365766 0.627077 0.949193 0.094099
C30   C     C_R   0.633611 0.371690 0.050814 0.093309
C31   C     C_R   0.366958 0.626016 0.052371 -0.079408
C32   C     C_R   0.632513 0.372934 0.947638 -0.074047
C33   C     C_R   0.813569 0.544401 0.420104 -0.177631
C34   C     C_R   0.952455 0.596973 0.338792 0.095543
C35   C     C_R   0.186452 0.453257 0.579438 -0.174764
C36   C     C_R   0.768115 0.495948 0.500121 -0.016841
C37   C     C_R   0.231863 0.502194 0.499575 -0.000820
C38   C     C_R   0.814956 0.446237 0.579399 0.358128
C39   C     C_R   0.184974 0.551163 0.420052 0.371186
C40   C     C_R   0.907546 0.447455 0.579714 0.010879
C41   C     C_R   0.092418 0.549289 0.419503 0.013129
C42   C     C_R   0.953448 0.497685 0.499382 -0.027156
C43   C     C_R   0.046536 0.498945 0.499791 -0.025550
C44   C     C_R   0.906220 0.546631 0.418771 0.032658
C45   C     C_R   0.310392 0.251785 0.257176 0.115282
C46   C     C_R   0.093784 0.450325 0.580521 0.033243
C47   C     C_R   0.954724 0.399335 0.659281 -0.070185
C48   C     C_R   0.045261 0.597369 0.339916 -0.076997
C49   C     C_R   0.693068 0.756338 0.742909 0.117719
C50   C     C_R   0.347773 0.193938 0.338846 -0.147874
C51   C     C_R   0.653693 0.811412 0.660747 -0.175879
C52   C     C_R   0.423205 0.118701 0.329413 -0.012988
Cu1   Cu    Cu3+1 0.500010 0.499980 0.597420 0.993972
Cu2   Cu    Cu3+1 0.499990 0.500020 0.402580 0.994807
F1    F     F_    0.770562 0.395630 0.655698 -0.645688
F2    F     F_    0.229276 0.602799 0.344116 -0.654046
F3    F     F_    0.312126 0.288148 0.084640 -0.642156
F4    F     F_    0.692307 0.717653 0.914104 -0.615701
F5    F     F_    0.532255 0.024883 0.225710 -0.623378
F6    F     F_    0.464134 0.969113 0.773942 -0.623299
H1    H     H_    0.776044 0.581918 0.359479 0.179507
H2    H     H_    0.683574 0.323941 0.907374 0.133625
H3    H     H_    0.919419 0.360735 0.720822 0.179219
H4    H     H_    0.080573 0.636017 0.278402 0.174149
H5    H     H_    0.318648 0.209148 0.410269 0.134039
H6    H     H_    0.683240 0.799250 0.589200 0.118437
H7    H     H_    0.325620 0.769680 0.865818 0.250517
H8    H     H_    0.249202 0.725395 0.947005 0.247506
H9    H     H_    0.673206 0.228951 0.134345 0.247810
H10   H     H_    0.749734 0.272349 0.052988 0.248487
H11   H     H_    0.051147 0.327549 0.799053 0.242802
H12   H     H_    0.224012 0.416155 0.640203 0.177993
H13   H     H_    0.123950 0.266886 0.719795 0.237519
H14   H     H_    0.948888 0.670794 0.200680 0.242487
H15   H     H_    0.875767 0.730196 0.280087 0.236937
H16   H     H_    0.215865 0.372095 0.205121 0.304233
H17   H     H_    0.181708 0.275026 0.292441 0.218728
H18   H     H_    0.822105 0.728552 0.774398 0.256414
H19   H     H_    0.794379 0.684279 0.661328 0.210754
H20   H     H_    0.426298 0.176746 0.004178 0.292111
H21   H     H_    0.524862 0.160947 0.059142 0.245625
H22   H     H_    0.573964 0.821249 0.995162 0.290258
H23   H     H_    0.442286 0.880050 0.358620 0.169957
H24   H     H_    0.475115 0.833685 0.940303 0.246902
H25   H     H_    0.556108 0.119865 0.641638 0.167480
H26   H     H_    0.614369 0.387214 0.752383 0.187971
H27   H     H_    0.385526 0.612585 0.247617 0.186405
H28   H     H_    0.385722 0.612033 0.751338 0.166903
H29   H     H_    0.614072 0.387574 0.248676 0.166285
H30   H     H_    0.315822 0.674851 0.092637 0.129999
N1    N     N_R   0.499960 0.499900 0.743810 -0.262178
N2    N     N_3   0.539482 0.868785 0.940698 -0.525455
N3    N     N_R   0.500040 0.500100 0.256190 -0.261057
N4    N     N_3   0.296839 0.692228 0.897984 -0.613514
N5    N     N_3   0.702307 0.306067 0.102024 -0.612515
N6    N     N_3   0.094890 0.349838 0.742686 -0.602316
N7    N     N_3   0.905114 0.647624 0.256781 -0.600993
N8    N     N_3   0.234643 0.330505 0.270732 -0.559402
N9    N     N_3   0.772645 0.684252 0.733805 -0.512660
N10   N     N_3   0.459771 0.128435 0.058964 -0.522424
O1    O     O_R   0.500000 0.319630 0.582270 -0.502801
O2    O     O_R   0.500000 0.680370 0.417730 -0.502518
O3    O     O_R   0.499990 0.319660 0.417730 -0.505406
O4    O     O_R   0.500010 0.680340 0.582270 -0.504462
O5    O     O_R   0.370260 0.499960 0.582280 -0.529715
O6    O     O_R   0.629740 0.500040 0.417720 -0.526705
O7    O     O_R   0.370250 0.499990 0.417740 -0.438117
O8    O     O_R   0.629750 0.500010 0.582260 -0.442988

loop_
_geom_bond_atom_site_label_1
_geom_bond_atom_site_label_2
_ccdc_geom_bond_type
C40   C47   A    
C38   C40   A    
C10   H25   S    
C22   C29   A    
C34   N7    S    
C39   C41   A    
C21   H29   S    
Cu1   Cu2   S    
C18   H26   S    
Cu2   O7    S    
C18   N1    A    
C7    C45   A    
H19   N9    S    
C35   C37   A    
C24   C26   A    
C12   O4    A    
C19   H27   S    
C45   N8    S    
C47   H3    S    
C29   N4    S    
C11   C14   A    
C48   H4    S    
Cu1   O4    S    
H16   N8    S    
H15   N7    S    
C33   C36   A    
H22   N2    S    
C23   N6    S    
Cu2   N3    S    
C16   O7    A    
C8    F4    S    
C38   F1    S    
Cu1   O1    S    
C49   C51   A    
C22   C25   A    
Cu1   N1    S    
H7    N4    S    
C50   C52   A    
C17   C36   S    
C1    O3    A    
C19   N3    A    
C16   C37   S    
C40   C42   A    
C23   C46   A    
H20   N10   S    
C41   C43   A    
C42   C44   A    
C50   H5    S    
H14   N7    S    
C20   N1    A    
C23   C47   A    
Cu2   O6    S    
Cu2   O3    S    
C34   C44   A    
C4    C6    A    
C10   C14   A    
C17   O8    A    
C5    C7    A    
C6    C8    A    
H11   N6    S    
C3    C5    A    
C25   C26   A    
H8    N4    S    
C51   H6    S    
C2    C4    A    
C12   O2    A    
C30   N5    S    
C49   N9    S    
C39   F2    S    
C5    N10   S    
C3    C52   A    
C31   H30   S    
C4    F6    S    
H17   N8    S    
C15   C52   S    
C19   C28   A    
C9    C11   A    
C16   O5    A    
C9    H23   S    
C33   H1    S    
C20   C22   A    
C35   H12   S    
C13   C15   A    
C1    C13   S    
C42   C43   A    
C1    O1    A    
C27   C32   A    
C33   C44   A    
Cu2   O2    S    
C28   C31   A    
C18   C27   A    
H9    N5    S    
C10   C13   A    
C11   C12   S    
H21   N10   S    
C25   C27   A    
C26   C28   A    
C36   C38   A    
H10   N5    S    
C9    C15   A    
C32   H2    S    
C29   C31   A    
C17   O6    A    
C30   C32   A    
Cu1   O8    S    
C21   N3    A    
C45   C50   A    
C6    N2    S    
C20   H28   S    
C41   C48   A    
C2    C14   S    
C43   C46   A    
C24   C30   A    
C2    C51   A    
Cu1   O5    S    
C34   C48   A    
C37   C39   A    
C21   C24   A    
H18   N9    S    
H24   N2    S    
H13   N6    S    
C35   C46   A    
C8    C49   A    
C7    F3    S    
C3    F5    S    
