data_mof_unit_59225.cif
_audit_creation_date              2012-12-10T19:05:53-0500
_audit_creation_method            fapswitch 2.2
_symmetry_space_group_name_H-M    P1
_symmetry_Int_Tables_number       1
_space_group_crystal_system       triclinic
_cell_length_a                    19.308528
_cell_length_b                    10.902584
_cell_length_c                    9.65215
_cell_angle_alpha                 90.85823
_cell_angle_beta                  88.972553
_cell_angle_gamma                 93.420974
_cell_volume                      2027.75781744

loop_
_atom_site_label
_atom_site_type_symbol
_atom_type_description
_atom_site_fract_x
_atom_site_fract_y
_atom_site_fract_z
_atom_type_partial_charge
C1    C     C_R   0.497497 0.262664 0.498456 0.822411
C2    C     C_R   0.290878 0.497295 0.500499 -0.061268
C3    C     C_R   0.928630 0.432143 0.477249 0.494287
C4    C     C_R   0.068672 0.462056 0.489957 0.397774
C5    C     C_R   0.818119 0.428931 0.606851 -0.240576
C6    C     C_R   0.746135 0.437982 0.616944 0.013132
C7    C     C_R   0.707531 0.457346 0.496144 -0.146735
C8    C     C_R   0.741439 0.438477 0.368085 -0.274807
C9    C     C_R   0.812769 0.417949 0.357944 0.382968
C10   C     C_R   0.852273 0.425356 0.478965 -0.083788
C11   C     C_R   0.514825 0.069162 0.611874 0.055823
C12   C     C_R   0.367437 0.500195 0.500725 0.829110
C13   C     C_R   0.498508 0.129696 0.493920 -0.066928
C14   C     C_R   0.492570 0.060935 0.370202 -0.220609
C15   C     C_R   0.496018 0.932814 0.373013 -0.210459
C16   C     C_R   0.509033 0.872575 0.498252 -0.091131
C17   C     C_R   0.528298 0.946868 0.613588 0.046742
C18   C     C_3   0.511671 0.944392 0.767595 -0.233533
C19   C     C_3   0.483325 0.070307 0.752254 -0.355769
C20   C     C_R   0.524522 0.600931 0.073796 0.248162
C21   C     C_R   0.466837 0.408768 0.076547 -0.164700
C22   C     C_R   0.461808 0.411614 0.929675 0.438584
C23   C     C_R   0.502968 0.737932 0.500644 0.787213
C24   C     C_R   0.525884 0.599394 0.927588 0.179760
C25   C     C_3   0.596934 0.656486 0.921387 -0.480921
C26   C     C_3   0.594987 0.663035 0.079395 -0.473143
C27   C     C_R   0.632202 0.487570 0.499055 0.779300
C28   C     C_R   0.252440 0.498469 0.625088 -0.159628
C29   C     C_R   0.179657 0.488733 0.625248 0.001906
C30   C     C_R   0.144744 0.479473 0.497301 0.022002
C31   C     C_R   0.183409 0.483605 0.373026 -0.163218
C32   C     C_R   0.255576 0.491440 0.374439 -0.175382
Cu1   Cu    Cu3+1 0.500000 0.499980 0.640670 1.004415
Cu2   Cu    Cu3+1 0.500000 0.500020 0.359330 0.940103
H1    H     H_    0.278987 0.508609 0.722409 0.218248
H2    H     H_    0.485703 0.881104 0.278242 0.165817
H3    H     H_    0.472334 0.871032 0.799259 0.173009
H4    H     H_    0.425741 0.064561 0.747941 0.247581
H5    H     H_    0.505603 0.145738 0.818550 0.206311
H6    H     H_    0.439019 0.337353 0.135455 0.187873
H7    H     H_    0.632623 0.593715 0.873660 0.223706
H8    H     H_    0.598727 0.744486 0.869593 0.214817
H9    H     H_    0.632222 0.607212 0.131817 0.201321
H10   H     H_    0.593177 0.757670 0.121992 0.206982
H11   H     H_    0.157678 0.477106 0.274198 0.148378
H12   H     H_    0.283633 0.491419 0.276271 0.157774
H13   H     H_    0.847984 0.422373 0.700307 0.192538
H14   H     H_    0.711041 0.434285 0.277136 0.160628
H15   H     H_    0.482290 0.104695 0.273305 0.169469
N1    N     N_R   0.033687 0.520941 0.392827 -0.257919
N2    N     N_R   0.964868 0.506882 0.387196 -0.234354
N3    N     N_R   0.963674 0.372750 0.573956 -0.211126
N4    N     N_R   0.032469 0.386828 0.579596 -0.204318
N5    N     N_R   0.500440 0.500930 0.147930 -0.218669
N6    N     N_R   0.500440 0.500890 0.852020 -0.240773
O1    O     O_R   0.500000 0.319640 0.618810 -0.547068
O2    O     O_R   0.500010 0.319680 0.381230 -0.602488
O3    O     O_R   0.400140 0.499970 0.618830 -0.516210
O4    O     O_R   0.400150 0.500010 0.381250 -0.589951
O5    O     O_R   0.499990 0.680320 0.618770 -0.585422
O6    O     O_R   0.500000 0.680360 0.381190 -0.580549
O7    O     O_R   0.599850 0.499990 0.618750 -0.582755
O8    O     O_R   0.599860 0.500030 0.381170 -0.587084
C33   C     C_R   0.574908 0.960577 0.860265 0.142251
C34   C     C_R   0.643634 0.966878 0.806508 -0.171539
C35   C     C_R   0.699765 0.990556 0.894360 -0.116190
C36   C     C_R   0.688376 0.009851 0.035957 -0.051311
C37   C     C_R   0.620820 0.005208 0.090218 -0.190831
C38   C     C_R   0.564368 0.979973 0.003259 -0.189173
H16   H     H_    0.654303 0.953611 0.697103 0.133838
H17   H     H_    0.752182 0.994931 0.852329 0.151330
H18   H     H_    0.731907 0.028992 0.103610 0.169467
H19   H     H_    0.612382 0.021167 0.199836 0.154632
H20   H     H_    0.512219 0.977860 0.046558 0.146348
S1    S     S_3+6 0.387346 0.320091 0.874104 -0.028297
O9    O     O_2   0.381777 0.290238 0.722881 -0.262585
O10   O     O_2   0.383746 0.200743 0.950857 -0.369695
O11   O     O_3   0.317677 0.396274 0.923394 -0.573275
H21   H     H_    0.312589 0.383976 0.024624 0.342911
C39   C     C_R   0.141655 0.490921 0.759903 0.092373
C40   C     C_R   0.095114 0.582488 0.789656 -0.131170
C41   C     C_R   0.057451 0.581345 0.914783 -0.104403
C42   C     C_R   0.066297 0.489492 0.011215 -0.061517
C43   C     C_R   0.113164 0.399094 0.983189 -0.137128
C44   C     C_R   0.150804 0.399701 0.858054 -0.082682
H22   H     H_    0.087602 0.653860 0.715471 0.135425
H23   H     H_    0.021188 0.651354 0.936757 0.144608
H24   H     H_    0.036717 0.488208 0.107418 0.185762
H25   H     H_    0.119956 0.328024 0.058019 0.151128
H26   H     H_    0.186038 0.327892 0.836483 0.185258
C45   C     C_R   0.714689 0.416615 0.754598 0.093527
C46   C     C_R   0.742094 0.482517 0.868510 -0.125827
C47   C     C_R   0.714751 0.460561 0.000124 -0.027845
C48   C     C_R   0.660996 0.370273 0.020484 -0.104454
C49   C     C_R   0.636074 0.300080 0.908561 -0.122212
C50   C     C_R   0.663098 0.321880 0.775599 -0.066347
H27   H     H_    0.782704 0.554496 0.854814 0.149925
H28   H     H_    0.734317 0.518394 0.083732 0.148523
H29   H     H_    0.637963 0.354384 0.121950 0.142245
H30   H     H_    0.595884 0.229198 0.925947 0.138263
H31   H     H_    0.643818 0.265716 0.689455 0.117975
S2    S     S_3+6 0.849066 0.367888 0.197807 -0.007844
O12   O     O_2   0.913984 0.301557 0.219360 -0.269374
O13   O     O_2   0.797501 0.280569 0.127125 -0.281093
O14   O     O_3   0.867991 0.488857 0.094905 -0.546358
H32   H     H_    0.893251 0.550686 0.154254 0.338498

loop_
_geom_bond_atom_site_label_1
_geom_bond_atom_site_label_2
_ccdc_geom_bond_type
Cu1   N6    S    
C47   C48   A    
C4    N4    A    
C49   C50   A    
C2    C12   S    
C39   C44   A    
C40   C41   A    
C22   N6    A    
C26   H10   S    
C7    C8    A    
C24   N6    A    
C5    H13   S    
C11   C19   S    
Cu1   O3    S    
C42   C43   A    
C19   H5    S    
C28   C29   A    
C19   H4    S    
C18   H3    S    
C18   C19   S    
C5    C6    A    
C14   H15   S    
C15   C16   A    
C7    C27   S    
S2    O14   S    
C2    C32   A    
C36   H18   S    
C46   C47   A    
C45   C50   A    
C37   C38   A    
C12   O4    A    
C20   C24   A    
C28   H1    S    
C8    C9    A    
C46   H27   S    
Cu2   O2    S    
C9    C10   A    
C40   H22   S    
C12   O3    A    
C6    C45   S    
Cu1   O1    S    
C42   H24   S    
C13   C14   A    
C48   C49   A    
C22   S1    S    
C26   H9    S    
N1    N2    A    
C23   O5    A    
C36   C37   A    
C50   H31   S    
C24   C25   S    
C20   N5    A    
C25   H7    S    
C45   C46   A    
C3    N2    A    
C49   H30   S    
C16   C17   A    
C37   H19   S    
Cu1   O7    S    
Cu2   O6    S    
C4    N1    A    
S1    O9    D    
C8    H14   S    
C29   C30   A    
C27   O7    A    
C1    O2    A    
C35   H17   S    
C30   C31   A    
C3    N3    A    
C17   C18   S    
C38   H20   S    
C33   C38   A    
C43   C44   A    
S2    O13   D    
S1    O10   D    
C9    S2    S    
C27   O8    A    
Cu2   N5    S    
Cu1   O5    S    
Cu2   O4    S    
C1    C13   S    
C43   H25   S    
C15   H2    S    
N3    N4    A    
C11   C17   A    
O11   H21   S    
C32   H12   S    
C1    O1    A    
C31   C32   A    
C39   C40   A    
C25   H8    S    
C44   H26   S    
C6    C7    A    
C16   C23   S    
O14   H32   S    
C33   C34   A    
C25   C26   S    
C5    C10   A    
C3    C10   S    
C11   C13   A    
C18   C33   S    
C21   N5    A    
C21   H6    S    
C20   C26   S    
C48   H29   S    
Cu2   O8    S    
Cu1   Cu2   S    
C35   C36   A    
C34   C35   A    
S2    O12   D    
S1    O11   S    
C23   O6    A    
C41   C42   A    
C31   H11   S    
C14   C15   A    
C2    C28   A    
C34   H16   S    
C21   C22   A    
C29   C39   S    
C47   H28   S    
C4    C30   S    
C41   H23   S    
