data_mof_unit_30145.cif
_audit_creation_date              2012-12-11T16:53:51-0500
_audit_creation_method            fapswitch 2.2
_symmetry_space_group_name_H-M    P1
_symmetry_Int_Tables_number       1
_space_group_crystal_system       triclinic
_cell_length_a                    14.957719
_cell_length_b                    14.816045
_cell_length_c                    17.044239
_cell_angle_alpha                 108.699799
_cell_angle_beta                  106.602036
_cell_angle_gamma                 108.174203
_cell_volume                      3071.30128952

loop_
_atom_site_label
_atom_site_type_symbol
_atom_type_description
_atom_site_fract_x
_atom_site_fract_y
_atom_site_fract_z
_atom_type_partial_charge
C1    C     C_R   0.088791 0.282002 0.067938 -0.136843
C2    C     C_R   0.064216 0.517818 0.264517 -0.225580
C3    C     C_R   0.229102 0.799417 0.186883 -0.136046
C4    C     C_R   0.935563 0.519702 0.747160 -0.121330
C5    C     C_R   0.738551 0.466626 0.048416 -0.134680
C6    C     C_R   0.252201 0.806710 0.273995 0.057662
C7    C     C_R   0.712353 0.542932 0.032804 0.045206
C8    C     C_R   0.972917 0.490001 0.275532 -0.077176
C9    C     C_R   0.998560 0.812787 0.959130 0.039463
C10   C     C_R   0.505834 0.628446 0.017610 0.138959
C11   C     C_R   0.466026 0.589552 0.071044 0.041814
C12   C     C_R   0.026981 0.581701 0.746995 0.056098
C13   C     C_R   0.529441 0.570846 0.136348 -0.197261
C14   C     C_R   0.621165 0.569052 0.132966 -0.200766
C15   C     C_R   0.647023 0.584688 0.063684 0.041149
C16   C     C_R   0.721569 0.214241 0.822918 -0.124657
C17   C     C_R   0.594671 0.624963 0.013232 0.167562
C18   C     C_3   0.551237 0.591469 0.911992 -0.517522
C19   C     C_3   0.454275 0.596804 0.917195 -0.508832
C20   C     C_R   0.965485 0.539566 0.361453 0.089476
C21   C     C_R   0.036368 0.623429 0.681248 0.142220
C22   C     C_R   0.141420 0.677062 0.605636 -0.203235
C23   C     C_R   0.666538 0.217143 0.743797 0.055932
C24   C     C_R   0.134512 0.671622 0.683205 -0.170514
C25   C     C_R   0.946542 0.600730 0.608128 -0.282015
C26   C     C_R   0.951710 0.601323 0.527709 0.075708
C27   C     C_R   0.050305 0.631723 0.525700 0.168226
C28   C     C_R   0.297846 0.590632 0.998761 -0.138971
C29   C     C_R   0.056343 0.602884 0.442746 -0.253309
C30   C     C_R   0.869282 0.528296 0.362869 -0.236865
C31   C     C_R   0.860687 0.560079 0.446291 0.179287
C32   C     C_R   0.558386 0.144387 0.676982 0.129913
C33   C     C_R   0.294807 0.903052 0.359599 0.139613
C34   C     C_R   0.356509 0.555585 0.047669 0.066461
C35   C     C_R   0.396355 0.093780 0.445614 -0.231067
C36   C     C_R   0.332642 0.003854 0.362110 -0.182382
C37   C     C_R   0.308227 0.894689 0.441417 -0.277335
C38   C     C_R   0.378761 0.982657 0.524520 0.186904
C39   C     C_R   0.426396 0.082060 0.525927 0.193561
C40   C     C_R   0.728725 0.310180 0.745806 -0.124127
C41   C     C_R   0.512781 0.163992 0.604024 -0.280320
C42   C     C_R   0.504226 0.049554 0.679259 -0.172550
C43   C     C_R   0.412905 0.969646 0.603767 -0.222105
C44   C     C_R   0.085748 0.112736 0.134110 0.148014
C45   C     C_R   0.229859 0.704967 0.265504 -0.113351
C46   C     C_R   0.999522 0.100344 0.063417 0.006879
C47   C     C_R   0.905792 0.007513 0.026413 -0.268377
C48   C     C_R   0.894699 0.940026 0.069337 0.226359
C49   C     C_R   0.979513 0.961883 0.146996 -0.051382
C50   C     C_R   0.076067 0.043634 0.173797 0.127500
C51   C     C_3   0.150394 0.130575 0.267421 -0.458263
C52   C     C_R   0.294777 0.494798 0.076206 -0.123095
C53   C     C_3   0.160778 0.206620 0.224751 -0.523388
C54   C     C_R   0.108502 0.603690 0.824860 -0.130000
C55   C     C_R   0.915769 0.197340 0.990755 -0.135353
C56   C     C_R   0.750087 0.564859 0.973076 -0.140265
C57   C     C_R   0.002423 0.185758 0.035256 0.073264
C58   C     C_3   0.801483 0.284642 0.208079 0.155784
C59   C     C_3   0.857655 0.217315 0.181206 -0.293058
C60   C     C_3   0.879003 0.167006 0.245387 -1.005791
C61   C     C_3   0.755578 0.541654 0.448684 -0.352563
C62   C     C_3   0.672513 0.530729 0.364242 -0.938214
C63   C     C_3   0.789911 0.851267 0.037449 -0.359356
C64   C     C_3   0.716033 0.894589 0.061548 -0.904257
C65   C     C_R   0.891556 0.428761 0.187577 0.515279
C66   C     C_R   0.083665 0.801022 0.005082 -0.122276
C67   C     C_R   0.913210 0.717137 0.928126 -0.135872
H1    H     H_    0.167440 0.306600 0.115047 0.101714
H2    H     H_    0.593305 0.652196 0.894076 0.190676
H3    H     H_    0.856653 0.497985 0.702719 0.083780
H4    H     H_    0.537752 0.509192 0.870657 0.206342
H5    H     H_    0.442245 0.661911 0.904080 0.184827
H6    H     H_    0.384903 0.517819 0.878024 0.209376
H7    H     H_    0.132308 0.621261 0.443076 0.117398
H8    H     H_    0.800850 0.489684 0.298744 0.166473
H9    H     H_    0.217372 0.704731 0.605128 0.115785
H10   H     H_    0.205921 0.695355 0.740451 0.110385
H11   H     H_    0.871801 0.570104 0.609595 0.110570
H12   H     H_    0.743489 0.619907 0.945977 0.099453
H13   H     H_    0.550264 0.238125 0.602363 0.115184
H14   H     H_    0.691969 0.161003 0.850139 0.090224
H15   H     H_    0.535376 0.033585 0.736064 0.114663
H16   H     H_    0.430935 0.170218 0.446168 0.126092
H17   H     H_    0.375783 0.894166 0.603979 0.122794
H18   H     H_    0.319929 0.013223 0.300120 0.111844
H19   H     H_    0.274032 0.818306 0.440800 0.116636
H20   H     H_    0.838498 0.991376 0.968726 0.137347
H21   H     H_    0.112864 0.143695 0.314979 0.199798
H22   H     H_    0.223086 0.122833 0.294413 0.189962
H23   H     H_    0.163892 0.855098 0.027838 0.088728
H24   H     H_    0.128833 0.263610 0.247354 0.203928
H25   H     H_    0.325044 0.653105 0.979428 0.098972
H26   H     H_    0.239773 0.242903 0.227990 0.186909
H27   H     H_    0.707574 0.346450 0.702363 0.085819
H28   H     H_    0.319689 0.466338 0.125504 0.087679
H29   H     H_    0.188874 0.660899 0.853325 0.083463
H30   H     H_    0.835079 0.144866 0.968332 0.090537
H31   H     H_    0.248563 0.683266 0.320183 0.084707
H32   H     H_    0.720649 0.229548 0.190046 0.127451
H33   H     H_    0.837384 0.332958 0.283384 0.117211
H34   H     H_    0.835657 0.693439 0.879366 0.084400
H35   H     H_    0.808550 0.153899 0.109657 0.197036
H36   H     H_    0.933378 0.266976 0.185224 0.202478
H37   H     H_    0.932612 0.229779 0.316522 0.266120
H38   H     H_    0.916379 0.116062 0.223314 0.286918
H39   H     H_    0.805212 0.117755 0.244547 0.263917
H40   H     H_    0.703898 0.597776 0.348385 0.267304
H41   H     H_    0.644342 0.453741 0.304114 0.254349
H42   H     H_    0.604683 0.532320 0.378059 0.252129
H43   H     H_    0.725262 0.469342 0.458406 0.181349
H44   H     H_    0.767164 0.610764 0.508465 0.192334
H45   H     H_    0.141795 0.549294 0.316039 0.119398
H46   H     H_    0.743369 0.933225 0.137008 0.267120
H47   H     H_    0.710752 0.952719 0.034693 0.254569
H48   H     H_    0.636773 0.828907 0.030745 0.252449
H49   H     H_    0.756760 0.803354 0.962074 0.170620
H50   H     H_    0.797608 0.798317 0.069991 0.194702
H51   H     H_    0.239036 0.863260 0.167837 0.092849
H52   H     H_    0.715226 0.428124 0.087726 0.160814
H53   H     H_    0.503385 0.546487 0.182519 0.131396
H54   H     H_    0.664012 0.543319 0.176618 0.131850
N1    N     N_R   0.055640 0.348550 0.045600 -0.042175
N2    N     N_R   0.811290 0.303400 0.871650 -0.039021
N3    N     N_R   0.205180 0.552990 0.997660 -0.040171
N4    N     N_R   0.814810 0.361830 0.823710 -0.041997
N5    N     N_R   0.201660 0.494570 0.045600 -0.039275
N6    N     N_R   0.068420 0.560530 0.871650 -0.038529
N7    N     N_R   0.948050 0.295860 0.997660 -0.041121
N8    N     N_R   0.185190 0.638170 0.176290 -0.037814
N9    N     N_R   0.798340 0.505430 0.954400 -0.040875
N10   N     N_R   0.931580 0.439470 0.128350 -0.082126
N11   N     N_R   0.051950 0.704140 0.002340 -0.038512
N12   N     N_R   0.944360 0.651450 0.954400 -0.038106
N13   N     N_R   0.039170 0.492150 0.176290 -0.063270
N14   N     N_R   0.188710 0.696600 0.128350 -0.040434
N15   N     N_R   0.794820 0.447010 0.002340 -0.038813
N16   N     N_R   0.960830 0.507850 0.823710 -0.039576
Ni1   Ni    Ni4+2 0.119330 0.493420 0.109950 0.200402
Ni2   Ni    Ni4+2 0.880670 0.506580 0.890050 0.204535
Ni3   Ni    Ni4+2 0.872590 0.372590 0.000000 0.235204
Ni4   Ni    Ni4+2 0.127410 0.627410 0.000000 0.206794
O1    O     O_3   0.795050 0.346631 0.160055 -0.703894

loop_
_geom_bond_atom_site_label_1
_geom_bond_atom_site_label_2
_ccdc_geom_bond_type
C5    N15   A    
C45   N8    A    
C65   O1    S    
C6    C45   A    
C27   C29   A    
C31   C61   S    
C35   C36   A    
C42   H15   S    
C22   H9    S    
N15   Ni3   S    
N10   N13   A    
C33   C36   A    
C41   H13   S    
C4    H3    S    
C39   C41   A    
C20   C30   A    
N4    Ni2   S    
N16   Ni2   S    
C2    H45   S    
C26   C27   A    
C8    C20   S    
C56   H12   S    
C5    H52   S    
C67   N12   A    
C16   N2    A    
C45   H31   S    
C30   C31   A    
C63   H50   S    
N2    N4    A    
C62   H41   S    
C61   H43   S    
C10   C17   A    
C23   C40   A    
N11   Ni4   S    
C1    H1    S    
C52   H28   S    
C18   C19   S    
N6    Ni4   S    
C1    N1    A    
N10   Ni3   S    
C4    N16   A    
N8    N14   A    
C44   C53   S    
N8    Ni1   S    
N11   N12   A    
C53   H24   S    
C32   C41   A    
C4    C12   A    
C54   H29   S    
C3    C6    A    
C18   H2    S    
C7    C15   S    
C28   C34   A    
C59   C60   S    
C64   H48   S    
C13   C14   A    
N1    N7    A    
C43   H17   S    
C19   H5    S    
C7    C56   A    
N9    Ni2   S    
C65   N10   A    
C44   C46   A    
C50   C51   S    
C66   N11   A    
C20   C29   A    
N9    N15   A    
C64   H47   S    
C53   H26   S    
C25   H11   S    
C37   H19   S    
C19   H6    S    
C58   H33   S    
N1    Ni1   S    
C66   H23   S    
C5    C7    A    
C35   H16   S    
C48   C63   S    
C62   H40   S    
C58   C59   S    
N2    Ni3   S    
C33   C37   A    
C51   C53   S    
C47   H20   S    
C35   C39   A    
C9    C67   A    
C37   C38   A    
C3    H51   S    
C1    C57   A    
C58   O1    S    
C8    C65   A    
C47   C48   A    
C10   C19   S    
C9    C66   A    
C55   H30   S    
C17   C18   S    
C28   H25   S    
C2    N13   A    
C63   H49   S    
C48   C49   A    
N12   Ni2   S    
C16   C23   A    
C22   C27   A    
C55   C57   A    
C46   C57   S    
C22   C24   A    
N3    Ni4   S    
C42   C43   A    
C61   H44   S    
C13   H53   S    
C60   H39   S    
C67   H34   S    
N3    N5    A    
C44   C50   A    
C18   H4    S    
C15   C17   A    
C21   C25   A    
C46   C47   A    
N5    Ni1   S    
C52   N5    A    
C64   H46   S    
C59   H35   S    
C26   C31   A    
C11   C34   S    
C2    C8    A    
C58   H32   S    
C40   H27   S    
C51   H21   S    
N13   Ni1   S    
C28   N3    A    
C29   H7    S    
C36   H18   S    
C54   N6    A    
C34   C52   A    
C6    C33   S    
C59   H36   S    
C23   C32   S    
C25   C26   A    
C38   C43   A    
C51   H22   S    
C30   H8    S    
C11   C13   A    
C38   C39   A    
C62   H42   S    
C40   N4    A    
C12   C21   S    
C16   H14   S    
C3    N14   A    
N7    Ni3   S    
C61   C62   S    
C12   C54   A    
C10   C11   A    
C63   C64   S    
C24   H10   S    
N14   Ni4   S    
C55   N7    A    
C49   C50   A    
C21   C24   A    
C14   H54   S    
C32   C42   A    
C14   C15   A    
N6    N16   A    
C60   H37   S    
C56   N9    A    
C60   H38   S    
