data_mof_unit_61068.cif
_audit_creation_date              2012-12-10T20:43:39-0500
_audit_creation_method            fapswitch 2.2
_symmetry_space_group_name_H-M    P1
_symmetry_Int_Tables_number       1
_space_group_crystal_system       triclinic
_cell_length_a                    10.853947
_cell_length_b                    19.251145
_cell_length_c                    19.212939
_cell_angle_alpha                 94.751549
_cell_angle_beta                  91.902974
_cell_angle_gamma                 96.708559
_cell_volume                      3969.64021393

loop_
_atom_site_label
_atom_site_type_symbol
_atom_type_description
_atom_site_fract_x
_atom_site_fract_y
_atom_site_fract_z
_atom_type_partial_charge
C1    C     C_R   0.512984 0.690067 0.507857 0.530846
C2    C     C_R   0.513945 0.766363 0.506434 -0.005054
C3    C     C_R   0.623814 0.807937 0.492276 0.070247
C4    C     C_R   0.487201 0.309889 0.491755 0.554014
C5    C     C_R   0.623678 0.879821 0.484985 0.085978
C6    C     C_R   0.483399 0.510512 0.765540 0.029884
C7    C     C_R   0.593056 0.506904 0.805301 0.050138
C8    C     C_R   0.592438 0.509754 0.878350 0.088211
C9    C     C_R   0.479224 0.514274 0.912266 0.220845
C10   C     C_R   0.371071 0.519950 0.872518 0.099294
C11   C     C_R   0.372007 0.517903 0.799500 0.037760
C12   C     C_R   0.583245 0.200910 0.510611 0.046711
C13   C     C_R   0.417820 0.476373 0.118779 0.123245
C14   C     C_R   0.409723 0.479063 0.191779 0.045538
C15   C     C_R   0.534694 0.484127 0.088628 0.186721
C16   C     C_R   0.513153 0.492772 0.311064 0.560055
C17   C     C_R   0.519812 0.489035 0.234578 0.052353
C18   C     C_R   0.636507 0.494724 0.204016 0.039370
C19   C     C_R   0.642889 0.491515 0.131238 0.105163
C20   C     C_R   0.486967 0.506964 0.688896 0.548409
C21   C     C_R   0.834722 0.515650 0.515509 0.555535
C22   C     C_R   0.163910 0.485111 0.485092 0.514571
C23   C     C_R   0.570966 0.128300 0.518043 0.095505
C24   C     C_2   0.028628 0.479171 0.479272 0.070662
C25   C     C_2   0.967436 0.521489 0.521011 0.156673
C26   C     C_R   0.478205 0.233001 0.491706 0.033980
C27   C     C_R   0.454310 0.087678 0.504357 0.249064
C28   C     C_R   0.349958 0.119663 0.485214 0.085605
C29   C     C_R   0.362484 0.192201 0.478307 0.057286
C30   C     C_R   0.401656 0.868664 0.505906 0.087490
C31   C     C_R   0.403581 0.797095 0.513910 0.055932
C32   C     C_R   0.513093 0.910677 0.492033 0.243583
F1    F     F_    0.312487 0.465511 0.077114 -0.152470
F2    F     F_    0.263112 0.525864 0.905103 -0.158523
F3    F     F_    0.755280 0.497038 0.101766 -0.156168
F4    F     F_    0.702196 0.502777 0.773364 -0.164319
F5    F     F_    0.025988 0.571060 0.569467 -0.161694
F6    F     F_    0.295785 0.757038 0.525456 -0.158744
F7    F     F_    0.260854 0.223585 0.461714 -0.167777
F8    F     F_    0.731484 0.778643 0.486478 -0.160870
H1    H     H_    0.984037 0.378416 0.439372 0.248397
H2    H     H_    0.802401 0.548556 0.236462 0.253678
H3    H     H_    0.768020 0.553318 0.905313 0.247472
H4    H     H_    0.745880 0.464570 0.901960 0.253016
H5    H     H_    0.224288 0.869813 0.470501 0.250393
H6    H     H_    0.249192 0.889549 0.557729 0.244710
H7    H     H_    0.164661 0.106447 0.453782 0.249541
H8    H     H_    0.202596 0.061126 0.520592 0.240027
H9    H     H_    0.706747 0.119543 0.591000 0.228299
H10   H     H_    0.746101 0.102887 0.506819 0.239172
H11   H     H_    0.807549 0.892519 0.459373 0.253209
H12   H     H_    0.992718 0.438029 0.379306 0.247740
H13   H     H_    0.763939 0.955464 0.515687 0.247458
H14   H     H_    0.763934 0.222372 0.486925 0.231809
H15   H     H_    0.735303 0.238946 0.572833 0.239756
H16   H     H_    0.279480 0.522743 0.247234 0.224064
H17   H     H_    0.218306 0.460516 0.185423 0.257555
H18   H     H_    0.224510 0.568085 0.776059 0.256997
H19   H     H_    0.194280 0.479551 0.771499 0.244763
H20   H     H_    0.798107 0.460173 0.232616 0.242968
N1    N     N_2   0.438855 0.014698 0.512368 -0.155101
N2    N     N_3   0.707201 0.510303 0.917687 -0.555018
N3    N     N_3   0.285754 0.897470 0.508950 -0.567305
N4    N     N_3   0.231934 0.077251 0.472561 -0.573531
N5    N     N_3   0.675050 0.095604 0.541844 -0.599033
N6    N     N_3   0.735700 0.922879 0.470351 -0.582756
N7    N     N_2   0.519636 0.983527 0.482818 -0.146705
N8    N     N_2   0.469273 0.514916 0.985865 -0.175448
N9    N     N_2   0.546735 0.483027 0.015409 -0.163462
N10   N     N_3   0.961608 0.427959 0.428818 -0.630733
N11   N     N_3   0.702178 0.242423 0.521701 -0.591398
N12   N     N_3   0.290739 0.473302 0.223133 -0.582495
N13   N     N_3   0.258939 0.521154 0.759814 -0.578007
N14   N     N_3   0.748657 0.502208 0.246973 -0.586366
O1    O     O_3   0.500000 0.500000 0.500000 -0.473705
O2    O     O_R   0.783160 0.551820 0.473170 -0.526228
O3    O     O_R   0.222430 0.530340 0.530340 -0.514691
O4    O     O_R   0.771990 0.472690 0.551320 -0.527104
O5    O     O_R   0.222420 0.445150 0.445160 -0.540920
O6    O     O_R   0.435070 0.449940 0.339290 -0.512521
O7    O     O_R   0.419380 0.543640 0.654290 -0.507250
O8    O     O_R   0.586230 0.658380 0.469080 -0.524143
O9    O     O_R   0.559310 0.348040 0.537340 -0.509706
O10   O     O_R   0.435110 0.654980 0.544320 -0.518764
O11   O     O_R   0.419350 0.338590 0.449260 -0.523804
O12   O     O_R   0.586210 0.538520 0.349230 -0.514523
O13   O     O_R   0.559330 0.467910 0.657200 -0.530418
Zn1   Zn    Zn3+2 0.396020 0.434560 0.434560 0.972963
Zn2   Zn    Zn3+2 0.611960 0.561120 0.448760 0.981151
Zn3   Zn    Zn3+2 0.595990 0.448060 0.560420 0.979285
Zn4   Zn    Zn3+2 0.396040 0.556260 0.556260 0.981665

loop_
_geom_bond_atom_site_label_1
_geom_bond_atom_site_label_2
_ccdc_geom_bond_type
C7    F4    S    
C24   N10   S    
C7    C8    A    
O4    Zn3   S    
C1    O10   A    
C15   C19   A    
C21   O2    A    
O8    Zn2   S    
H9    N5    S    
C28   C29   A    
C22   O5    A    
C18   C19   A    
C30   C31   A    
H8    N4    S    
C20   O13   A    
C1    C2    S    
C27   N1    S    
O1    Zn3   S    
C25   F5    S    
N8    N9    D    
H14   N11   S    
C16   C17   S    
H16   N12   S    
C21   O4    A    
O10   Zn4   S    
C23   C27   A    
C9    C10   A    
H19   N13   S    
O1    Zn4   S    
O2    Zn2   S    
C5    C32   A    
C18   N14   S    
C20   O7    A    
C16   O12   A    
C14   C17   A    
O5    Zn1   S    
C15   N9    S    
H2    N14   S    
C13   C14   A    
C24   C25   D    
C11   N13   S    
C6    C11   A    
C8    C9    A    
C4    O11   A    
H4    N2    S    
C1    O8    A    
H5    N3    S    
C12   C26   A    
C2    C31   A    
C16   O6    A    
H11   N6    S    
C13   F1    S    
N1    N7    D    
C12   C23   A    
C29   F7    S    
C17   C18   A    
C10   F2    S    
H13   N6    S    
C32   N7    S    
C28   N4    S    
C12   N11   S    
C3    F8    S    
C13   C15   A    
C22   C24   S    
H7    N4    S    
O11   Zn1   S    
O9    Zn3   S    
C21   C25   S    
O3    Zn4   S    
C14   N12   S    
C22   O3    A    
C5    N6    S    
C3    C5    A    
O12   Zn2   S    
C4    C26   S    
C6    C7    A    
C6    C20   S    
C31   F6    S    
H6    N3    S    
C23   N5    S    
C2    C3    A    
C9    N8    S    
O6    Zn1   S    
C19   F3    S    
C30   C32   A    
C4    O9    A    
H20   N14   S    
H17   N12   S    
H10   N5    S    
H12   N10   S    
C10   C11   A    
O1    Zn2   S    
O7    Zn4   S    
O1    Zn1   S    
H3    N2    S    
C26   C29   A    
O13   Zn3   S    
C27   C28   A    
C30   N3    S    
H15   N11   S    
H18   N13   S    
C8    N2    S    
H1    N10   S    
