data_mof_unit_45013.cif
_audit_creation_date              2012-12-10T16:37:33-0500
_audit_creation_method            fapswitch 2.2
_symmetry_space_group_name_H-M    P1
_symmetry_Int_Tables_number       1
_space_group_crystal_system       triclinic
_cell_length_a                    10.857094
_cell_length_b                    10.809754
_cell_length_c                    15.60572
_cell_angle_alpha                 95.976952
_cell_angle_beta                  74.462561
_cell_angle_gamma                 98.116022
_cell_volume                      1742.69384284

loop_
_atom_site_label
_atom_site_type_symbol
_atom_type_description
_atom_site_fract_x
_atom_site_fract_y
_atom_site_fract_z
_atom_type_partial_charge
C1    C     C_R   0.159102 0.480890 0.519396 0.752833
C2    C     C_R   0.223777 0.526269 0.969995 -0.267507
C3    C     C_R   0.307227 0.501478 0.017840 -0.202252
C4    C     C_R   0.441711 0.513857 0.980781 0.113791
C5    C     C_R   0.489896 0.539735 0.889758 0.006451
C6    C     C_R   0.528649 0.488882 0.029153 0.036331
C7    C     C_R   0.655159 0.465872 0.980900 0.155428
C8    C     C_R   0.702314 0.496618 0.892743 -0.235462
C9    C     C_R   0.623090 0.541291 0.849774 -0.156664
C10   C     C_R   0.495998 0.487432 0.123446 -0.095765
C11   C     C_R   0.693654 0.396360 0.112102 -0.225134
C12   C     C_R   0.842331 0.520869 0.480245 0.908087
C13   C     C_R   0.403223 0.557262 0.839593 -0.169592
C14   C     C_2   0.979584 0.521266 0.470992 -0.431318
C15   C     C_2   0.021501 0.473407 0.532922 0.359182
C16   C     C_2   0.534160 0.965974 0.466836 0.297331
C17   C     C_2   0.458465 0.035899 0.528960 -0.414444
C18   C     C_R   0.467814 0.168140 0.521416 0.917627
C19   C     C_R   0.528499 0.833466 0.479161 0.769295
C20   C     C_R   0.556455 0.445406 0.259149 0.831097
C21   C     C_R   0.444978 0.553363 0.741631 0.828301
C22   C     C_R   0.735079 0.416719 0.022154 -0.201915
C23   C     C_R   0.576712 0.434307 0.163236 -0.063556
C24   C     C_R   0.270231 0.556650 0.881242 0.472417
H1    H     H_    0.757793 0.360471 0.143545 0.141543
H2    H     H_    0.393504 0.997224 0.588435 0.129224
H3    H     H_    0.801685 0.488489 0.857459 0.146060
H4    H     H_    0.830410 0.395744 0.985081 0.138753
H5    H     H_    0.263432 0.465339 0.082291 0.167661
H6    H     H_    0.121281 0.513159 0.000602 0.147903
H7    H     H_    0.666994 0.571865 0.783529 0.175987
H8    H     H_    0.047363 0.557907 0.411695 0.138530
O1    O     O_3   0.500000 0.500000 0.500000 -0.498781
O2    O     O_R   0.537910 0.240570 0.564270 -0.635036
O3    O     O_R   0.438950 0.782540 0.540270 -0.669084
O4    O     O_R   0.222350 0.398740 0.468260 -0.635562
O5    O     O_R   0.800790 0.578160 0.427210 -0.654371
O6    O     O_R   0.212140 0.566330 0.564260 -0.645511
O7    O     O_R   0.764730 0.456770 0.540270 -0.580553
O8    O     O_R   0.412790 0.208310 0.468260 -0.649454
O9    O     O_R   0.610350 0.768590 0.427210 -0.618830
O10   O     O_R   0.463530 0.379110 0.309170 -0.602349
O11   O     O_R   0.388210 0.611730 0.699360 -0.605769
O12   O     O_R   0.624720 0.532760 0.292120 -0.647900
O13   O     O_R   0.523540 0.476390 0.699360 -0.650146
Zn1   Zn    Zn3+2 0.580150 0.419820 0.574680 0.990476
Zn2   Zn    Zn3+2 0.401380 0.373730 0.437510 0.995475
Zn3   Zn    Zn3+2 0.631680 0.593260 0.413140 0.985747
Zn4   Zn    Zn3+2 0.386790 0.613180 0.574670 0.972829
O14   O     O_3   0.937019 0.444182 0.615138 -0.628302
C25   C     C_3   0.975415 0.349909 0.655727 0.076378
H9    H     H_    0.914299 0.347787 0.725266 0.165003
H10   H     H_    0.076135 0.371430 0.661707 0.131887
C26   C     C_3   0.953014 0.220294 0.608150 -0.343948
H11   H     H_    0.850141 0.200124 0.607059 0.248073
H12   H     H_    0.012881 0.218729 0.538197 0.224520
C27   C     C_3   0.987413 0.118094 0.655136 -0.948903
H13   H     H_    0.090673 0.135309 0.655362 0.260259
H14   H     H_    0.969903 0.025578 0.619474 0.270217
H15   H     H_    0.927125 0.115602 0.724911 0.265412
O15   O     O_3   0.622565 0.020063 0.394849 -0.635043
C28   C     C_3   0.573373 0.993833 0.318915 0.102812
H16   H     H_    0.472700 0.017530 0.333333 0.148596
H17   H     H_    0.575114 0.892908 0.295884 0.159579
C29   C     C_3   0.657339 0.072803 0.244247 -0.328999
H18   H     H_    0.658708 0.173691 0.267430 0.214134
H19   H     H_    0.757537 0.048364 0.227301 0.230170
C30   C     C_3   0.606868 0.051005 0.160888 -0.925851
H20   H     H_    0.604363 0.950630 0.136470 0.283784
H21   H     H_    0.671224 0.107869 0.107545 0.263804
H22   H     H_    0.508513 0.079443 0.175606 0.273265
C31   C     C_2   0.397950 0.565656 0.180291 0.846138
O16   O     O_2   0.320105 0.524655 0.246328 -0.639114
O17   O     O_R   0.394722 0.686453 0.157052 -0.807335
H23   H     H_    0.324260 0.730650 0.200250 0.337356
O18   O     O_3   0.184923 0.561615 0.829710 -0.642593
C32   C     C_3   0.102724 0.654929 0.865718 0.059485
H24   H     H_    0.155148 0.741213 0.891242 0.143257
H25   H     H_    0.021676 0.617735 0.920581 0.139471
C33   C     C_3   0.047602 0.690150 0.792315 -0.281097
H26   H     H_    0.127545 0.729386 0.737632 0.246588
H27   H     H_    0.997624 0.604947 0.764427 0.236070
C34   C     C_3   0.952704 0.786505 0.827543 -0.979839
H28   H     H_    0.871155 0.748770 0.881715 0.274461
H29   H     H_    0.913944 0.808974 0.772716 0.271042
H30   H     H_    0.001640 0.874015 0.853430 0.267856

loop_
_geom_bond_atom_site_label_1
_geom_bond_atom_site_label_2
_ccdc_geom_bond_type
O8    Zn2   S    
C7    C8    A    
O6    Zn4   S    
C32   H24   S    
C17   H2    S    
C16   C19   S    
C27   H14   S    
C11   H1    S    
O1    Zn4   S    
O4    Zn2   S    
C15   O14   S    
C12   O5    A    
C3    H5    S    
C18   O8    A    
C28   H17   S    
C21   O11   A    
C8    C9    A    
C29   H19   S    
O3    Zn4   S    
O2    Zn1   S    
C5    C13   A    
C22   H4    S    
O1    Zn1   S    
C33   C34   S    
C20   O12   A    
O14   C25   S    
C21   O13   A    
C32   H25   S    
C26   H12   S    
O17   H23   S    
C25   H9    S    
O18   C32   S    
C31   O17   S    
C31   O16   D    
C27   H15   S    
O13   Zn1   S    
C13   C24   A    
C25   H10   S    
C5    C9    A    
C28   H16   S    
C34   H28   S    
C20   C23   S    
C29   C30   S    
C17   C18   S    
O11   Zn4   S    
C13   C21   S    
O5    Zn3   S    
C18   O2    A    
C33   H27   S    
C1    O6    A    
O7    Zn1   S    
C1    C15   S    
C4    C6    A    
C34   H29   S    
C12   C14   S    
C2    C24   A    
O1    Zn2   S    
C16   O15   S    
C3    C4    A    
C32   C33   S    
O1    Zn3   S    
C26   H11   S    
C28   C29   S    
C30   H20   S    
C24   O18   S    
C14   H8    S    
C33   H26   S    
C6    C10   A    
C20   O10   A    
C6    C7    A    
C10   C23   A    
C7    C22   A    
C11   C22   A    
C2    H6    S    
C25   C26   S    
C12   O7    A    
C2    C3    A    
C19   O3    A    
C27   H13   S    
C16   C17   D    
C30   H22   S    
C11   C23   A    
O9    Zn3   S    
O10   Zn2   S    
O15   C28   S    
C9    H7    S    
C19   O9    A    
C4    C5    A    
C34   H30   S    
C30   H21   S    
C29   H18   S    
C8    H3    S    
C14   C15   D    
O12   Zn3   S    
C1    O4    A    
C26   C27   S    
C10   C31   S    
