data_mof_unit_58874.cif
_audit_creation_date              2012-12-10T17:16:40-0500
_audit_creation_method            fapswitch 2.2
_symmetry_space_group_name_H-M    P1
_symmetry_Int_Tables_number       1
_space_group_crystal_system       triclinic
_cell_length_a                    10.112538
_cell_length_b                    10.779261
_cell_length_c                    10.908897
_cell_angle_alpha                 90.967143
_cell_angle_beta                  96.894864
_cell_angle_gamma                 82.594708
_cell_volume                      1170.6844287

loop_
_atom_site_label
_atom_site_type_symbol
_atom_type_description
_atom_site_fract_x
_atom_site_fract_y
_atom_site_fract_z
_atom_type_partial_charge
C1    C     C_R   0.441731 0.512137 0.267884 0.906234
C2    C     C_R   0.557750 0.486619 0.732599 0.917414
C3    C     C_2   0.401816 0.507934 0.136344 -0.174931
C4    C     C_2   0.593552 0.478190 0.865915 -0.196822
C5    C     C_2   0.493729 0.525982 0.060792 0.048821
C6    C     C_2   0.494946 0.467063 0.936333 0.056232
C7    C     C_2   0.075735 0.479581 0.496850 -0.066893
C8    C     C_2   0.935270 0.488100 0.525695 -0.063517
C9    C     C_R   0.496477 0.260365 0.496474 0.866078
C10   C     C_R   0.498458 0.740035 0.488366 0.915474
C11   C     C_R   0.624913 0.108048 0.297368 0.153417
C12   C     C_R   0.237360 0.916402 0.451467 0.165774
C13   C     C_R   0.733607 0.037823 0.250723 -0.179005
C14   C     C_R   0.131719 0.985230 0.505031 -0.248671
C15   C     C_R   0.789664 0.925319 0.305841 -0.196847
C16   C     C_R   0.157749 0.083598 0.584870 -0.154969
C17   C     C_R   0.727239 0.873827 0.396915 0.145740
C18   C     C_R   0.283772 0.126191 0.596491 0.150488
C19   C     C_R   0.599104 0.932047 0.423833 0.012875
C20   C     C_R   0.381587 0.071066 0.521132 0.001284
C21   C     C_R   0.569377 0.059795 0.398035 0.041349
C22   C     C_R   0.369025 0.950758 0.477251 0.069479
C23   C     C_R   0.491380 0.873455 0.462337 -0.215996
C24   C     C_R   0.483594 0.129827 0.474987 -0.211028
H1    H     H_    0.079936 0.127141 0.637482 0.157039
H2    H     H_    0.884901 0.880209 0.281205 0.143191
H3    H     H_    0.778336 0.073399 0.175305 0.155070
H4    H     H_    0.031315 0.958960 0.489137 0.168563
H5    H     H_    0.868321 0.410404 0.366479 0.163420
H6    H     H_    0.123463 0.617866 0.612857 0.169616
N1    N     N_2   0.157300 0.551390 0.551120 -0.237489
N2    N     N_2   0.842700 0.448610 0.448880 -0.227073
O1    O     O_R   0.568940 0.489660 0.307530 -0.624804
O2    O     O_R   0.431060 0.510340 0.692470 -0.600085
O3    O     O_R   0.348880 0.522640 0.340350 -0.606837
O4    O     O_R   0.651120 0.477360 0.659650 -0.600654
O5    O     O_R   0.610030 0.300280 0.483580 -0.608151
O6    O     O_R   0.389970 0.699720 0.516420 -0.598547
O7    O     O_R   0.389970 0.333270 0.516400 -0.622713
O8    O     O_R   0.610030 0.666730 0.483600 -0.630376
Zn1   Zn    Zn3+2 0.646940 0.477980 0.478080 0.937096
Zn2   Zn    Zn3+2 0.353060 0.522020 0.521920 0.942525
N3    N     N_3   0.561518 0.215476 0.227861 -0.461480
H7    H     H_    0.470492 0.251440 0.258574 0.181420
H8    H     H_    0.627999 0.282248 0.236269 0.217431
N4    N     N_3   0.208315 0.823201 0.360286 -0.428024
H9    H     H_    0.146668 0.867983 0.285992 0.169407
H10   H     H_    0.152680 0.761103 0.397775 0.204360
N5    N     N_3   0.814110 0.792548 0.481756 -0.481694
H11   H     H_    0.827221 0.704926 0.440197 0.218364
H12   H     H_    0.775971 0.790598 0.566444 0.214836
N6    N     N_3   0.315576 0.206271 0.699097 -0.452274
H13   H     H_    0.260835 0.294596 0.682331 0.226587
H14   H     H_    0.418416 0.213056 0.713358 0.196374
N7    N     N_3   0.389021 0.397033 0.886136 -0.453718
H15   H     H_    0.383428 0.322707 0.944814 0.206679
H16   H     H_    0.298238 0.456083 0.871111 0.219101
N8    N     N_3   0.589247 0.610842 0.102640 -0.440750
H17   H     H_    0.592887 0.675363 0.033021 0.193233
H18   H     H_    0.683919 0.560905 0.127352 0.214294
C25   C     C_1   0.732351 0.478714 0.917067 0.145588
N9    N     N_1   0.843397 0.477818 0.958327 -0.178503
C26   C     C_1   0.269098 0.473861 0.097060 0.134958
N10   N     N_1   0.162738 0.447049 0.066992 -0.178479
C27   C     C_1   0.901348 0.550227 0.637959 0.252554
N11   N     N_1   0.877209 0.602471 0.727664 -0.215812
C28   C     C_1   0.121728 0.389549 0.406705 0.283869
N12   N     N_1   0.157073 0.317001 0.334189 -0.210092

loop_
_geom_bond_atom_site_label_1
_geom_bond_atom_site_label_2
_ccdc_geom_bond_type
C1    C3    S    
C19   C23   A    
N2    Zn1   S    
C15   H2    S    
C9    C24   S    
C11   N3    S    
N1    Zn2   S    
C3    C26   S    
C10   C23   S    
O7    Zn2   S    
C11   C13   A    
C2    C4    S    
O2    Zn2   S    
C13   C15   A    
C9    O7    A    
C6    N7    S    
C10   O6    A    
O1    Zn1   S    
C2    O2    A    
N7    H15   S    
C9    O5    A    
C3    C5    D    
C18   N6    S    
C7    C8    S    
C27   N11   T    
C16   C18   A    
N3    H8    S    
O4    Zn1   S    
H6    N1    S    
C17   N5    S    
C5    N8    S    
C14   C16   A    
C5    C6    S    
C4    C6    D    
O8    Zn1   S    
C19   C21   A    
C12   C14   A    
O6    Zn2   S    
H5    N2    S    
C18   C20   A    
N7    H16   S    
N3    H7    S    
O5    Zn1   S    
C25   N9    T    
N4    H10   S    
C7    N1    D    
C20   C22   A    
C1    O1    A    
C28   N12   T    
C8    N2    D    
C12   C22   A    
C8    C27   S    
N6    H13   S    
C1    O3    A    
C7    C28   S    
C12   N4    S    
N5    H11   S    
C21   C24   A    
C2    O4    A    
C16   H1    S    
C15   C17   A    
O3    Zn2   S    
N4    H9    S    
C17   C19   A    
C10   O8    A    
C14   H4    S    
N8    H17   S    
C22   C23   A    
N8    H18   S    
C4    C25   S    
C11   C21   A    
C13   H3    S    
C20   C24   A    
N6    H14   S    
C26   N10   T    
N5    H12   S    
