data_mof_unit_58466.cif
_audit_creation_date              2012-12-10T18:38:08-0500
_audit_creation_method            fapswitch 2.2
_symmetry_space_group_name_H-M    P1
_symmetry_Int_Tables_number       1
_space_group_crystal_system       triclinic
_cell_length_a                    15.10438
_cell_length_b                    13.911186
_cell_length_c                    10.621516
_cell_angle_alpha                 90.06051
_cell_angle_beta                  91.336733
_cell_angle_gamma                 89.841801
_cell_volume                      2231.17427312

loop_
_atom_site_label
_atom_site_type_symbol
_atom_type_description
_atom_site_fract_x
_atom_site_fract_y
_atom_site_fract_z
_atom_type_partial_charge
C1    C     C_R   0.330218 0.500057 0.499947 0.832946
C2    C     C_R   0.670183 0.499789 0.500648 0.839241
C3    C     C_R   0.544260 0.108128 0.596152 -0.378022
C4    C     C_R   0.432965 0.892616 0.438784 -0.383767
C5    C     C_R   0.454113 0.107613 0.407539 -0.379801
C6    C     C_R   0.564894 0.891946 0.567915 -0.377600
C7    C     C_R   0.547488 0.209677 0.590917 0.572409
C8    C     C_R   0.437705 0.791191 0.430181 0.574878
C9    C     C_R   0.451890 0.209292 0.410459 0.569927
C10   C     C_R   0.562184 0.790158 0.570804 0.578263
C11   C     C_R   0.498956 0.054723 0.502547 0.078301
C12   C     C_R   0.498813 0.945443 0.503588 0.076183
C13   C     C_R   0.500004 0.499788 0.259225 0.776091
C14   C     C_R   0.499947 0.500078 0.740747 0.773606
C15   C     C_3   0.422332 0.533980 0.039564 -0.181836
C16   C     C_3   0.577657 0.464818 0.960249 -0.167072
C17   C     C_3   0.488625 0.590146 0.959203 -0.165869
C18   C     C_3   0.511289 0.408788 0.040827 -0.106904
C19   C     C_3   0.433456 0.444101 0.955730 -0.153633
C20   C     C_3   0.566572 0.554833 0.044086 -0.194438
C21   C     C_3   0.499802 0.500173 0.877577 0.035856
C22   C     C_3   0.500174 0.498958 0.122339 0.026143
C23   C     C_R   0.093894 0.560745 0.421861 0.436797
C24   C     C_R   0.904320 0.410647 0.475803 0.474275
C25   C     C_R   0.906680 0.581359 0.531938 0.438944
C26   C     C_R   0.098458 0.434131 0.581978 0.456396
C27   C     C_R   0.185934 0.564578 0.426656 -0.281423
C28   C     C_R   0.812282 0.412871 0.478441 -0.318291
C29   C     C_R   0.814520 0.582846 0.527694 -0.286708
C30   C     C_R   0.190791 0.433473 0.576630 -0.325621
C31   C     C_R   0.234219 0.499728 0.501352 -0.166945
C32   C     C_R   0.766974 0.498722 0.501942 -0.177840
C33   C     C_R   0.049607 0.496305 0.501890 -0.089754
C34   C     C_R   0.952364 0.495617 0.503615 -0.067764
Cu1   Cu    Cu3+1 0.500000 0.596430 0.500000 0.998569
Cu2   Cu    Cu3+1 0.500000 0.403570 0.500000 0.990992
H1    H     H_    0.378937 0.398910 0.916515 0.118899
H2    H     H_    0.620996 0.600161 0.083227 0.130915
H3    H     H_    0.358380 0.560858 0.074797 0.128291
H4    H     H_    0.641138 0.436614 0.924408 0.130987
H5    H     H_    0.479076 0.664494 0.923572 0.123818
H6    H     H_    0.520513 0.334463 0.076905 0.154362
H7    H     H_    0.219692 0.616206 0.369012 0.188910
H8    H     H_    0.776336 0.347017 0.459029 0.173145
H9    H     H_    0.780523 0.649812 0.546402 0.209591
H10   H     H_    0.228860 0.382787 0.633054 0.160315
H11   H     H_    0.576773 0.072208 0.674561 0.151674
H12   H     H_    0.377468 0.928976 0.393582 0.156592
H13   H     H_    0.421081 0.071305 0.329865 0.150347
H14   H     H_    0.619429 0.927948 0.615276 0.152352
N1    N     N_R   0.500000 0.258690 0.500000 -0.241416
N2    N     N_R   0.500000 0.741310 0.500000 -0.239547
O1    O     O_R   0.371460 0.581430 0.500010 -0.534273
O2    O     O_R   0.628540 0.418570 0.499990 -0.588880
O3    O     O_R   0.628540 0.581430 0.499990 -0.539502
O4    O     O_R   0.371460 0.418570 0.500010 -0.588389
O5    O     O_R   0.499980 0.581420 0.316850 -0.584299
O6    O     O_R   0.500020 0.418580 0.683150 -0.537208
O7    O     O_R   0.500020 0.581420 0.683150 -0.587304
O8    O     O_R   0.499980 0.418580 0.316850 -0.543865
O9    O     O_3   0.048113 0.625046 0.344927 -0.564701
C35   C     C_3   0.021579 0.577786 0.232628 0.034069
H15   H     H_    0.977386 0.516547 0.253094 0.138860
H16   H     H_    0.080362 0.551671 0.180849 0.120036
C36   C     C_3   0.968951 0.647536 0.148821 -0.282843
H17   H     H_    0.913003 0.677762 0.202537 0.234881
H18   H     H_    0.012462 0.707686 0.120621 0.220629
C37   C     C_3   0.931806 0.597065 0.031270 -0.983937
H19   H     H_    0.986547 0.569347 0.973207 0.247645
H20   H     H_    0.891573 0.648607 0.974275 0.261841
H21   H     H_    0.888513 0.536295 0.057900 0.264092
O10   O     O_3   0.944910 0.322331 0.457354 -0.574595
C38   C     C_3   0.979910 0.315472 0.335178 0.065989
H22   H     H_    0.016685 0.246372 0.330995 0.180375
H23   H     H_    0.029637 0.372072 0.317850 0.105786
C39   C     C_3   0.907538 0.314020 0.230822 -0.392114
H24   H     H_    0.861178 0.253736 0.247684 0.229276
H25   H     H_    0.869295 0.382309 0.230735 0.207161
C40   C     C_3   0.947928 0.302136 0.101542 -0.952885
H26   H     H_    0.995192 0.361362 0.083701 0.249491
H27   H     H_    0.894704 0.304501 0.027833 0.263989
H28   H     H_    0.983029 0.232088 0.095664 0.269981
O11   O     O_3   0.951675 0.666059 0.555571 -0.567912
C41   C     C_3   0.971856 0.672296 0.685615 0.049314
H29   H     H_    0.014918 0.611260 0.716950 0.128011
H30   H     H_    0.910159 0.671929 0.740801 0.130063
C42   C     C_3   0.021352 0.766221 0.710857 -0.283185
H31   H     H_    0.085218 0.764692 0.660898 0.230235
H32   H     H_    0.981226 0.827554 0.673896 0.225017
C43   C     C_3   0.039744 0.781490 0.851163 -0.962546
H33   H     H_    0.976539 0.790562 0.901209 0.265350
H34   H     H_    0.079949 0.847471 0.865439 0.260038
H35   H     H_    0.076876 0.719269 0.891377 0.258480
O12   O     O_3   0.054832 0.369701 0.658074 -0.550122
C44   C     C_3   0.074384 0.386889 0.787317 0.067796
H36   H     H_    0.010621 0.396403 0.835993 0.150828
H37   H     H_    0.113269 0.453715 0.806675 0.069297
C45   C     C_3   0.123528 0.300784 0.846105 -0.369199
H38   H     H_    0.190588 0.294356 0.806461 0.197374
H39   H     H_    0.131885 0.313236 0.949014 0.176205
C46   C     C_3   0.073813 0.206500 0.824290 -0.726568
H40   H     H_    0.006684 0.210845 0.863946 0.244410
H41   H     H_    0.110535 0.146744 0.871096 0.208985
H42   H     H_    0.067961 0.190107 0.722088 0.284494
O13   O     O_3   0.592184 0.260692 0.684405 -0.583934
C47   C     C_3   0.684007 0.239483 0.686150 0.055696
H43   H     H_    0.719914 0.307992 0.672121 0.177708
H44   H     H_    0.705419 0.189443 0.610217 0.120801
C48   C     C_3   0.712029 0.199357 0.815057 -0.364319
H45   H     H_    0.695068 0.252132 0.889457 0.221523
H46   H     H_    0.675889 0.131584 0.833382 0.212739
C49   C     C_3   0.811385 0.179363 0.821932 -0.918292
H47   H     H_    0.829489 0.124615 0.750730 0.264991
H48   H     H_    0.830148 0.151655 0.916883 0.256117
H49   H     H_    0.848840 0.246499 0.804594 0.265067
O14   O     O_3   0.374314 0.741415 0.360210 -0.583671
C50   C     C_3   0.378403 0.765806 0.230766 0.030225
H50   H     H_    0.426470 0.717586 0.184458 0.171335
H51   H     H_    0.399682 0.841094 0.212930 0.119237
C51   C     C_3   0.286884 0.752381 0.168834 -0.334297
H52   H     H_    0.266571 0.676038 0.176111 0.204174
H53   H     H_    0.237822 0.797269 0.218802 0.233734
C52   C     C_3   0.286399 0.781088 0.030201 -0.939606
H54   H     H_    0.304102 0.858117 0.020325 0.257314
H55   H     H_    0.219256 0.769972 0.988432 0.261809
H56   H     H_    0.334036 0.736381 0.977695 0.254061
O15   O     O_3   0.407160 0.259826 0.316503 -0.590070
C53   C     C_3   0.314893 0.241809 0.318213 0.063598
H57   H     H_    0.280711 0.311251 0.335362 0.176236
H58   H     H_    0.293793 0.191501 0.393746 0.118618
C54   C     C_3   0.283850 0.203451 0.189713 -0.357658
H59   H     H_    0.304188 0.253978 0.114703 0.223682
H60   H     H_    0.315332 0.132585 0.172180 0.210653
C55   C     C_3   0.183440 0.192111 0.183197 -0.955198
H61   H     H_    0.161076 0.143787 0.259260 0.261310
H62   H     H_    0.163249 0.160335 0.091177 0.263035
H63   H     H_    0.150901 0.263364 0.192545 0.248473
O16   O     O_3   0.627832 0.738719 0.634288 -0.591234
C56   C     C_3   0.631157 0.760959 0.764520 0.040912
H64   H     H_    0.621041 0.692935 0.816672 0.175038
H65   H     H_    0.578985 0.812189 0.795822 0.112675
C57   C     C_3   0.722951 0.799589 0.800850 -0.357540
H66   H     H_    0.773979 0.747927 0.769422 0.221177
H67   H     H_    0.734117 0.869315 0.753048 0.213789
C58   C     C_3   0.733325 0.813605 0.942928 -0.930592
H68   H     H_    0.683636 0.866131 0.976586 0.257653
H69   H     H_    0.800635 0.841422 0.965889 0.258840
H70   H     H_    0.724721 0.744090 0.992517 0.252756

loop_
_geom_bond_atom_site_label_1
_geom_bond_atom_site_label_2
_ccdc_geom_bond_type
C26   O12   S    
C42   H31   S    
C16   C21   S    
Cu1   O1    S    
C38   H22   S    
Cu1   Cu2   S    
C9    N1    A    
C41   C42   S    
C4    C8    A    
C54   C55   S    
C10   N2    A    
C53   H57   S    
C55   H63   S    
C49   H48   S    
C58   H68   S    
C44   C45   S    
C52   H54   S    
C13   O8    A    
C15   C19   S    
C14   O7    A    
C9    O15   S    
C14   C21   S    
Cu1   O7    S    
C19   C21   S    
C1    O4    A    
C39   H25   S    
C5    C11   A    
C29   C32   A    
C3    C7    A    
C2    O3    A    
C50   H51   S    
C6    C12   A    
C30   C31   A    
C56   C57   S    
C52   H55   S    
C13   O5    A    
C47   H43   S    
C45   H38   S    
C1    C31   S    
C17   C20   S    
O14   C50   S    
C2    C32   S    
C18   C19   S    
C1    O1    A    
C35   H16   S    
C19   H1    S    
C48   H46   S    
C15   C22   S    
C44   H36   S    
C37   H19   S    
C23   C33   A    
C7    O13   S    
C23   C27   A    
C4    C12   A    
C8    N2    A    
C51   C52   S    
C25   C34   A    
C46   H41   S    
C38   H23   S    
C57   C58   S    
C5    H13   S    
O9    C35   S    
C49   H47   S    
C58   H69   S    
C51   H53   S    
C25   C29   A    
C14   O6    A    
C27   C31   A    
C46   H40   S    
C28   C32   A    
Cu2   O2    S    
C41   H29   S    
C2    O2    A    
C50   C51   S    
C40   H27   S    
C52   H56   S    
C55   H62   S    
C36   H18   S    
Cu1   O3    S    
C28   H8    S    
C24   C34   A    
C29   H9    S    
C5    C9    A    
C35   H15   S    
Cu2   O4    S    
C20   H2    S    
C26   C33   A    
C43   H34   S    
O11   C41   S    
C16   C20   S    
C36   C37   S    
C33   C34   S    
C39   H24   S    
C15   H3    S    
Cu2   N1    S    
C16   H4    S    
C16   C18   S    
C20   C22   S    
C26   C30   A    
C46   H42   S    
C45   H39   S    
C42   H32   S    
C38   C39   S    
C57   H67   S    
C48   C49   S    
O15   C53   S    
C53   C54   S    
C58   H70   S    
C51   H52   S    
C24   O10   S    
C43   H35   S    
C4    H12   S    
C15   C17   S    
C6    H14   S    
C35   C36   S    
C18   C22   S    
C30   H10   S    
C24   C28   A    
C41   H30   S    
O10   C38   S    
C54   H60   S    
C53   H58   S    
C6    C10   A    
C40   H28   S    
C56   H64   S    
C44   H37   S    
C55   H61   S    
C45   C46   S    
O13   C47   S    
Cu2   O6    S    
Cu1   O5    S    
C18   H6    S    
C7    N1    A    
C50   H50   S    
C56   H65   S    
C43   H33   S    
C47   H44   S    
C37   H21   S    
C3    H11   S    
C13   C22   S    
O12   C44   S    
C17   H5    S    
C3    C11   A    
O16   C56   S    
C8    O14   S    
C40   H26   S    
C27   H7    S    
C23   O9    S    
C39   C40   S    
C37   H20   S    
C36   H17   S    
C42   C43   S    
Cu1   N2    S    
C25   O11   S    
Cu2   O8    S    
C57   H66   S    
C10   O16   S    
C48   H45   S    
C49   H49   S    
C54   H59   S    
C11   C12   S    
C47   C48   S    
C17   C21   S    
