data_mof_unit_60209.cif
_audit_creation_date              2012-12-10T18:26:52-0500
_audit_creation_method            fapswitch 2.2
_symmetry_space_group_name_H-M    P1
_symmetry_Int_Tables_number       1
_space_group_crystal_system       triclinic
_cell_length_a                    26.058465
_cell_length_b                    25.937785
_cell_length_c                    22.218692
_cell_angle_alpha                 89.927469
_cell_angle_beta                  54.135915
_cell_angle_gamma                 89.905863
_cell_volume                      12170.3723228

loop_
_atom_site_label
_atom_site_type_symbol
_atom_type_description
_atom_site_fract_x
_atom_site_fract_y
_atom_site_fract_z
_atom_type_partial_charge
C1    C     C_R   0.849221 0.750007 0.301467 0.835417
C2    C     C_3   0.551601 0.249041 0.500018 -0.146314
C3    C     C_3   0.287562 0.969674 0.409267 -0.184871
C4    C     C_3   0.762776 0.529750 0.550311 -0.295295
C5    C     C_3   0.779702 0.471385 0.534842 -0.296341
C6    C     C_3   0.262024 0.029743 0.550973 -0.295178
C7    C     C_3   0.278531 0.971303 0.536042 -0.297463
C8    C     C_3   0.682130 0.529578 0.525196 -0.393106
C9    C     C_3   0.681508 0.470387 0.536948 -0.415669
C10   C     C_3   0.182348 0.029598 0.524284 -0.391042
C11   C     C_3   0.181517 0.970383 0.536035 -0.414489
C12   C     C_3   0.749283 0.551384 0.494582 -0.030785
C13   C     C_3   0.050902 0.250633 0.501366 -0.107548
C14   C     C_3   0.751472 0.449069 0.493023 -0.024276
C15   C     C_3   0.249332 0.051370 0.494548 -0.032168
C16   C     C_3   0.251394 0.949050 0.493048 -0.024838
C17   C     C_R   0.751261 0.891251 0.499158 0.787894
C18   C     C_R   0.749953 0.108869 0.500118 0.783334
C19   C     C_R   0.250211 0.391271 0.500038 0.797556
C20   C     C_R   0.249176 0.608881 0.500794 0.788540
C21   C     C_R   0.890824 0.749069 0.501070 0.801833
C22   C     C_R   0.890898 0.250413 0.500843 0.801449
C23   C     C_R   0.390889 0.249153 0.500948 0.802845
C24   C     C_3   0.051529 0.748986 0.500142 -0.146407
C25   C     C_R   0.391058 0.750204 0.500562 0.799233
C26   C     C_R   0.608549 0.750603 0.500893 0.868513
C27   C     C_R   0.608584 0.249260 0.500862 0.899631
C28   C     C_R   0.108723 0.250374 0.500514 0.873375
C29   C     C_R   0.108577 0.749263 0.500872 0.897972
C30   C     C_3   0.538834 0.806657 0.483050 -0.298641
C31   C     C_3   0.551923 0.199559 0.458255 -0.309681
C32   C     C_3   0.042126 0.305349 0.476459 -0.296262
C33   C     C_3   0.052021 0.699550 0.458184 -0.309235
C34   C     C_3   0.482343 0.806052 0.475192 -0.195803
C35   C     C_3   0.449056 0.750615 0.500586 -0.132034
C36   C     C_3   0.489523 0.196432 0.463228 -0.198182
C37   C     C_3   0.985113 0.304717 0.469726 -0.197946
C38   C     C_3   0.989633 0.696417 0.463078 -0.198014
C39   C     C_3   0.560603 0.709670 0.441446 -0.204791
C40   C     C_3   0.553951 0.298162 0.454575 -0.174256
C41   C     C_3   0.058388 0.206732 0.445396 -0.209879
C42   C     C_3   0.053639 0.798230 0.455037 -0.177048
C43   C     C_2   0.382818 0.697653 0.627997 1.018768
C44   C     C_2   0.383799 0.294531 0.632549 0.962410
C45   C     C_2   0.880201 0.204073 0.632797 1.016032
C46   C     C_3   0.449517 0.249012 0.499546 -0.119030
C47   C     C_2   0.883521 0.793932 0.633052 0.959648
C48   C     C_1   0.574538 0.657918 0.457854 0.234042
C49   C     C_1   0.555750 0.346790 0.488685 0.273531
C50   C     C_1   0.069727 0.155786 0.466663 0.243612
C51   C     C_1   0.055304 0.846775 0.489402 0.278683
C52   C     C_1   0.359779 0.754664 0.083449 0.217760
C53   C     C_1   0.364210 0.276070 0.083165 0.267939
C54   C     C_1   0.865512 0.284947 0.083632 0.221081
C55   C     C_1   0.864360 0.776793 0.083164 0.267341
C56   C     C_1   0.437735 0.772783 0.932382 0.224620
C57   C     C_3   0.948995 0.250705 0.500625 -0.134776
C58   C     C_1   0.436949 0.256106 0.932120 0.208702
C59   C     C_1   0.948985 0.301883 0.932676 0.224899
C60   C     C_1   0.936940 0.756873 0.932111 0.209127
C61   C     C_1   0.601136 0.816783 0.936391 0.292197
C62   C     C_1   0.579831 0.165659 0.937095 0.284978
C63   C     C_1   0.117963 0.292060 0.936438 0.296227
C64   C     C_1   0.079050 0.665172 0.937084 0.286534
C65   C     C_1   0.525942 0.847668 0.920384 0.130543
C66   C     C_1   0.499965 0.160450 0.920062 0.128500
C67   C     C_1   0.056309 0.347309 0.920547 0.136370
C68   C     C_3   0.949422 0.748902 0.499725 -0.121474
C69   C     C_1   0.999157 0.660731 0.920026 0.130871
C70   C     C_1   0.500588 0.839576 0.084019 0.272010
C71   C     C_1   0.472723 0.151527 0.084317 0.261530
C72   C     C_1   0.025698 0.321921 0.084137 0.273465
C73   C     C_1   0.971808 0.651317 0.084302 0.262522
C74   C     C_2   0.536247 0.849554 0.532044 0.952971
C75   C     C_2   0.573038 0.148306 0.472116 0.947224
C76   C     C_2   0.043101 0.351192 0.519065 0.952600
C77   C     C_2   0.073209 0.648373 0.472293 0.944701
C78   C     C_2   0.630650 0.700603 0.913248 0.952276
C79   C     C_3   0.496008 0.705808 0.449796 -0.290830
C80   C     C_2   0.642461 0.270493 0.913817 0.960986
C81   C     C_2   0.110707 0.175928 0.913099 0.946849
C82   C     C_2   0.142564 0.769576 0.913838 0.960464
C83   C     C_2   0.463357 0.683488 0.921648 0.912443
C84   C     C_2   0.483113 0.336510 0.925750 0.892799
C85   C     C_2   0.946182 0.210782 0.921397 0.914627
C86   C     C_2   0.983779 0.836906 0.925764 0.892468
C87   C     C_2   0.555305 0.721290 0.077860 1.039998
C88   C     C_2   0.559817 0.248368 0.078981 1.047247
C89   C     C_2   0.041703 0.193448 0.077576 1.036434
C90   C     C_3   0.490779 0.298823 0.458781 -0.274326
C91   C     C_2   0.059732 0.747427 0.078983 1.046995
C92   C     C_1   0.853869 0.952869 0.372355 0.174919
C93   C     C_1   0.863328 0.056510 0.383072 0.219981
C94   C     C_1   0.336355 0.453011 0.363884 0.182272
C95   C     C_1   0.350480 0.556372 0.369289 0.234088
C96   C     C_2   0.868280 0.945526 0.468666 0.907175
C97   C     C_2   0.850021 0.050610 0.501026 0.951844
C98   C     C_2   0.375167 0.445033 0.437578 0.911928
C99   C     C_2   0.362286 0.550791 0.470092 0.939381
C100  C     C_1   0.654060 0.943616 0.632003 0.189660
C101  C     C_3   0.993445 0.203498 0.454403 -0.283191
C102  C     C_1   0.641990 0.048257 0.618319 0.194449
C103  C     C_1   0.171510 0.444134 0.640542 0.210769
C104  C     C_1   0.154769 0.548501 0.632866 0.204274
C105  C     C_1   0.433142 0.844985 0.524740 0.250789
C106  C     C_1   0.451774 0.152280 0.512227 0.290003
C107  C     C_1   0.938229 0.345844 0.516228 0.258141
C108  C     C_1   0.952044 0.652104 0.511745 0.292293
C109  C     C_1   0.863996 0.540652 0.385920 0.280041
C110  C     C_1   0.847962 0.443429 0.353857 0.337557
C111  C     C_1   0.364399 0.040619 0.386771 0.282645
C112  C     C_R   0.849194 0.250021 0.301490 0.854044
C113  C     C_3   0.990420 0.798893 0.459364 -0.274123
C114  C     C_1   0.348954 0.943435 0.354364 0.338525
C115  C     C_2   0.794444 0.559725 0.353339 0.950928
C116  C     C_2   0.746528 0.454502 0.381636 0.883128
C117  C     C_2   0.295707 0.059669 0.352930 0.950628
C118  C     C_2   0.248098 0.954428 0.380480 0.882572
C119  C     C_2   0.802771 0.563167 0.563711 0.969777
C120  C     C_2   0.848732 0.460266 0.503210 0.961597
C121  C     C_2   0.302053 0.062898 0.564628 0.968459
C122  C     C_2   0.347029 0.959755 0.506118 0.965059
C123  C     C_2   0.507344 0.821493 0.395342 0.991427
C124  C     C_3   0.429813 0.741050 0.582822 -0.289440
C125  C     C_2   0.506946 0.183632 0.385714 1.014519
C126  C     C_2   0.010025 0.316782 0.388915 0.994421
C127  C     C_2   0.007109 0.683836 0.385483 1.011719
C128  C     C_2   0.618256 0.719647 0.360775 0.969560
C129  C     C_2   0.616417 0.298417 0.375476 0.908867
C130  C     C_2   0.116390 0.212925 0.363941 0.967813
C131  C     C_2   0.116051 0.798714 0.375914 0.908994
C132  C     C_2   0.502016 0.692340 0.378976 0.997792
C133  C     C_2   0.497171 0.318178 0.389689 0.992038
C134  C     C_2   0.998082 0.186726 0.385465 0.997134
C135  C     C_3   0.429093 0.251304 0.582657 -0.296411
C136  C     C_2   0.996703 0.818484 0.390437 1.003131
C137  C     C_2   0.480536 0.754861 0.650872 1.007489
C138  C     C_2   0.485369 0.211956 0.636146 0.980408
C139  C     C_2   0.981579 0.262021 0.649467 1.005628
C140  C     C_2   0.985470 0.711586 0.636145 0.978815
C141  C     C_3   0.929498 0.245081 0.583510 -0.293458
C142  C     C_3   0.929012 0.750918 0.582841 -0.294373
C143  C     C_3   0.464798 0.734324 0.956330 -0.125812
C144  C     C_3   0.473033 0.281608 0.956400 -0.121621
C145  C     C_3   0.962361 0.253080 0.956319 -0.126710
C146  C     C_3   0.973236 0.781957 0.956402 -0.121378
C147  C     C_3   0.537256 0.805272 0.956109 -0.088919
C148  C     C_R   0.349229 0.250016 0.301467 0.837510
C149  C     C_3   0.521788 0.192528 0.956174 -0.093355
C150  C     C_3   0.053157 0.297903 0.956176 -0.091761
C151  C     C_3   0.021238 0.692460 0.956159 -0.095392
C152  C     C_3   0.484573 0.807074 0.042332 -0.206709
C153  C     C_3   0.468501 0.193722 0.042302 -0.201779
C154  C     C_3   0.001483 0.302515 0.042408 -0.207964
C155  C     C_3   0.967954 0.693734 0.042289 -0.202133
C156  C     C_1   0.388312 0.750371 0.222548 -0.081310
C157  C     C_1   0.388474 0.249789 0.222546 -0.080947
C158  C     C_1   0.888278 0.250439 0.222539 -0.082639
C159  C     C_R   0.349198 0.750013 0.301493 0.854341
C160  C     C_1   0.888432 0.749744 0.222545 -0.081925
C161  C     C_3   0.535794 0.749836 0.926054 0.001630
C162  C     C_3   0.537262 0.250459 0.926124 0.016216
C163  C     C_3   0.035423 0.250396 0.926033 0.001304
C164  C     C_3   0.037203 0.750390 0.926124 0.015908
C165  C     C_R   0.650741 0.750043 0.698503 0.837153
C166  C     C_R   0.650748 0.249955 0.698548 0.845680
C167  C     C_R   0.150735 0.250051 0.698501 0.837169
C168  C     C_R   0.150742 0.749949 0.698548 0.845717
C169  C     C_3   0.423429 0.730444 0.044907 -0.280799
C170  C     C_3   0.490143 0.733415 0.580666 -0.283457
C171  C     C_3   0.433178 0.285043 0.044377 -0.277482
C172  C     C_3   0.919683 0.248272 0.044882 -0.280248
C173  C     C_3   0.933404 0.785347 0.044380 -0.276894
C174  C     C_3   0.461890 0.751070 0.074071 0.073391
C175  C     C_3   0.462582 0.249230 0.074115 0.070373
C176  C     C_3   0.961926 0.251376 0.074057 0.073603
C177  C     C_3   0.962505 0.749151 0.074114 0.070778
C178  C     C_3   0.518862 0.712667 0.044620 -0.282682
C179  C     C_3   0.528919 0.272874 0.045199 -0.298517
C180  C     C_3   0.005054 0.201770 0.044495 -0.281112
C181  C     C_3   0.489157 0.251365 0.582453 -0.259372
C182  C     C_3   0.029041 0.772349 0.045207 -0.298294
C183  C     C_3   0.558801 0.707899 0.957493 -0.293007
C184  C     C_3   0.570744 0.278693 0.958019 -0.288572
C185  C     C_3   0.043592 0.198443 0.957393 -0.291202
C186  C     C_3   0.070917 0.778193 0.958033 -0.287787
C187  C     C_1   0.421246 0.750735 0.155989 -0.057472
C188  C     C_1   0.421613 0.249509 0.156001 -0.060564
C189  C     C_1   0.921225 0.250899 0.155978 -0.057180
C190  C     C_1   0.921546 0.749438 0.156000 -0.061080
C191  C     C_1   0.577408 0.749940 0.844011 0.006766
C192  C     C_3   0.989583 0.237249 0.581871 -0.280645
C193  C     C_1   0.578366 0.250242 0.844066 0.017235
C194  C     C_1   0.077084 0.250312 0.844000 0.005782
C195  C     C_1   0.078318 0.750187 0.844066 0.017415
C196  C     C_1   0.611093 0.750141 0.777434 -0.005291
C197  C     C_1   0.611448 0.250023 0.777489 -0.016404
C198  C     C_1   0.110937 0.250312 0.777427 -0.004563
C199  C     C_1   0.111417 0.749991 0.777489 -0.015823
C200  C     C_3   0.824761 0.969740 0.450533 -0.173411
C201  C     C_3   0.823346 0.031738 0.458199 -0.192406
C202  C     C_3   0.321856 0.469717 0.436796 -0.177703
C203  C     C_3   0.989103 0.751063 0.582616 -0.258968
C204  C     C_3   0.322347 0.531700 0.443464 -0.195108
C205  C     C_3   0.719140 0.970670 0.464955 -0.383645
C206  C     C_3   0.725985 0.029425 0.456446 -0.392172
C207  C     C_3   0.204687 0.470641 0.484357 -0.405091
C208  C     C_3   0.210988 0.529434 0.474308 -0.396994
C209  C     C_3   0.715448 0.970546 0.580747 -0.190423
C210  C     C_3   0.708423 0.030429 0.580835 -0.218677
C211  C     C_3   0.229203 0.470685 0.578232 -0.195763
C212  C     C_3   0.221329 0.530508 0.580411 -0.215089
C213  C     C_R   0.749343 0.609035 0.497449 0.839033
C214  C     C_3   0.550725 0.750791 0.501780 -0.105928
C215  C     C_R   0.750037 0.391258 0.498018 0.831427
C216  C     C_R   0.249360 0.109026 0.497458 0.839372
C217  C     C_R   0.250010 0.891248 0.497978 0.830567
C218  C     C_3   0.753239 0.949172 0.499000 -0.002720
C219  C     C_3   0.752270 0.051190 0.498928 -0.016180
C220  C     C_3   0.252186 0.449198 0.499744 0.006844
C221  C     C_3   0.251348 0.551210 0.499618 -0.015192
C222  C     C_3   0.797983 0.530536 0.410932 -0.199796
C223  C     C_3   0.786788 0.469698 0.409374 -0.185268
C224  C     C_3   0.298605 0.030509 0.411019 -0.199967
H1    H     H_    0.582029 0.817501 0.428486 0.220941
H2    H     H_    0.422307 0.185821 0.051698 0.142090
H3    H     H_    0.979789 0.809313 0.313267 0.360304
H4    H     H_    0.513943 0.795063 0.699022 0.356292
H5    H     H_    0.442167 0.150160 0.702999 0.373867
H6    H     H_    0.018146 0.303430 0.693041 0.358382
H7    H     H_    0.941963 0.650070 0.703523 0.374044
H8    H     H_    0.967357 0.333207 0.052404 0.146552
H9    H     H_    0.921696 0.686193 0.051673 0.142589
H10   H     H_    0.544647 0.669862 0.948480 0.160926
H11   H     H_    0.568806 0.320657 0.949680 0.176160
H12   H     H_    0.018515 0.168184 0.948403 0.160168
H13   H     H_    0.069328 0.820209 0.949705 0.176065
H14   H     H_    0.496820 0.673923 0.066314 0.151486
H15   H     H_    0.518823 0.313170 0.067107 0.144471
H16   H     H_    0.971662 0.168404 0.066182 0.150340
H17   H     H_    0.591509 0.205800 0.399250 0.191512
H18   H     H_    0.019285 0.812635 0.067125 0.143946
H19   H     H_    0.412383 0.689634 0.063156 0.202693
H20   H     H_    0.435674 0.325185 0.060302 0.170536
H21   H     H_    0.896312 0.210018 0.062903 0.202544
H22   H     H_    0.936237 0.825397 0.060316 0.169582
H23   H     H_    0.737922 0.953369 0.409893 0.219365
H24   H     H_    0.757602 0.039580 0.396495 0.206568
H25   H     H_    0.211997 0.453020 0.434266 0.227429
H26   H     H_    0.232927 0.539049 0.415138 0.206549
H27   H     H_    0.742703 0.962279 0.603456 0.235786
H28   H     H_    0.085546 0.312748 0.420458 0.221792
H29   H     H_    0.722734 0.047376 0.614699 0.191920
H30   H     H_    0.265955 0.462350 0.587177 0.233168
H31   H     H_    0.246085 0.547272 0.602785 0.191104
H32   H     H_    0.668054 0.960736 0.501542 0.200600
H33   H     H_    0.679021 0.046548 0.478046 0.198145
H34   H     H_    0.155430 0.461109 0.531771 0.188419
H35   H     H_    0.162934 0.547066 0.506752 0.199133
H36   H     H_    0.644793 0.547428 0.579408 0.204577
H37   H     H_    0.655868 0.462227 0.597319 0.206247
H38   H     H_    0.144683 0.047436 0.578340 0.205741
H39   H     H_    0.091620 0.705855 0.399190 0.192156
H40   H     H_    0.155229 0.962185 0.596484 0.206842
H41   H     H_    0.668787 0.538673 0.487314 0.259318
H42   H     H_    0.653566 0.451062 0.520286 0.221885
H43   H     H_    0.169575 0.038757 0.485885 0.259705
H44   H     H_    0.154097 0.951102 0.518622 0.221969
H45   H     H_    0.716643 0.530775 0.606555 0.176168
H46   H     H_    0.753097 0.452169 0.590246 0.133549
H47   H     H_    0.215653 0.031086 0.606953 0.178004
H48   H     H_    0.251007 0.952210 0.591559 0.134505
H49   H     H_    0.495596 0.691529 0.585841 0.166942
H50   H     H_    0.471458 0.670631 0.482500 0.205180
H51   H     H_    0.490587 0.288793 0.605746 0.176991
H52   H     H_    0.992822 0.195697 0.591264 0.166356
H53   H     H_    0.990439 0.788439 0.606076 0.177879
H54   H     H_    0.405505 0.776357 0.615871 0.181158
H55   H     H_    0.400598 0.216301 0.610685 0.184643
H56   H     H_    0.907062 0.281829 0.613172 0.180038
H57   H     H_    0.900696 0.715795 0.610601 0.185912
H58   H     H_    0.363891 0.621394 0.642773 0.354106
H59   H     H_    0.369982 0.369776 0.661340 0.364508
H60   H     H_    0.857454 0.128765 0.655697 0.352466
H61   H     H_    0.460792 0.330458 0.496663 0.159024
H62   H     H_    0.869553 0.868953 0.662975 0.363612
H63   H     H_    0.580364 0.909906 0.539936 0.341264
H64   H     H_    0.629418 0.085711 0.426211 0.342297
H65   H     H_    0.088830 0.414979 0.514996 0.337221
H66   H     H_    0.132355 0.587284 0.426988 0.341845
H67   H     H_    0.712363 0.710898 0.902651 0.369315
H68   H     H_    0.717792 0.239860 0.905190 0.377194
H69   H     H_    0.192133 0.162285 0.902044 0.367668
H70   H     H_    0.217631 0.738311 0.905201 0.376774
H71   H     H_    0.487075 0.646053 0.828811 0.366155
H72   H     H_    0.967149 0.170031 0.490667 0.212387
H73   H     H_    0.442242 0.404058 0.930369 0.366314
H74   H     H_    0.959247 0.182736 0.828436 0.371599
H75   H     H_    0.943477 0.904784 0.930395 0.365708
H76   H     H_    0.609237 0.767708 0.092419 0.371268
H77   H     H_    0.597193 0.185512 0.093403 0.370071
H78   H     H_    0.106998 0.218555 0.092064 0.370440
H79   H     H_    0.096564 0.684183 0.093403 0.369174
H80   H     H_    0.878830 0.907245 0.539945 0.363522
H81   H     H_    0.850503 0.044458 0.591386 0.365483
H82   H     H_    0.402567 0.403462 0.491098 0.359567
H83   H     H_    0.960266 0.830423 0.497506 0.161308
H84   H     H_    0.385515 0.543598 0.541994 0.372876
H85   H     H_    0.831748 0.569663 0.244767 0.362071
H86   H     H_    0.717185 0.397614 0.347115 0.379601
H87   H     H_    0.333908 0.069577 0.244106 0.361317
H88   H     H_    0.219905 0.897523 0.344610 0.378431
H89   H     H_    0.805543 0.605603 0.638251 0.359417
H90   H     H_    0.919705 0.472117 0.513873 0.369901
H91   H     H_    0.304751 0.105374 0.639174 0.357368
H92   H     H_    0.416218 0.969608 0.520322 0.369369
H93   H     H_    0.497964 0.866278 0.327684 0.367260
H94   H     H_    0.442470 0.827241 0.052276 0.146681
H95   H     H_    0.495479 0.136868 0.321758 0.356524
H96   H     H_    0.002367 0.359337 0.318107 0.365329
H97   H     H_    0.995924 0.637156 0.321195 0.356593
H98   H     H_    0.674192 0.693068 0.255256 0.363977
H99   H     H_    0.711769 0.304983 0.312335 0.354037
H100  H     H_    0.169879 0.182183 0.260744 0.363244
H101  H     H_    0.211374 0.805490 0.312727 0.352890
H102  H     H_    0.523178 0.637220 0.303539 0.380299
H103  H     H_    0.480087 0.308825 0.312695 0.362727
H104  H     H_    0.015174 0.128041 0.316304 0.373296
N1    N     N_1   0.585394 0.617689 0.470556 -0.105889
N2    N     N_1   0.408585 0.236776 0.913190 -0.132901
N3    N     N_1   0.938078 0.339600 0.914224 -0.128651
N4    N     N_1   0.908413 0.737873 0.913175 -0.133683
N5    N     N_1   0.650955 0.826676 0.920548 -0.095170
N6    N     N_1   0.624910 0.143991 0.921719 -0.104651
N7    N     N_1   0.168805 0.288484 0.920571 -0.089232
N8    N     N_1   0.123941 0.643176 0.921710 -0.103273
N9    N     N_1   0.517461 0.880989 0.892432 -0.140001
N10   N     N_1   0.483199 0.135095 0.891819 -0.139294
N11   N     N_1   0.059173 0.385991 0.892670 -0.139759
N12   N     N_1   0.557213 0.384680 0.515118 -0.131156
N13   N     N_1   0.982190 0.635646 0.891762 -0.134553
N14   N     N_1   0.512695 0.865189 0.116735 -0.127241
N15   N     N_1   0.475572 0.118454 0.117286 -0.129648
N16   N     N_1   0.044294 0.337391 0.116887 -0.125569
N17   N     N_1   0.974366 0.618074 0.117271 -0.129806
N18   N     N_1   0.876381 0.939692 0.311943 -0.146439
N19   N     N_1   0.894172 0.075785 0.325135 -0.134209
N20   N     N_1   0.347592 0.439976 0.307499 -0.141459
N21   N     N_1   0.372209 0.575545 0.312061 -0.137396
N22   N     N_1   0.606352 0.922525 0.671824 -0.157188
N23   N     N_1   0.078567 0.116163 0.483133 -0.110387
N24   N     N_1   0.590360 0.062253 0.647406 -0.128745
N25   N     N_1   0.126695 0.423369 0.688964 -0.157374
N26   N     N_1   0.103048 0.562618 0.673605 -0.145513
N27   N     N_1   0.393777 0.873829 0.564961 -0.120463
N28   N     N_1   0.424430 0.117926 0.551507 -0.078612
N29   N     N_1   0.900564 0.376364 0.554480 -0.121667
N30   N     N_1   0.924882 0.617595 0.550761 -0.076542
N31   N     N_1   0.915884 0.548063 0.364635 -0.070380
N32   N     N_1   0.895324 0.423102 0.309897 -0.104643
N33   N     N_1   0.416165 0.047975 0.365995 -0.068585
N34   N     N_1   0.056656 0.884601 0.516035 -0.128687
N35   N     N_1   0.396491 0.923139 0.310876 -0.103073
N36   N     N_1   0.310227 0.773477 0.113586 -0.121655
N37   N     N_1   0.310536 0.269094 0.113465 -0.129863
N38   N     N_1   0.823315 0.313433 0.113937 -0.129630
N39   N     N_1   0.810626 0.770143 0.113462 -0.133957
N40   N     N_1   0.416300 0.802300 0.913681 -0.122847
O1    O     O_3   0.750010 0.750010 0.500000 -0.524116
O2    O     O_R   0.740870 0.133130 0.457020 -0.633708
O3    O     O_R   0.357072 0.527252 0.530159 -0.810387
O4    O     O_2   0.753319 0.591967 0.371932 -0.624961
O5    O     O_R   0.838538 0.548378 0.277864 -0.788290
O6    O     O_2   0.715339 0.485988 0.374734 -0.576708
O7    O     O_R   0.743841 0.402689 0.366217 -0.805027
O8    O     O_2   0.254672 0.091891 0.371032 -0.625025
O9    O     O_R   0.340300 0.048316 0.277558 -0.788842
O10   O     O_2   0.217024 0.985841 0.373277 -0.576457
O11   O     O_R   0.245980 0.902640 0.364473 -0.806154
O12   O     O_2   0.856214 0.575567 0.512339 -0.574730
O13   O     O_R   0.240870 0.366870 0.457020 -0.632069
O14   O     O_R   0.776609 0.581336 0.635539 -0.770035
O15   O     O_2   0.883630 0.436568 0.445520 -0.576251
O16   O     O_R   0.872134 0.476494 0.542896 -0.744465
O17   O     O_2   0.355978 0.074456 0.513630 -0.576420
O18   O     O_R   0.275495 0.081639 0.636282 -0.768333
O19   O     O_2   0.382881 0.937099 0.447747 -0.575690
O20   O     O_R   0.368867 0.974630 0.547950 -0.745649
O21   O     O_2   0.555404 0.801909 0.341998 -0.581842
O22   O     O_R   0.476662 0.859615 0.382479 -0.718402
O23   O     O_2   0.545587 0.209711 0.331869 -0.538460
O24   O     O_R   0.240870 0.633130 0.457020 -0.633611
O25   O     O_R   0.480018 0.140981 0.375315 -0.740964
O26   O     O_2   0.056453 0.294404 0.337135 -0.582929
O27   O     O_R   0.981338 0.355049 0.373279 -0.719826
O28   O     O_2   0.045591 0.710125 0.331826 -0.538396
O29   O     O_R   0.980424 0.641140 0.374783 -0.740851
O30   O     O_2   0.652387 0.757191 0.343763 -0.588051
O31   O     O_R   0.634979 0.683047 0.305797 -0.735609
O32   O     O_2   0.617844 0.288975 0.320665 -0.522006
O33   O     O_R   0.673616 0.307522 0.366114 -0.819762
O34   O     O_2   0.153630 0.248572 0.343974 -0.595460
O35   O     O_R   0.862620 0.719400 0.336030 -0.616626
O36   O     O_R   0.130031 0.174701 0.312042 -0.734515
O37   O     O_2   0.117461 0.789321 0.321103 -0.523868
O38   O     O_R   0.173233 0.808007 0.366516 -0.819911
O39   O     O_2   0.487837 0.722900 0.349087 -0.587380
O40   O     O_R   0.521678 0.642628 0.349737 -0.691510
O41   O     O_2   0.521264 0.360414 0.364311 -0.553300
O42   O     O_R   0.473375 0.290497 0.357128 -0.759999
O43   O     O_2   0.984974 0.215858 0.353071 -0.597196
O44   O     O_R   0.014699 0.135649 0.361379 -0.693146
O45   O     O_2   0.020568 0.860830 0.365410 -0.542904
O46   O     O_R   0.862620 0.280600 0.336030 -0.604442
O47   O     O_R   0.973138 0.790846 0.357581 -0.764096
O48   O     O_2   0.432369 0.743465 0.711514 -0.576266
O49   O     O_R   0.526569 0.784786 0.647992 -0.780908
O50   O     O_2   0.522041 0.215118 0.653385 -0.616810
O51   O     O_R   0.439299 0.173204 0.668173 -0.764910
O52   O     O_2   0.932607 0.254403 0.711155 -0.577587
O53   O     O_R   0.029921 0.290659 0.643309 -0.784034
O54   O     O_2   0.022595 0.714437 0.652746 -0.617983
O55   O     O_R   0.938980 0.673169 0.668833 -0.762892
O56   O     O_R   0.362620 0.219400 0.336030 -0.617232
O57   O     O_R   0.362620 0.780600 0.336030 -0.602810
O58   O     O_R   0.698690 0.780630 0.663960 -0.618994
O59   O     O_R   0.698690 0.219370 0.663960 -0.626205
O60   O     O_R   0.198690 0.280630 0.663960 -0.623420
O61   O     O_3   0.750010 0.249990 0.500000 -0.522174
O62   O     O_R   0.198690 0.719370 0.663960 -0.625306
O63   O     O_R   0.801340 0.780670 0.336040 -0.618915
O64   O     O_R   0.801340 0.219330 0.336040 -0.624834
O65   O     O_R   0.301340 0.280670 0.336040 -0.615823
O66   O     O_R   0.301340 0.719330 0.336040 -0.623622
O67   O     O_R   0.637410 0.719360 0.663970 -0.610103
O68   O     O_R   0.637410 0.280640 0.663970 -0.613880
O69   O     O_R   0.137410 0.219360 0.663970 -0.610128
O70   O     O_R   0.137410 0.780640 0.663970 -0.614212
O71   O     O_R   0.802130 0.633170 0.457010 -0.622454
O72   O     O_3   0.250010 0.250010 0.500000 -0.524164
O73   O     O_R   0.802130 0.366830 0.457010 -0.598373
O74   O     O_R   0.302130 0.133170 0.457010 -0.623810
O75   O     O_R   0.302130 0.866830 0.457010 -0.598627
O76   O     O_R   0.759170 0.866860 0.542980 -0.600804
O77   O     O_R   0.759170 0.133140 0.542980 -0.641634
O78   O     O_R   0.259170 0.366860 0.542980 -0.599812
O79   O     O_R   0.259170 0.633140 0.542980 -0.642408
O80   O     O_R   0.888360 0.719380 0.456990 -0.588265
O81   O     O_R   0.888360 0.280620 0.456990 -0.591234
O82   O     O_R   0.388360 0.219380 0.456990 -0.589434
O83   O     O_3   0.250010 0.749990 0.500000 -0.522369
O84   O     O_R   0.388360 0.780620 0.456990 -0.588033
O85   O     O_R   0.654640 0.780660 0.457030 -0.582838
O86   O     O_R   0.654640 0.219340 0.457030 -0.622834
O87   O     O_R   0.154640 0.280660 0.457030 -0.584190
O88   O     O_R   0.154640 0.719340 0.457030 -0.621711
O89   O     O_R   0.845390 0.780640 0.542970 -0.627878
O90   O     O_R   0.845390 0.219360 0.542970 -0.627101
O91   O     O_R   0.345390 0.280640 0.542970 -0.623566
O92   O     O_R   0.345390 0.719360 0.542970 -0.630526
O93   O     O_R   0.611660 0.719380 0.543010 -0.638030
O94   O     O_R   0.697880 0.633160 0.542990 -0.642669
O95   O     O_R   0.611660 0.280620 0.543010 -0.612606
O96   O     O_R   0.111660 0.219380 0.543010 -0.640171
O97   O     O_R   0.111660 0.780620 0.543010 -0.613107
O98   O     O_2   0.330072 0.708280 0.683414 -0.560351
O99   O     O_R   0.399571 0.645990 0.607966 -0.815199
O100  O     O_2   0.328675 0.284128 0.682341 -0.581884
O101  O     O_R   0.404886 0.345364 0.624311 -0.811602
O102  O     O_2   0.827809 0.217449 0.686450 -0.562453
O103  O     O_R   0.894429 0.151542 0.618534 -0.804622
O104  O     O_2   0.828321 0.783390 0.682402 -0.574805
O105  O     O_R   0.697880 0.366840 0.542990 -0.641402
O106  O     O_R   0.904540 0.844701 0.625681 -0.821908
O107  O     O_2   0.489481 0.855909 0.595767 -0.586343
O108  O     O_R   0.587766 0.882936 0.502651 -0.780563
O109  O     O_2   0.549461 0.132320 0.534899 -0.603809
O110  O     O_R   0.620015 0.119294 0.411117 -0.766087
O111  O     O_2   0.998513 0.360160 0.583191 -0.589636
O112  O     O_R   0.094835 0.384751 0.482658 -0.776992
O113  O     O_2   0.048130 0.631686 0.535054 -0.607928
O114  O     O_R   0.122355 0.620454 0.411633 -0.763654
O115  O     O_2   0.658353 0.677201 0.854292 -0.591041
O116  O     O_R   0.197880 0.133160 0.542990 -0.641875
O117  O     O_R   0.665492 0.718911 0.938199 -0.749306
O118  O     O_2   0.677053 0.291163 0.853021 -0.571605
O119  O     O_R   0.669909 0.241372 0.940985 -0.748102
O120  O     O_2   0.130939 0.153773 0.854542 -0.593546
O121  O     O_R   0.149229 0.179083 0.937553 -0.749912
O122  O     O_2   0.177336 0.790250 0.853075 -0.574271
O123  O     O_R   0.169759 0.740065 0.940980 -0.748761
O124  O     O_2   0.437595 0.644903 0.959447 -0.610553
O125  O     O_R   0.490974 0.681307 0.845420 -0.775271
O126  O     O_2   0.535567 0.352259 0.875324 -0.604761
O127  O     O_R   0.197880 0.866840 0.542990 -0.641760
O128  O     O_R   0.430512 0.368853 0.954844 -0.772778
O129  O     O_2   0.908997 0.176127 0.958976 -0.607239
O130  O     O_R   0.973470 0.212299 0.845213 -0.776970
O131  O     O_2   0.036368 0.852426 0.875347 -0.604614
O132  O     O_R   0.931449 0.869572 0.954860 -0.773465
O133  O     O_2   0.556092 0.687225 0.115462 -0.591776
O134  O     O_R   0.587439 0.767318 0.066748 -0.753379
O135  O     O_2   0.568962 0.274675 0.117535 -0.580105
O136  O     O_R   0.577555 0.196522 0.067271 -0.755710
O137  O     O_2   0.031190 0.154929 0.115022 -0.595227
O138  O     O_R   0.740870 0.866870 0.457020 -0.629053
O139  O     O_R   0.086676 0.228968 0.066495 -0.752659
O140  O     O_2   0.069116 0.773487 0.117527 -0.581075
O141  O     O_R   0.077017 0.695477 0.067277 -0.756320
O142  O     O_2   0.925707 0.951117 0.424799 -0.551029
O143  O     O_R   0.844316 0.920239 0.535779 -0.761338
O144  O     O_2   0.889793 0.084940 0.475672 -0.578658
O145  O     O_R   0.829258 0.028801 0.569415 -0.810697
O146  O     O_2   0.430368 0.452856 0.385353 -0.548096
O147  O     O_R   0.362663 0.415706 0.497582 -0.772880
O148  O     O_2   0.398599 0.587287 0.439458 -0.590337
Zn1   Zn    Zn3+2 0.675530 0.706240 0.561430 1.036755
Zn2   Zn    Zn3+2 0.763090 0.206230 0.561410 1.042719
Zn3   Zn    Zn3+2 0.263090 0.293770 0.561410 1.048324
Zn4   Zn    Zn3+2 0.263090 0.706230 0.561410 1.042431
Zn5   Zn    Zn3+2 0.736940 0.793790 0.438590 1.061078
Zn6   Zn    Zn3+2 0.736940 0.206210 0.438590 1.056692
Zn7   Zn    Zn3+2 0.236940 0.293790 0.438590 1.065006
Zn8   Zn    Zn3+2 0.236940 0.706210 0.438590 1.059349
Zn9   Zn    Zn3+2 0.675530 0.293760 0.561430 1.057861
Zn10  Zn    Zn3+2 0.175530 0.206240 0.561430 1.036475
Zn11  Zn    Zn3+2 0.175530 0.793760 0.561430 1.057259
Zn12  Zn    Zn3+2 0.824490 0.706250 0.438570 1.060147
Zn13  Zn    Zn3+2 0.824490 0.293750 0.438570 1.086958
Zn14  Zn    Zn3+2 0.324490 0.206250 0.438570 1.060883
Zn15  Zn    Zn3+2 0.324490 0.793750 0.438570 1.088972
Zn16  Zn    Zn3+2 0.763090 0.793770 0.561410 1.047424

loop_
_geom_bond_atom_site_label_1
_geom_bond_atom_site_label_2
_ccdc_geom_bond_type
C3    C224  S    
C171  H20   S    
C88   O136  S    
C200  C218  S    
C157  C188  T    
C178  H14   S    
C161  C191  S    
C85   O129  D    
C45   O102  D    
C164  C195  S    
C213  O71   A    
C20   O24   A    
C150  C163  S    
C112  C158  S    
C35   C124  S    
C112  O64   A    
H79   O141  S    
C164  C186  S    
C127  O29   S    
C148  O56   A    
C26   O93   A    
H82   O147  S    
C155  H9    S    
C159  O66   A    
C177  C182  S    
C122  O19   D    
C23   O82   A    
C34   C35   S    
C165  O58   A    
C149  C153  S    
C191  C196  T    
C55   C173  S    
C99   C204  S    
C175  C188  S    
C62   N6    T    
C84   O126  D    
C169  C174  S    
C120  O16   S    
C29   O97   A    
C151  C155  S    
C4    C12   S    
C93   C201  S    
C195  C199  T    
H76   O134  S    
H60   O103  S    
C23   C46   S    
C34   C105  S    
C60   C146  S    
C110  C223  S    
O1    Zn16  S    
C216  O74   A    
H93   O22   S    
C118  O11   S    
O72   Zn14  S    
C128  O31   S    
O82   Zn14  S    
C72   C154  S    
C36   C106  S    
C201  C219  S    
C66   C149  S    
C139  C192  S    
H89   O14   S    
C132  O39   D    
C124  H54   S    
C8    H41   S    
C131  O38   S    
O87   Zn7   S    
O76   Zn16  S    
C115  O5    S    
C207  H34   S    
C10   H38   S    
C184  H11   S    
C211  C220  S    
C3    C118  S    
C73   C155  S    
C208  H26   S    
C119  O12   D    
C52   N36   T    
O61   Zn2   S    
O84   Zn15  S    
C89   O137  D    
C123  O21   D    
C133  O41   D    
C79   H50   S    
C215  O105  A    
C99   O3    S    
C50   N23   T    
C158  C189  T    
C88   C179  S    
O69   Zn10  S    
C156  C187  T    
C43   O98   D    
C117  O9    S    
O71   Zn12  S    
H66   O114  S    
C134  O44   S    
C4    C5    S    
C205  H23   S    
H64   O110  S    
C22   O81   A    
C37   C107  S    
C6    C7    S    
C39   C128  S    
C154  C176  S    
C206  C219  S    
C153  C175  S    
C33   C38   S    
C100  N22   T    
O79   Zn4   S    
C98   O146  D    
C116  C223  S    
C95   C204  S    
C102  N24   T    
C166  O59   A    
O116  Zn10  S    
C192  H52   S    
C83   C143  S    
C64   N8    T    
C176  C189  S    
C84   O128  S    
O93   Zn1   S    
C172  H21   S    
H68   O119  S    
C28   O96   A    
C167  C198  S    
C111  C224  S    
C47   O106  S    
C22   O90   A    
C183  H10   S    
C130  O36   S    
C2    C40   S    
O88   Zn8   S    
C91   C182  S    
H59   O101  S    
C31   C36   S    
C149  C162  S    
C143  C161  S    
C37   C57   S    
C44   O100  D    
C173  H22   S    
C92   N18   T    
C40   C129  S    
H91   O18   S    
C114  N35   T    
C168  C199  S    
C204  C221  S    
C115  C222  S    
C65   N9    T    
C29   O88   A    
O58   Zn16  S    
O63   Zn5   S    
C210  H29   S    
O95   Zn9   S    
C109  N31   T    
C144  C171  S    
C5    H46   S    
O35   Zn12  S    
C71   N15   T    
C7    H48   S    
C85   C145  S    
C213  O94   A    
C168  O70   A    
C105  N27   T    
C30   C74   S    
O105  Zn9   S    
C103  N25   T    
C84   C144  S    
O81   Zn13  S    
C40   C49   S    
C70   N14   T    
C59   N3    T    
C100  C209  S    
O72   Zn3   S    
C202  C220  S    
C15   C224  S    
C126  O26   D    
C159  O57   A    
O24   Zn8   S    
C56   C143  S    
H81   O145  S    
C48   N1    T    
C121  O17   D    
O91   Zn3   S    
C11   H44   S    
C68   C142  S    
C42   C131  S    
C145  C172  S    
C73   N17   T    
O85   Zn5   S    
C141  C192  S    
C90   H61   S    
C51   N34   T    
H6    O53   S    
C27   O95   A    
C126  O27   S    
C30   C34   S    
C19   O78   A    
H88   O11   S    
C54   C172  S    
C14   C223  S    
O1    Zn12  S    
H102  O40   S    
C83   O124  D    
C75   O109  D    
C86   O132  S    
C103  C211  S    
H70   O123  S    
H98   O31   S    
C145  C163  S    
C163  C194  S    
C11   H40   S    
C128  O30   D    
C210  C219  S    
H67   O117  S    
C2    C181  S    
C8    H36   S    
C206  H24   S    
C63   C150  S    
C148  O65   A    
C174  C187  S    
C130  O34   D    
C186  H13   S    
C8    C12   S    
C25   O92   A    
C209  C210  S    
C97   O145  S    
C13   C28   S    
C63   N7    T    
C32   C37   S    
C76   O112  S    
C12   C222  S    
C137  C170  S    
C59   C145  S    
C139  O52   D    
O96   Zn10  S    
C21   C68   S    
C65   C147  S    
C104  C212  S    
C211  H30   S    
C17   O138  A    
C181  H51   S    
H63   O108  S    
C179  C184  S    
C4    H45   S    
C96   C200  S    
C26   O85   A    
C177  C190  S    
C6    H47   S    
C97   C201  S    
C3    C114  S    
C74   O107  D    
C32   C76   S    
H69   O121  S    
O64   Zn6   S    
C43   O99   S    
C125  O23   D    
C212  H31   S    
C160  C190  T    
C77   O114  S    
C33   C77   S    
C194  C198  T    
C27   O86   A    
C110  N32   T    
C44   C135  S    
C162  C193  S    
C122  O20   S    
C72   N16   T    
C148  C157  S    
C80   C184  S    
C106  N28   T    
O62   Zn4   S    
C10   C11   S    
C58   C144  S    
C176  C180  S    
C151  C164  S    
C81   O120  D    
C135  C181  S    
C117  C224  S    
C152  H94   S    
C19   C220  S    
C6    C121  S    
C92   C200  S    
C170  H49   S    
C60   N4    T    
C3    C16   S    
C172  C176  S    
C23   O91   A    
C88   O135  D    
H73   O128  S    
O75   Zn15  S    
H87   O9    S    
C24   C203  S    
H4    O49   S    
H104  O44   S    
C102  C210  S    
C24   C42   S    
H92   O20   S    
C13   C41   S    
O92   Zn4   S    
C138  O50   D    
C104  N26   T    
C207  C220  S    
C13   C192  S    
C202  C204  S    
C82   C186  S    
C135  H55   S    
C136  O45   D    
C99   O148  D    
C37   C126  S    
C41   C130  S    
C132  O40   S    
C131  O37   D    
C180  H16   S    
C80   O119  S    
O77   Zn2   S    
C86   C146  S    
H5    O51   S    
C87   O134  S    
C182  C186  S    
C89   C180  S    
C53   N37   T    
C24   C29   S    
C179  H15   S    
C13   C32   S    
C46   C135  S    
C134  O43   D    
C96   O143  S    
C20   C221  S    
C4    C119  S    
C2    C27   S    
C94   C202  S    
C174  C178  S    
C178  C183  S    
C116  O7    S    
C68   C113  S    
H62   O106  S    
C208  H35   S    
H86   O7    S    
O13   Zn7   S    
C67   C150  S    
C45   C141  S    
H95   O25   S    
C167  O69   A    
C12   C213  S    
C169  H19   S    
O90   Zn2   S    
C85   O130  S    
C45   O103  S    
C107  N29   T    
O94   Zn1   S    
C5    C120  S    
C207  C208  S    
C119  O14   S    
C153  H2    S    
C75   O110  S    
C147  C161  S    
C90   C133  S    
C64   C151  S    
C205  C206  S    
H103  O42   S    
C93   N19   T    
H74   O130  S    
C39   C79   S    
O78   Zn3   S    
C161  C183  S    
C9    C14   S    
C83   O125  S    
C67   N11   T    
C30   C214  S    
H97   O29   S    
C11   C16   S    
C31   C75   S    
C211  C212  S    
C120  O15   D    
H80   O143  S    
O83   Zn8   S    
C207  H25   S    
C5    C14   S    
C216  O116  A    
C112  O46   A    
C25   C35   S    
O61   Zn13  S    
C7    C16   S    
C206  H33   S    
C38   C68   S    
H58   O99   S    
C209  C218  S    
C17   O76   A    
C165  C196  S    
C41   C50   S    
H71   O125  S    
C57   C101  S    
O46   Zn13  S    
C118  O10   D    
H84   O3    S    
C139  O53   S    
C32   H28   S    
C154  H8    S    
C136  O47   S    
C31   H17   S    
C1    C160  S    
C141  H56   S    
C61   N5    T    
C15   C216  S    
C52   C169  S    
O74   Zn14  S    
H7    O55   S    
C170  C214  S    
H75   O132  S    
C9    H42   S    
C33   H39   S    
C129  O33   S    
C24   C33   S    
O127  Zn11  S    
C26   C214  S    
C140  O55   S    
C82   O122  D    
C61   C147  S    
C166  C197  S    
C215  O73   A    
C108  N30   T    
C82   O123  S    
C87   C178  S    
O67   Zn1   S    
C95   N21   T    
C203  H53   S    
C41   C101  S    
O83   Zn4   S    
H85   O5    S    
C91   O140  D    
C38   C108  S    
H78   O139  S    
C28   O87   A    
C53   C171  S    
C123  O22   S    
C133  O42   S    
H65   O112  S    
C21   O89   A    
O97   Zn11  S    
C185  H12   S    
C21   O80   A    
O80   Zn12  S    
C40   C90   S    
C109  C222  S    
C155  C177  S    
C39   C48   S    
C98   O147  S    
H90   O16   S    
C34   C123  S    
C62   C149  S    
C66   N10   T    
C36   C125  S    
O57   Zn15  S    
O83   Zn11  S    
C47   O104  D    
C22   C57   S    
C38   C127  S    
C18   O77   A    
C101  C134  S    
C162  C184  S    
C217  O75   A    
C47   C142  S    
C25   O84   A    
C97   O144  D    
H101  O38   S    
C10   C15   S    
O2    Zn6   S    
C142  H57   S    
C165  O67   A    
C81   O121  S    
C1    O35   A    
C166  O68   A    
C127  O28   D    
C71   C153  S    
C146  C173  S    
C69   N13   T    
C58   N2    T    
C78   C183  S    
C35   C79   S    
C78   O115  D    
C138  C181  S    
C1    O63   A    
C137  O48   D    
C55   N39   T    
C6    C15   S    
C80   O118  D    
C200  C201  S    
C113  C136  S    
C9    H37   S    
C46   C90   S    
H99   O33   S    
C89   O139  S    
O68   Zn9   S    
H100  O36   S    
O56   Zn14  S    
C42   C51   S    
C152  C174  S    
C94   N20   T    
O70   Zn11  S    
C96   O142  D    
C137  O49   S    
C30   H1    S    
C18   O2    A    
C18   C219  S    
C182  H18   S    
H77   O136  S    
C81   C185  S    
O61   Zn6   S    
C116  O6    D    
C212  C221  S    
C205  C218  S    
C10   H43   S    
C69   C151  S    
C70   C152  S    
C146  C164  S    
C143  C169  S    
C140  C203  S    
C74   O108  S    
C57   C141  S    
C8    C9    S    
C175  C179  S    
C208  C221  S    
C171  C175  S    
C2    C31   S    
C78   O117  S    
C56   N40   T    
O59   Zn2   S    
O86   Zn6   S    
C77   O113  D    
C168  O62   A    
O73   Zn13  S    
C42   C113  S    
C173  C177  S    
C121  O18   S    
C20   O79   A    
C16   C217  S    
C129  O32   D    
O1    Zn1   S    
C36   C46   S    
C205  H32   S    
C167  O60   A    
C209  H27   S    
C49   N12   T    
C111  N33   T    
O83   Zn15  S    
C7    C122  S    
C115  O4    D    
C54   N38   T    
C39   C214  S    
C144  C162  S    
C98   C202  S    
C156  C159  S    
O138  Zn5   S    
C86   O131  D    
C101  H72   S    
C138  O51   S    
H3    O47   S    
C217  O127  A    
C163  C185  S    
O72   Zn10  S    
C142  C203  S    
O60   Zn3   S    
C147  C152  S    
O66   Zn8   S    
O61   Zn9   S    
C193  C197  T    
C79   C132  S    
C113  H83   S    
C19   O13   A    
C14   C215  S    
C87   O133  D    
C76   O111  D    
C140  O54   D    
C222  C223  S    
O1    Zn5   S    
C180  C185  S    
C17   C218  S    
O89   Zn16  S    
C44   O101  S    
C124  C170  S    
C150  C154  S    
C117  O8    D    
O72   Zn7   S    
C91   O141  S    
C125  O25   S    
C43   C124  S    
O65   Zn7   S    
H96   O27   S    
