data_mof_unit_62029.cif
_audit_creation_date              2012-10-26T21:09:29-0400
_audit_creation_method            fapswitch 2.2
_symmetry_space_group_name_H-M    P1
_symmetry_Int_Tables_number       1
_space_group_crystal_system       triclinic
_cell_length_a                    15.997188
_cell_length_b                    14.797318
_cell_length_c                    11.725532
_cell_angle_alpha                 89.999984
_cell_angle_beta                  89.980161
_cell_angle_gamma                 89.999921
_cell_volume                      2775.61474511

loop_
_atom_site_label
_atom_site_type_symbol
_atom_type_description
_atom_site_fract_x
_atom_site_fract_y
_atom_site_fract_z
_atom_type_partial_charge
C1    C     C_R   0.340869 0.500000 0.500024 0.550844
C2    C     C_R   0.493196 0.048387 0.396108 0.020514
C3    C     C_R   0.489200 0.951611 0.396748 0.021580
C4    C     C_R   0.506811 0.048387 0.603881 0.020503
C5    C     C_1   0.499998 0.802444 0.499997 0.091092
C6    C     C_1   0.500002 0.197555 0.499995 0.091236
C7    C     C_1   0.500007 0.500000 0.162032 -0.001802
C8    C     C_1   0.499993 0.499999 0.837967 -0.001801
C9    C     C_1   0.500003 0.499999 0.059764 -0.015110
C10   C     C_1   0.499997 0.499999 0.940235 -0.015109
C11   C     C_R   0.956377 0.582023 0.500942 -0.097105
C12   C     C_R   0.659131 0.500000 0.499976 0.550846
C13   C     C_R   0.043624 0.417983 0.499052 -0.097427
C14   C     C_R   0.043623 0.582023 0.500951 -0.097102
C15   C     C_R   0.956378 0.417983 0.499043 -0.097429
C16   C     C_R   0.912781 0.500003 0.499988 0.037947
C17   C     C_R   0.087219 0.500003 0.500006 0.037955
C18   C     C_1   0.823318 0.500002 0.499980 -0.045794
C19   C     C_1   0.176682 0.500002 0.500016 -0.045794
C20   C     C_2   0.507006 0.100194 0.712829 0.302294
C21   C     C_2   0.471099 0.899803 0.290656 0.302648
C22   C     C_2   0.493021 0.100195 0.287161 0.302298
C23   C     C_1   0.251736 0.500001 0.500022 -0.011308
C24   C     C_2   0.528906 0.899805 0.709332 0.302658
C25   C     C_1   0.748264 0.500000 0.499976 -0.011304
C26   C     C_R   0.499997 0.902911 0.499996 -0.098636
C27   C     C_R   0.500004 0.097087 0.499995 -0.098798
C28   C     C_R   0.500010 0.500000 0.283479 0.549017
C29   C     C_R   0.499989 0.500000 0.716521 0.549018
C30   C     C_R   0.510802 0.951612 0.603241 0.021572
Cu1   Cu    Cu3+1 0.500000 0.589220 0.500000 1.011838
Cu2   Cu    Cu3+1 0.500000 0.410780 0.500000 1.011945
H1    H     H_    0.077015 0.645729 0.501692 0.125769
H2    H     H_    0.922986 0.354277 0.498302 0.125133
H3    H     H_    0.922983 0.645729 0.501677 0.125788
H4    H     H_    0.077017 0.354277 0.498317 0.125122
H5    H     H_    0.535934 0.166441 0.716951 0.112358
H6    H     H_    0.498693 0.833631 0.277476 0.114193
H7    H     H_    0.464099 0.166444 0.283029 0.112341
H8    H     H_    0.501284 0.833649 0.722534 0.114188
N1    N     N_1   0.500000 0.276710 0.500000 -0.190638
N2    N     N_1   0.500000 0.723290 0.500000 -0.190656
O1    O     O_R   0.380310 0.575320 0.500020 -0.486621
O2    O     O_2   0.422146 0.928512 0.219473 -0.433487
O3    O     O_2   0.528566 0.071398 0.202462 -0.422429
O4    O     O_2   0.577888 0.928495 0.780490 -0.433499
O5    O     O_R   0.619690 0.424680 0.499980 -0.487430
O6    O     O_R   0.619690 0.575320 0.499980 -0.486616
O7    O     O_R   0.380310 0.424680 0.500020 -0.487428
O8    O     O_R   0.500010 0.575340 0.337190 -0.489263
O9    O     O_R   0.499990 0.424660 0.662810 -0.488192
O10   O     O_R   0.499990 0.575340 0.662810 -0.489275
O11   O     O_R   0.500010 0.424660 0.337190 -0.488208
O12   O     O_2   0.471476 0.071400 0.797543 -0.422438

loop_
_geom_bond_atom_site_label_1
_geom_bond_atom_site_label_2
_ccdc_geom_bond_type
C2    C22   S    
C19   C23   T    
C28   O11   A    
Cu2   O9    S    
C1    C23   S    
C2    C27   A    
Cu1   N2    S    
C21   O2    D    
C11   C16   A    
Cu1   O10   S    
C15   H2    S    
C3    C26   A    
C6    C27   S    
C13   C17   A    
C12   C25   S    
Cu2   N1    S    
C24   O4    D    
C4    C27   A    
C14   H1    S    
C11   H3    S    
C2    C3    A    
Cu1   Cu2   S    
C20   H5    S    
C14   C17   A    
C18   C25   T    
Cu1   O1    S    
C12   O5    A    
C8    C29   S    
C9    C10   S    
C20   O12   D    
C17   C19   S    
C12   O6    A    
C26   C30   A    
Cu1   O6    S    
C13   C15   A    
C29   O10   A    
Cu2   O5    S    
C24   C30   S    
Cu2   O7    S    
C3    C21   S    
C22   H7    S    
Cu1   O8    S    
C5    C26   S    
C4    C20   S    
Cu2   O11   S    
C22   O3    D    
C5    N2    T    
C13   H4    S    
C16   C18   S    
C29   O9    A    
C11   C14   A    
C7    C9    T    
C7    C28   S    
C24   H8    S    
C28   O8    A    
C1    O1    A    
C8    C10   T    
C4    C30   A    
C21   H6    S    
C15   C16   A    
C6    N1    T    
C1    O7    A    
