data_mof_unit_54706.cif
_audit_creation_date              2012-12-10T17:41:47-0500
_audit_creation_method            fapswitch 2.2
_symmetry_space_group_name_H-M    P1
_symmetry_Int_Tables_number       1
_space_group_crystal_system       triclinic
_cell_length_a                    13.929292
_cell_length_b                    13.897896
_cell_length_c                    15.085643
_cell_angle_alpha                 85.54087
_cell_angle_beta                  90.044899
_cell_angle_gamma                 84.735967
_cell_volume                      2899.18559569

loop_
_atom_site_label
_atom_site_type_symbol
_atom_type_description
_atom_site_fract_x
_atom_site_fract_y
_atom_site_fract_z
_atom_type_partial_charge
C1    C     C_R   0.499889 0.500701 0.328796 0.789796
C2    C     C_R   0.500111 0.499299 0.671204 0.789793
C3    C     C_R   0.500612 0.499058 0.953628 0.022001
C4    C     C_R   0.499394 0.500936 0.046372 0.021990
C5    C     C_R   0.589566 0.493262 0.907801 0.043084
C6    C     C_R   0.410442 0.506729 0.092200 0.043108
C7    C     C_R   0.324855 0.509217 0.951655 -0.244351
C8    C     C_R   0.675151 0.490776 0.048347 -0.244344
C9    C     C_R   0.322184 0.511402 0.044618 0.257020
C10   C     C_R   0.677825 0.488586 0.955382 0.257041
C11   C     C_R   0.788145 0.571206 0.449482 0.279689
C12   C     C_R   0.211856 0.428789 0.550512 0.279687
C13   C     C_R   0.801208 0.428718 0.550365 0.286235
C14   C     C_R   0.198792 0.571286 0.449639 0.286231
C15   C     C_R   0.904006 0.425072 0.546871 -0.000912
C16   C     C_R   0.095994 0.574929 0.453131 -0.000910
C17   C     C_R   0.948442 0.499996 0.499995 0.032630
C18   C     C_R   0.051559 0.500002 0.500004 0.032629
C19   C     C_R   0.890263 0.574914 0.453102 -0.002127
C20   C     C_R   0.109738 0.425082 0.546894 -0.002126
C21   C     C_R   0.963972 0.348374 0.590319 -0.196974
C22   C     C_R   0.036028 0.651628 0.409685 -0.196976
C23   C     C_R   0.515772 0.317364 0.500413 0.821115
C24   C     C_R   0.484228 0.682636 0.499587 0.821115
C25   C     C_R   0.063848 0.348352 0.590292 -0.197449
C26   C     C_R   0.936152 0.651644 0.409703 -0.197448
C27   C     C_1   0.474583 0.785580 0.499746 -0.199493
C28   C     C_1   0.525417 0.214420 0.500254 -0.199495
C29   C     C_2   0.459082 0.976740 0.500629 0.210158
C30   C     C_2   0.540916 0.023259 0.499372 0.210151
C31   C     C_1   0.533057 0.127701 0.499911 -0.024013
C32   C     C_1   0.466942 0.872298 0.500089 -0.024001
C33   C     C_R   0.587924 0.493921 0.814875 -0.237733
C34   C     C_R   0.412080 0.506069 0.185124 -0.237722
C35   C     C_R   0.500404 0.498401 0.768237 -0.070718
C36   C     C_R   0.499598 0.501597 0.231763 -0.070731
C37   C     C_R   0.413221 0.502401 0.814305 -0.223956
C38   C     C_R   0.586781 0.497603 0.185696 -0.223951
C39   C     C_R   0.412651 0.503242 0.906535 0.068762
C40   C     C_R   0.587354 0.496756 0.093465 0.068755
Cu1   Cu    Cu3+1 0.597420 0.500010 0.499990 0.933879
Cu2   Cu    Cu3+1 0.402580 0.499990 0.500010 0.933875
H1    H     H_    0.654626 0.491745 0.778077 0.175549
H2    H     H_    0.345375 0.508240 0.221920 0.175573
H3    H     H_    0.345390 0.505760 0.778349 0.157975
H4    H     H_    0.654612 0.494250 0.221650 0.157975
H5    H     H_    0.258611 0.513819 0.913399 0.152162
H6    H     H_    0.741394 0.486175 0.086603 0.152163
H7    H     H_    0.935124 0.286416 0.624816 0.148918
H8    H     H_    0.064875 0.713590 0.375196 0.148918
H9    H     H_    0.104062 0.286335 0.624728 0.150813
H10   H     H_    0.895938 0.713657 0.375262 0.150812
N1    N     N_R   0.743820 0.499960 0.499930 -0.181491
N2    N     N_R   0.256180 0.500040 0.500070 -0.181493
O1    O     O_R   0.582280 0.500030 0.370250 -0.592070
O2    O     O_R   0.417720 0.499970 0.629750 -0.592071
O3    O     O_R   0.417740 0.500020 0.370270 -0.590992
O4    O     O_R   0.582260 0.499980 0.629730 -0.590990
O5    O     O_R   0.593900 0.362160 0.500010 -0.574330
O6    O     O_R   0.406100 0.637840 0.499990 -0.574329
O7    O     O_R   0.429360 0.362150 0.500030 -0.574721
O8    O     O_R   0.570640 0.637850 0.499970 -0.574721
N3    N     N_2   0.634516 0.970521 0.495895 -0.433740
H11   H     H_    0.641430 0.901524 0.527098 0.255081
C41   C     C_3   0.719049 0.022555 0.504852 -0.670435
H12   H     H_    0.785061 0.972673 0.497507 0.219058
H13   H     H_    0.720501 0.051445 0.571435 0.224206
H14   H     H_    0.719442 0.082846 0.452031 0.241970
N4    N     N_2   0.365481 0.029478 0.504106 -0.433741
H15   H     H_    0.358569 0.098481 0.472917 0.255079
C42   C     C_3   0.280949 0.977448 0.495129 -0.670446
H16   H     H_    0.214936 0.027328 0.502474 0.219059
H17   H     H_    0.280548 0.917147 0.547941 0.241969
H18   H     H_    0.279506 0.948569 0.428540 0.224207
N5    N     N_2   0.232471 0.520677 0.091041 -0.428933
H19   H     H_    0.223635 0.579441 0.128968 0.242834
C43   C     C_3   0.144815 0.497908 0.048860 -0.697767
H20   H     H_    0.086887 0.494156 0.099190 0.229682
H21   H     H_    0.156063 0.426304 0.020574 0.237511
H22   H     H_    0.121026 0.555375 0.996076 0.218106
N6    N     N_2   0.767541 0.479309 0.908961 -0.428906
H23   H     H_    0.776357 0.420572 0.871000 0.242829
C44   C     C_3   0.855212 0.502002 0.951168 -0.697786
H24   H     H_    0.913146 0.505770 0.900845 0.229675
H25   H     H_    0.878978 0.444489 0.003916 0.218114
H26   H     H_    0.844000 0.573582 0.979502 0.237497
C45   C     C_3   0.731949 0.646707 0.386881 -0.783396
H27   H     H_    0.657682 0.634622 0.373250 0.270642
H28   H     H_    0.731817 0.719148 0.413247 0.209099
H29   H     H_    0.765776 0.648342 0.320188 0.184087
C46   C     C_3   0.268054 0.353279 0.613102 -0.783379
H30   H     H_    0.342314 0.365377 0.626751 0.270633
H31   H     H_    0.234220 0.351614 0.679793 0.184073
H32   H     H_    0.268206 0.280846 0.586716 0.209112
C47   C     C_3   0.758750 0.353162 0.612714 -0.793725
H33   H     H_    0.772102 0.280729 0.586390 0.204135
H34   H     H_    0.792580 0.351609 0.679585 0.182251
H35   H     H_    0.682178 0.365205 0.625812 0.270855
C48   C     C_3   0.241251 0.646851 0.387301 -0.793712
H36   H     H_    0.227920 0.719275 0.413647 0.204153
H37   H     H_    0.317817 0.634795 0.374186 0.270848
H38   H     H_    0.207407 0.648437 0.320433 0.182238

loop_
_geom_bond_atom_site_label_1
_geom_bond_atom_site_label_2
_ccdc_geom_bond_type
C2    C35   S    
C45   H27   S    
N3    C41   S    
Cu1   Cu2   S    
C12   C46   S    
C47   H33   S    
C24   C27   S    
C6    C9    A    
C21   H7    S    
N6    H23   S    
C47   H35   S    
C14   C48   S    
C43   H20   S    
C23   O5    A    
C11   C19   A    
C13   C47   S    
C44   H24   S    
C35   C37   A    
Cu1   O4    S    
C29   C32   S    
C26   H10   S    
C30   C31   S    
C33   C35   A    
C20   C25   A    
C18   C20   A    
C7    C9    A    
N4    C42   S    
C19   C26   A    
Cu1   O1    S    
Cu2   O2    S    
C4    C40   A    
C11   C45   S    
C41   H13   S    
C5    C33   A    
C16   C22   A    
C13   N1    A    
C11   N1    A    
C22   H8    S    
C3    C39   A    
C30   N3    S    
Cu1   O8    S    
Cu2   O3    S    
C5    C10   A    
N6    C44   S    
C29   N4    S    
C43   H21   S    
C33   H1    S    
C34   H2    S    
Cu1   O5    S    
C4    C6    A    
Cu2   O6    S    
C46   H30   S    
C42   H17   S    
C6    C34   A    
C7    H5    S    
N5    H19   S    
C8    H6    S    
C29   C30   D    
C1    O3    A    
C46   H31   S    
C48   H36   S    
C23   O7    A    
C24   O6    A    
C41   H14   S    
C12   C20   A    
C47   H34   S    
C17   C18   A    
C23   C28   S    
N5    C43   S    
Cu2   O7    S    
Cu1   N1    S    
C16   C18   A    
C44   H25   S    
C13   C15   A    
C14   C16   A    
C37   H3    S    
C3    C4    A    
C43   H22   S    
C15   C17   A    
C21   C25   A    
C24   O8    A    
C14   N2    A    
C27   C32   T    
C28   C31   T    
C3    C5    A    
C42   H18   S    
C2    O4    A    
C8    C40   A    
C10   N6    S    
C25   H9    S    
C44   H26   S    
C36   C38   A    
C1    O1    A    
C42   H16   S    
C37   C39   A    
C2    O2    A    
Cu2   N2    S    
C46   H32   S    
C38   C40   A    
C17   C19   A    
C34   C36   A    
N4    H15   S    
C38   H4    S    
N3    H11   S    
C15   C21   A    
C48   H38   S    
C8    C10   A    
C41   H12   S    
C22   C26   A    
C45   H29   S    
C45   H28   S    
C7    C39   A    
C9    N5    S    
C48   H37   S    
C12   N2    A    
C1    C36   S    
