data_mof_unit_23445.cif
_audit_creation_date              2012-10-26T20:53:59-0400
_audit_creation_method            fapswitch 2.2
_symmetry_space_group_name_H-M    P1
_symmetry_Int_Tables_number       1
_space_group_crystal_system       triclinic
_cell_length_a                    17.795588
_cell_length_b                    16.418488
_cell_length_c                    10.628932
_cell_angle_alpha                 90.247903
_cell_angle_beta                  90.349732
_cell_angle_gamma                 89.92956
_cell_volume                      3105.43655526

loop_
_atom_site_label
_atom_site_type_symbol
_atom_type_description
_atom_site_fract_x
_atom_site_fract_y
_atom_site_fract_z
_atom_type_partial_charge
C1    C     C_R   0.355062 0.499863 0.501622 0.575661
C2    C     C_R   0.454784 0.257358 0.417778 0.018124
C3    C     C_R   0.463895 0.742579 0.406538 0.029938
C4    C     C_R   0.544833 0.257163 0.582029 0.033431
C5    C     C_R   0.499708 0.872929 0.500436 0.050339
C6    C     C_R   0.499309 0.127063 0.499783 0.031674
C7    C     C_1   0.499568 0.962744 0.500437 0.097686
C8    C     C_1   0.499412 0.037301 0.500194 0.089003
C9    C     C_R   0.499924 0.499804 0.258776 0.541475
C10   C     C_R   0.500058 0.500217 0.741230 0.542838
C11   C     C_3   0.438509 0.539156 0.041661 -0.126219
C12   C     C_R   0.644944 0.499789 0.498037 0.574730
C13   C     C_3   0.561454 0.461019 0.958386 -0.129988
C14   C     C_3   0.500596 0.577655 0.960127 -0.115801
C15   C     C_3   0.499373 0.422518 0.039892 -0.112009
C16   C     C_3   0.437939 0.462295 0.957022 -0.120793
C17   C     C_3   0.562016 0.537866 0.043012 -0.132266
C18   C     C_3   0.500025 0.500712 0.877818 0.051183
C19   C     C_3   0.499938 0.499428 0.122202 0.047082
C20   C     C_R   0.848993 0.568746 0.490601 0.206960
C21   C     C_R   0.154526 0.420881 0.502982 0.210974
C22   C     C_R   0.150851 0.568864 0.504314 0.207161
C23   C     C_1   0.966423 0.491828 0.497201 0.076184
C24   C     C_R   0.845727 0.420851 0.496337 0.210921
C25   C     C_R   0.770238 0.571544 0.500162 0.194515
C26   C     C_R   0.233092 0.423254 0.515041 0.188566
C27   C     C_R   0.229633 0.571493 0.495586 0.195119
C28   C     C_R   0.767102 0.422982 0.485252 0.188130
C29   C     C_R   0.728266 0.498362 0.494588 -0.077391
C30   C     C_R   0.271751 0.498493 0.504124 -0.076725
C31   C     C_R   0.886180 0.493702 0.495018 -0.053634
C32   C     C_R   0.113873 0.493737 0.501807 -0.053578
C33   C     C_3   0.891499 0.665820 0.357815 0.011914
C34   C     C_1   0.033640 0.491825 0.499247 0.076459
C35   C     C_3   0.940483 0.741260 0.347193 -0.384387
C36   C     C_3   0.122846 0.312669 0.380157 0.012585
C37   C     C_3   0.075466 0.235796 0.372786 -0.384550
C38   C     C_3   0.107825 0.668756 0.633095 0.012121
C39   C     C_3   0.058573 0.744339 0.640592 -0.384356
C40   C     C_3   0.878658 0.314674 0.621190 0.013275
C41   C     C_3   0.925600 0.237418 0.629041 -0.384230
C42   C     C_3   0.742209 0.681193 0.625053 0.018819
C43   C     C_3   0.742539 0.773510 0.613651 -0.356467
C44   C     C_3   0.273498 0.336030 0.665605 0.017207
C45   C     C_R   0.535478 0.829654 0.598217 0.187221
C46   C     C_3   0.318130 0.258733 0.690950 -0.365202
C47   C     C_3   0.257992 0.677996 0.366181 0.017047
C48   C     C_3   0.255999 0.770505 0.373556 -0.354840
C49   C     C_3   0.726263 0.333225 0.337598 0.020639
C50   C     C_3   0.686101 0.252698 0.315704 -0.369479
C51   C     C_3   0.567675 0.839561 0.810573 -0.022093
C52   C     C_3   0.586906 0.903952 0.908842 -0.360982
C53   C     C_3   0.334603 0.160254 0.321091 -0.010589
C54   C     C_3   0.281417 0.094919 0.271779 -0.365319
C55   C     C_3   0.432581 0.839154 0.190185 -0.019105
C56   C     C_R   0.451760 0.170659 0.417439 0.192819
C57   C     C_3   0.412282 0.903389 0.093053 -0.358652
C58   C     C_3   0.666161 0.129957 0.622086 -0.008908
C59   C     C_3   0.715082 0.078782 0.708975 -0.371563
C60   C     C_R   0.464015 0.829241 0.402572 0.187581
C61   C     C_R   0.546705 0.171114 0.582033 0.184210
C62   C     C_R   0.535865 0.742938 0.593791 0.027956
Cu1   Cu    Cu3+1 0.500000 0.580420 0.500000 0.951341
Cu2   Cu    Cu3+1 0.500000 0.419580 0.500000 0.937168
H1    H     H_    0.387259 0.431416 0.918521 0.093570
H2    H     H_    0.580066 0.290737 0.647295 0.154424
H3    H     H_    0.833984 0.681742 0.324052 0.163240
H4    H     H_    0.915552 0.617627 0.295668 0.116843
H5    H     H_    0.999433 0.726228 0.372766 0.193007
H6    H     H_    0.939162 0.763940 0.248936 0.084007
H7    H     H_    0.919466 0.789915 0.410858 0.144469
H8    H     H_    0.182075 0.295714 0.359200 0.158166
H9    H     H_    0.101927 0.355657 0.306856 0.114318
H10   H     H_    0.015214 0.251276 0.385231 0.183499
H11   H     H_    0.082642 0.206352 0.279368 0.082521
H12   H     H_    0.612719 0.568683 0.081538 0.102660
H13   H     H_    0.093248 0.192363 0.447098 0.150956
H14   H     H_    0.165225 0.685471 0.666518 0.164486
H15   H     H_    0.083819 0.621898 0.696941 0.116810
H16   H     H_    0.999711 0.728691 0.615377 0.193151
H17   H     H_    0.059669 0.769151 0.737935 0.084432
H18   H     H_    0.079522 0.791615 0.575164 0.144737
H19   H     H_    0.819561 0.298683 0.644296 0.160095
H20   H     H_    0.900609 0.358615 0.692763 0.114779
H21   H     H_    0.985834 0.252095 0.614950 0.183306
H22   H     H_    0.918993 0.209354 0.723192 0.083948
H23   H     H_    0.388321 0.571090 0.079180 0.088257
H24   H     H_    0.906952 0.193140 0.556002 0.149879
H25   H     H_    0.794750 0.663210 0.675757 0.136106
H26   H     H_    0.693710 0.662368 0.683388 0.116395
H27   H     H_    0.692491 0.794322 0.560003 0.184872
H28   H     H_    0.742005 0.801846 0.708692 0.095604
H29   H     H_    0.793858 0.793419 0.563476 0.155904
H30   H     H_    0.215700 0.327360 0.702921 0.150657
H31   H     H_    0.301282 0.387101 0.717336 0.114799
H32   H     H_    0.376736 0.266063 0.658061 0.176179
H33   H     H_    0.319200 0.246254 0.793539 0.087804
H34   H     H_    0.611694 0.429134 0.921001 0.100695
H35   H     H_    0.291771 0.206261 0.641505 0.145008
H36   H     H_    0.206244 0.657915 0.314913 0.134812
H37   H     H_    0.307343 0.658648 0.309922 0.113889
H38   H     H_    0.305280 0.793427 0.427287 0.188430
H39   H     H_    0.256764 0.796582 0.277355 0.094604
H40   H     H_    0.203968 0.790684 0.421783 0.157647
H41   H     H_    0.783909 0.327748 0.297997 0.148130
H42   H     H_    0.694882 0.381639 0.286042 0.122645
H43   H     H_    0.627643 0.256428 0.350784 0.168669
H44   H     H_    0.684438 0.238546 0.213476 0.090676
H45   H     H_    0.501168 0.641201 0.924756 0.099950
H46   H     H_    0.716380 0.203035 0.365285 0.137154
H47   H     H_    0.608344 0.788616 0.821608 0.110517
H48   H     H_    0.509505 0.817580 0.828956 0.119443
H49   H     H_    0.547554 0.956249 0.900643 0.175823
H50   H     H_    0.582319 0.877610 0.004504 0.086046
H51   H     H_    0.645281 0.925887 0.895140 0.150740
H52   H     H_    0.334877 0.211066 0.252316 0.122440
H53   H     H_    0.312417 0.182361 0.413003 0.145801
H54   H     H_    0.279987 0.042877 0.338157 0.170149
H55   H     H_    0.223857 0.120455 0.262090 0.081478
H56   H     H_    0.498882 0.359011 0.075364 0.119643
H57   H     H_    0.300483 0.072831 0.178341 0.156601
H58   H     H_    0.393083 0.787321 0.177663 0.110799
H59   H     H_    0.491282 0.818547 0.172030 0.120381
H60   H     H_    0.450784 0.956313 0.102151 0.174844
H61   H     H_    0.417254 0.877307 0.996913 0.085376
H62   H     H_    0.353567 0.924354 0.107305 0.154706
H63   H     H_    0.689453 0.192889 0.620223 0.146505
H64   H     H_    0.668936 0.102684 0.525958 0.126131
H65   H     H_    0.694494 0.014949 0.709831 0.184958
H66   H     H_    0.774054 0.079286 0.675387 0.084271
H67   H     H_    0.565320 0.708381 0.664672 0.117607
H68   H     H_    0.713494 0.103939 0.806086 0.150853
H69   H     H_    0.421092 0.292071 0.352256 0.140189
H70   H     H_    0.434339 0.707816 0.335649 0.120281
N1    N     N_R   0.500000 0.701220 0.500000 -0.259767
N2    N     N_R   0.500000 0.298780 0.500000 -0.284622
O1    O     O_R   0.391260 0.567930 0.500000 -0.457563
O2    O     O_3   0.116941 0.347101 0.501785 -0.544044
O3    O     O_3   0.109617 0.640363 0.507521 -0.549826
O4    O     O_3   0.883521 0.347115 0.498598 -0.543856
O5    O     O_3   0.734690 0.646499 0.503487 -0.529909
O6    O     O_3   0.271553 0.351085 0.534801 -0.542152
O7    O     O_3   0.265006 0.646330 0.489368 -0.529275
O8    O     O_3   0.728851 0.350434 0.467965 -0.541343
O9    O     O_3   0.574157 0.874207 0.689653 -0.570298
O10   O     O_3   0.407535 0.126744 0.332765 -0.555382
O11   O     O_3   0.424890 0.873335 0.311666 -0.563552
O12   O     O_R   0.608740 0.432070 0.500000 -0.462675
O13   O     O_3   0.591743 0.130181 0.667277 -0.558684
O14   O     O_R   0.608740 0.567930 0.500000 -0.457981
O15   O     O_R   0.391260 0.432070 0.500000 -0.462190
O16   O     O_R   0.499980 0.567900 0.316850 -0.517431
O17   O     O_R   0.500020 0.432100 0.683150 -0.512941
O18   O     O_R   0.500020 0.567900 0.683150 -0.520826
O19   O     O_R   0.499980 0.432100 0.316850 -0.518272
O20   O     O_3   0.890019 0.640159 0.484434 -0.550112

loop_
_geom_bond_atom_site_label_1
_geom_bond_atom_site_label_2
_ccdc_geom_bond_type
C14   H45   S    
C37   H10   S    
Cu2   N2    S    
C9    O16   A    
C58   H64   S    
C51   H48   S    
C47   H37   S    
C12   C29   S    
C14   C18   S    
C40   H19   S    
C46   H35   S    
C10   O18   A    
C33   O20   S    
C7    C8    T    
C59   H66   S    
C53   C54   S    
C24   O4    S    
C15   C19   S    
C41   H22   S    
Cu2   O19   S    
C11   C19   S    
C22   C32   A    
C13   C18   S    
C45   O9    S    
C6    C61   A    
C28   C29   A    
C57   H61   S    
C38   C39   S    
C11   C14   S    
C53   H53   S    
C20   C25   A    
C51   O9    S    
C15   C16   S    
C48   H40   S    
C49   O8    S    
C47   O7    S    
C45   C62   A    
C50   H46   S    
C15   H56   S    
C13   H34   S    
C40   H20   S    
C53   O10   S    
C43   H29   S    
C9    C19   S    
C59   H65   S    
C35   H6    S    
C11   H23   S    
Cu1   O18   S    
C17   H12   S    
C27   O7    S    
C38   O3    S    
C1    O15   A    
C28   O8    S    
C60   O11   S    
C53   H52   S    
C4    N2    A    
C3    C60   A    
C37   H11   S    
C55   H58   S    
C35   H7    S    
C58   H63   S    
C54   H55   S    
Cu2   O12   S    
C27   C30   A    
C50   H44   S    
Cu1   O1    S    
C14   C17   S    
C36   O2    S    
C21   O2    S    
C10   O17   A    
C21   C26   A    
C44   C46   S    
C25   C29   A    
C21   C32   A    
C55   H59   S    
C59   H68   S    
C2    H69   S    
Cu2   O15   S    
C51   C52   S    
C12   O14   A    
C39   H17   S    
C57   H62   S    
C5    C7    S    
C17   C19   S    
C49   H41   S    
C38   H14   S    
C23   C31   S    
C58   C59   S    
C52   H49   S    
C48   H39   S    
C5    C45   A    
C4    C61   A    
C43   H27   S    
C47   H36   S    
C42   H26   S    
C32   C34   S    
C62   N1    A    
Cu1   O14   S    
C11   C16   S    
C55   O11   S    
C47   C48   S    
C23   C34   T    
C48   H38   S    
C42   O5    S    
C35   H5    S    
Cu2   O17   S    
C16   C18   S    
C40   C41   S    
C46   H33   S    
C26   C30   A    
C22   C27   A    
C13   C15   S    
C50   H43   S    
C42   C43   S    
C54   H54   S    
C1    O1    A    
C33   H3    S    
C52   H51   S    
C41   H24   S    
C36   C37   S    
C51   H47   S    
C20   O20   S    
C5    C60   A    
C62   H67   S    
C54   H57   S    
C25   O5    S    
C24   C28   A    
C39   H18   S    
C6    C56   A    
C6    C8    S    
C58   O13   S    
C49   H42   S    
C52   H50   S    
C41   H21   S    
C43   H28   S    
C13   C17   S    
C3    H70   S    
C39   H16   S    
C42   H25   S    
C55   C57   S    
C24   C31   A    
C44   H31   S    
C2    C56   A    
C57   H60   S    
C4    H2    S    
C12   O12   A    
C37   H13   S    
C10   C18   S    
C22   O3    S    
C1    C30   S    
C33   C35   S    
C40   O4    S    
C3    N1    A    
C56   O10   S    
C2    N2    A    
Cu1   O16   S    
C44   H30   S    
C36   H9    S    
Cu1   Cu2   S    
C46   H32   S    
C9    O19   A    
C44   O6    S    
C49   C50   S    
C38   H15   S    
C16   H1    S    
C26   O6    S    
C61   O13   S    
C36   H8    S    
C33   H4    S    
Cu1   N1    S    
C20   C31   A    
