data_mof_unit_64475.cif
_audit_creation_date              2012-10-26T19:19:36-0400
_audit_creation_method            fapswitch 2.2
_symmetry_space_group_name_H-M    P1
_symmetry_Int_Tables_number       1
_space_group_crystal_system       triclinic
_cell_length_a                    15.888794
_cell_length_b                    10.870315
_cell_length_c                    9.772103
_cell_angle_alpha                 92.053346
_cell_angle_beta                  90.303922
_cell_angle_gamma                 90.196639
_cell_volume                      1686.6819101

loop_
_atom_site_label
_atom_site_type_symbol
_atom_type_description
_atom_site_fract_x
_atom_site_fract_y
_atom_site_fract_z
_atom_type_partial_charge
Br1   Br    Br    0.910448 0.273112 0.652837 -0.285943
Br2   Br    Br    0.892548 0.737766 0.363320 -0.309535
Br3   Br    Br    0.672245 0.142985 0.452822 -0.281027
Br4   Br    Br    0.566932 0.259920 0.115814 -0.297641
Br5   Br    Br    0.097651 0.456093 0.192548 -0.339666
Br6   Br    Br    0.887140 0.286890 0.300181 -0.231116
Br7   Br    Br    0.094808 0.730192 0.339760 -0.251924
C1    C     C_R   0.498623 0.265816 0.497167 0.596542
C2    C     C_2   0.515497 0.866466 0.515393 -0.092367
C3    C     C_2   0.562048 0.067643 0.454837 0.148930
C4    C     C_R   0.340498 0.499839 0.499736 0.556357
C5    C     C_2   0.492725 0.133964 0.485896 0.052564
C6    C     C_2   0.476013 0.410943 0.924982 0.223625
C7    C     C_2   0.506526 0.404733 0.068892 0.284972
C8    C     C_R   0.505155 0.734329 0.502873 0.556322
C9    C     C_R   0.659498 0.500043 0.500200 0.569081
C10   C     C_3   0.049569 0.444098 0.627725 -0.254078
C11   C     C_3   0.048669 0.418105 0.369755 0.231347
C12   C     C_3   0.952072 0.439913 0.626032 0.018176
C13   C     C_3   0.950748 0.434263 0.361379 0.094138
C14   C     C_1   0.748984 0.500025 0.500286 0.104002
C15   C     C_3   0.083295 0.501280 0.494381 -0.034457
C16   C     C_3   0.916761 0.500347 0.494951 -0.045666
C17   C     C_3   0.949887 0.636092 0.497950 0.005872
C18   C     C_3   0.049009 0.638160 0.491996 0.219862
C19   C     C_1   0.824435 0.500053 0.498503 0.073205
C20   C     C_1   0.175543 0.500382 0.497242 0.048114
C21   C     C_1   0.250998 0.499947 0.498832 0.076101
C22   C     C_2   0.556603 0.934662 0.425791 0.105937
Cu1   Cu    Cu3+1 0.500020 0.500020 0.638630 1.107847
Cu2   Cu    Cu3+1 0.499980 0.499980 0.361370 1.110003
H1    H     H_    0.071345 0.497620 0.720101 0.161826
H2    H     H_    0.929439 0.493864 0.717554 0.160494
H3    H     H_    0.492524 0.910113 0.609906 0.130086
H4    H     H_    0.075891 0.351206 0.642462 0.205243
H5    H     H_    0.464033 0.570316 0.116738 0.220862
H6    H     H_    0.937430 0.496485 0.276304 0.197213
H7    H     H_    0.929766 0.679796 0.596990 0.161060
I1    I     I_    0.623740 0.860509 0.253666 -0.051991
I2    I     I_    0.366330 0.067649 0.467278 -0.206389
I3    I     I_    0.384658 0.278195 0.860786 -0.144859
I4    I     I_    0.592210 0.625091 0.913794 -0.109078
I5    I     I_    0.089395 0.227162 0.386974 -0.017179
I6    I     I_    0.095222 0.749778 0.665910 -0.145090
N1    N     N_2   0.499090 0.498660 0.846910 -0.180700
N2    N     N_2   0.499070 0.498630 0.153040 -0.328203
O1    O     O_R   0.500010 0.321960 0.617040 -0.480445
O2    O     O_R   0.499990 0.321920 0.382900 -0.453393
O3    O     O_R   0.379450 0.500030 0.617120 -0.490118
O4    O     O_R   0.379420 0.499980 0.382980 -0.487379
O5    O     O_R   0.500010 0.678080 0.617100 -0.484571
O6    O     O_R   0.499990 0.678040 0.382960 -0.481548
O7    O     O_R   0.620580 0.500020 0.617020 -0.479009
O8    O     O_R   0.620550 0.499970 0.382880 -0.456410

loop_
_geom_bond_atom_site_label_1
_geom_bond_atom_site_label_2
_ccdc_geom_bond_type
C5    I2    S    
C17   H7    S    
C16   C17   S    
C1    O2    A    
H5    N2    S    
C9    C14   S    
C4    O3    A    
C8    O5    A    
Br6   C13   S    
Cu1   N1    S    
C12   C16   S    
C10   C15   S    
Br7   C18   S    
C13   C16   S    
C2    C22   D    
Cu2   O6    S    
C1    C5    S    
C22   I1    S    
C6    I3    S    
C2    C8    S    
C1    O1    A    
C7    N2    D    
C4    O4    A    
C8    O6    A    
C6    N1    D    
C13   H6    S    
C3    C22   S    
Cu1   Cu2   S    
C3    C5    D    
C4    C21   S    
Br5   C11   S    
C14   C19   T    
C18   I6    S    
C10   C12   S    
Cu1   O5    S    
C11   C13   S    
Cu2   O2    S    
Cu2   O8    S    
Br4   C7    S    
C2    H3    S    
Cu1   O7    S    
C9    O8    A    
Br1   C12   S    
Cu2   O4    S    
Cu1   O3    S    
Cu1   O1    S    
C15   C20   S    
C17   C18   S    
Cu2   N2    S    
C12   H2    S    
C16   C19   S    
C11   I5    S    
C20   C21   T    
Br3   C3    S    
C10   H1    S    
C9    O7    A    
Br2   C17   S    
C10   H4    S    
C6    C7    S    
C11   C15   S    
C15   C18   S    
I4    N1    S    
