data_mof_unit_16584.cif
_audit_creation_date              2012-12-10T19:44:56-0500
_audit_creation_method            fapswitch 2.2
_symmetry_space_group_name_H-M    P1
_symmetry_Int_Tables_number       1
_space_group_crystal_system       triclinic
_cell_length_a                    15.029029
_cell_length_b                    10.896927
_cell_length_c                    13.844998
_cell_angle_alpha                 90.750609
_cell_angle_beta                  90.113639
_cell_angle_gamma                 89.881897
_cell_volume                      2267.19480786

loop_
_atom_site_label
_atom_site_type_symbol
_atom_type_description
_atom_site_fract_x
_atom_site_fract_y
_atom_site_fract_z
_atom_type_partial_charge
C1    C     C_R   0.506166 0.261987 0.499644 0.837052
C2    C     C_R   0.510331 0.737118 0.500557 0.814843
C3    C     C_R   0.046572 0.277233 0.523439 0.445532
C4    C     C_R   0.953743 0.724291 0.475026 0.446792
C5    C     C_R   0.303943 0.091365 0.265628 0.203192
C6    C     C_R   0.611256 0.802575 0.827249 0.213337
C7    C     C_R   0.362124 0.075359 0.344553 0.357008
C8    C     C_R   0.612237 0.832964 0.728344 0.465958
C9    C     C_R   0.453785 0.097791 0.333679 -0.115557
C10   C     C_R   0.535671 0.881933 0.685071 -0.114943
C11   C     C_R   0.487042 0.140799 0.244721 0.282526
C12   C     C_R   0.453743 0.882849 0.735575 0.209546
C13   C     C_R   0.430771 0.142306 0.163358 0.385788
C14   C     C_R   0.450776 0.841910 0.831358 0.301154
C15   C     C_R   0.339677 0.115410 0.173027 0.155438
C16   C     C_R   0.529704 0.807427 0.879145 0.159109
C17   C     C_R   0.538081 0.933688 0.412795 0.408196
C18   C     C_R   0.554052 0.067561 0.584052 0.415302
C19   C     C_R   0.531499 0.870356 0.501033 -0.239587
C20   C     C_R   0.524103 0.128065 0.499244 -0.248065
C21   C     C_R   0.542880 0.939073 0.588355 -0.024904
C22   C     C_R   0.513878 0.057917 0.413023 -0.048275
C23   C     C_R   0.329525 0.500226 0.499884 0.774208
C24   C     C_R   0.670609 0.499596 0.499915 0.793119
C25   C     C_R   0.578554 0.509969 0.795760 0.511613
C26   C     C_R   0.424175 0.530343 0.205115 0.478398
C27   C     C_R   0.423440 0.474346 0.794123 0.512186
C28   C     C_R   0.575905 0.472397 0.205571 0.630388
C29   C     C_R   0.419934 0.488600 0.896955 -0.182125
C30   C     C_R   0.579001 0.489714 0.103943 -0.121160
C31   C     C_R   0.500173 0.493441 0.949034 0.008025
C32   C     C_R   0.498920 0.495628 0.051870 -0.031982
C33   C     C_R   0.581711 0.493372 0.898212 -0.145598
C34   C     C_R   0.418288 0.507406 0.103329 -0.163702
C35   C     C_R   0.338264 0.493936 0.948242 0.362401
C36   C     C_R   0.660090 0.499565 0.054499 0.329122
C37   C     C_R   0.336448 0.503878 0.050753 0.395200
C38   C     C_R   0.662888 0.486929 0.952757 0.254719
C39   C     C_R   0.812427 0.614179 0.495856 0.432620
C40   C     C_R   0.187843 0.387150 0.502618 0.428688
C41   C     C_R   0.766919 0.501145 0.499187 -0.263857
C42   C     C_R   0.233425 0.499928 0.499285 -0.236563
C43   C     C_R   0.813369 0.388967 0.500524 0.396392
C44   C     C_R   0.187477 0.612409 0.494578 0.390071
C45   C     C_R   0.906280 0.389950 0.511821 -0.031237
C46   C     C_R   0.094247 0.611569 0.485379 -0.017638
C47   C     C_R   0.953264 0.501477 0.500244 -0.149768
C48   C     C_R   0.047228 0.500207 0.498355 -0.150155
C49   C     C_R   0.906255 0.614119 0.490667 -0.009269
C50   C     C_R   0.094113 0.387438 0.508092 -0.007050
C51   C     C_R   0.953441 0.280177 0.530602 0.333801
C52   C     C_R   0.046783 0.721200 0.466663 0.336076
Cu1   Cu    Cu3+1 0.500010 0.499980 0.597420 1.070079
Cu2   Cu    Cu3+1 0.499990 0.500020 0.402580 1.043496
N1    N     N_R   0.499960 0.499900 0.743810 -0.232540
N2    N     N_R   0.500040 0.500100 0.256190 -0.281402
O1    O     O_R   0.500000 0.319630 0.582270 -0.487298
O2    O     O_R   0.500000 0.680370 0.417730 -0.547670
O3    O     O_R   0.499990 0.319660 0.417730 -0.610669
O4    O     O_R   0.500010 0.680340 0.582270 -0.601658
O5    O     O_R   0.370260 0.499960 0.582280 -0.514024
O6    O     O_R   0.629740 0.500040 0.417720 -0.502614
O7    O     O_R   0.370250 0.499990 0.417740 -0.569243
O8    O     O_R   0.629750 0.500010 0.582260 -0.543399
O9    O     O_3   0.767404 0.725385 0.494673 -0.581560
H1    H     H_    0.702875 0.714549 0.504018 0.340093
O10   O     O_3   0.233043 0.276015 0.503167 -0.611606
H2    H     H_    0.295510 0.285713 0.482599 0.325127
S1    S     S_3+6 0.579115 0.864336 0.303538 0.055372
O11   O     O_2   0.636288 0.953145 0.249990 -0.198027
O12   O     O_2   0.635385 0.753468 0.324108 -0.244283
O13   O     O_3   0.492528 0.824157 0.233011 -0.532418
H3    H     H_    0.518829 0.774642 0.179785 0.383162
S2    S     S_3+6 0.603424 0.149321 0.684156 0.048619
O14   O     O_2   0.653500 0.258821 0.648829 -0.248859
O15   O     O_2   0.530841 0.191735 0.751422 -0.329186
O16   O     O_3   0.677138 0.064782 0.745931 -0.458728
H4    H     H_    0.655650 0.065247 0.813537 0.364972
O17   O     O_3   0.652625 0.553607 0.751309 -0.669112
H5    H     H_    0.687681 0.480344 0.733111 0.406809
O18   O     O_3   0.357656 0.597207 0.248758 -0.605339
H6    H     H_    0.385626 0.651202 0.297817 0.380577
O19   O     O_3   0.352387 0.424878 0.745061 -0.638124
H7    H     H_    0.330828 0.354121 0.782638 0.342305
O20   O     O_3   0.647398 0.422844 0.253675 -0.638632
H8    H     H_    0.681003 0.368656 0.208689 0.380344
O21   O     O_3   0.259939 0.499982 0.897277 -0.629011
H9    H     H_    0.233921 0.416606 0.900392 0.366856
O22   O     O_3   0.735495 0.528676 0.107217 -0.644958
H10   H     H_    0.774999 0.578733 0.066227 0.380431
S3    S     S_3+6 0.230980 0.506240 0.111098 0.137055
O23   O     O_2   0.207515 0.637266 0.135013 -0.138735
O24   O     O_2   0.157564 0.452589 0.050187 -0.207111
O25   O     O_3   0.235785 0.426487 0.214212 -0.479624
H11   H     H_    0.259962 0.345351 0.194906 0.327847
S4    S     S_3+6 0.766517 0.436993 0.902218 0.069901
O26   O     O_2   0.810557 0.540960 0.850586 -0.197977
O27   O     O_2   0.828930 0.392370 0.979267 -0.191456
O28   O     O_3   0.749549 0.319387 0.824944 -0.468463
H12   H     H_    0.720093 0.256321 0.864458 0.382338
O29   O     O_3   0.770666 0.277364 0.486542 -0.642585
H13   H     H_    0.710895 0.289275 0.458188 0.332264
O30   O     O_3   0.231073 0.724377 0.502279 -0.667159
H14   H     H_    0.293540 0.714006 0.523051 0.326952
O31   O     O_3   0.910779 0.175681 0.561429 -0.644911
H15   H     H_    0.865641 0.201305 0.609871 0.407563
O32   O     O_3   0.088991 0.825490 0.434845 -0.657608
H16   H     H_    0.131414 0.799670 0.383637 0.390997
O33   O     O_3   0.092603 0.168398 0.536670 -0.593535
H17   H     H_    0.051580 0.097494 0.533827 0.387287
O34   O     O_3   0.907715 0.833217 0.462232 -0.581126
H18   H     H_    0.948793 0.904069 0.465011 0.387321
O35   O     O_3   0.287675 0.110290 0.090755 -0.597392
H19   H     H_    0.237549 0.053243 0.101467 0.382778
O36   O     O_3   0.525394 0.779694 0.975885 -0.671933
H20   H     H_    0.577949 0.815660 0.008752 0.363130
O37   O     O_3   0.213457 0.080565 0.280544 -0.663924
H21   H     H_    0.181682 0.130394 0.232038 0.361286
O38   O     O_3   0.691043 0.770245 0.870002 -0.647971
H22   H     H_    0.680365 0.729824 0.932174 0.342380
O39   O     O_3   0.332012 0.036602 0.433552 -0.689571
H23   H     H_    0.267756 0.017346 0.430071 0.428936
O40   O     O_3   0.688892 0.824972 0.673418 -0.623812
H24   H     H_    0.736483 0.783234 0.710048 0.413708
O41   O     O_3   0.574426 0.176764 0.234053 -0.621821
H25   H     H_    0.603244 0.183943 0.298229 0.361514
O42   O     O_3   0.375330 0.924342 0.694503 -0.613283
H26   H     H_    0.383264 0.937960 0.624625 0.359524
S5    S     S_3+6 0.476251 0.158174 0.046091 0.101062
O43   O     O_2   0.562282 0.227859 0.047718 -0.272977
O44   O     O_2   0.493855 0.031911 0.006445 -0.218418
O45   O     O_3   0.403165 0.228842 0.973547 -0.519300
H27   H     H_    0.422930 0.208560 0.907064 0.392809
S6    S     S_3+6 0.346532 0.843181 0.891826 0.183880
O46   O     O_2   0.351752 0.787139 0.990256 -0.192373
O47   O     O_2   0.315805 0.973947 0.902072 -0.128199
O48   O     O_3   0.271143 0.766129 0.824752 -0.394617
H28   H     H_    0.305215 0.700592 0.791043 0.351105

loop_
_geom_bond_atom_site_label_1
_geom_bond_atom_site_label_2
_ccdc_geom_bond_type
C36   O22   S    
O21   H9    S    
C17   S1    S    
O29   H13   S    
C27   C29   A    
C34   C37   A    
C41   C43   A    
Cu1   N1    S    
O34   H18   S    
S6    O48   S    
O18   H6    S    
C28   N2    A    
O40   H24   S    
C39   C41   A    
C12   O42   S    
O16   H4    S    
C23   C42   S    
S2    O15   D    
C4    C52   A    
C11   O41   S    
O35   H19   S    
C1    O3    A    
O20   H8    S    
Cu1   O8    S    
C2    O4    A    
C9    C22   S    
Cu2   O7    S    
C45   C51   A    
O36   H20   S    
C18   C21   A    
S4    O28   S    
C46   C52   A    
S1    O12   D    
C35   O21   S    
C44   O30   S    
O19   H7    S    
C52   O32   S    
C44   C46   A    
O45   H27   S    
C40   O10   S    
S4    O27   D    
O32   H16   S    
C15   O35   S    
C27   O19   S    
C18   C20   A    
S5    O45   S    
C48   C50   A    
O48   H28   S    
C18   S2    S    
C24   C41   S    
C39   O9    S    
O25   H11   S    
C42   C44   A    
C7    O39   S    
Cu1   O4    S    
C26   C34   A    
C46   C48   A    
Cu2   O3    S    
C45   C47   A    
C10   C21   S    
C23   O7    A    
Cu2   N2    S    
S2    O14   D    
C37   S3    S    
O10   H2    S    
C47   C49   A    
S3    O23   D    
C5    C7    A    
C3    C51   A    
S6    O47   D    
C14   S6    S    
Cu1   Cu2   S    
S2    O16   S    
C5    O37   S    
C32   C34   A    
S1    O13   S    
C43   O29   S    
C1    O1    A    
S3    O24   D    
C43   C45   A    
C47   C48   A    
C51   O31   S    
S4    O26   D    
C31   C33   A    
C9    C11   A    
O39   H23   S    
C10   C12   A    
C8    C10   A    
C39   C49   A    
C4    O34   S    
C12   C14   A    
C26   O18   S    
C13   C15   A    
O41   H25   S    
C14   C16   A    
Cu1   O5    S    
O42   H26   S    
C16   O36   S    
C6    O38   S    
C28   O20   S    
C35   C37   A    
C3    C50   A    
S5    O43   D    
Cu2   O2    S    
C7    C9    A    
C1    C20   S    
C24   O6    A    
C19   C21   A    
C2    C19   S    
C25   O17   S    
C31   C32   A    
C25   N1    A    
C20   C22   A    
O13   H3    S    
Cu1   O1    S    
C6    C8    A    
O38   H22   S    
C2    O2    A    
C8    O40   S    
S6    O46   D    
Cu2   O6    S    
O31   H15   S    
C29   C35   A    
C17   C22   A    
O28   H12   S    
C30   C36   A    
C4    C49   A    
C36   C38   A    
C28   C30   A    
C29   C31   A    
O33   H17   S    
S3    O25   S    
C30   C32   A    
C11   C13   A    
C3    O33   S    
C40   C50   A    
C40   C42   A    
C17   C19   A    
C27   N1    A    
S1    O11   D    
C5    C15   A    
C26   N2    A    
C6    C16   A    
O17   H5    S    
C23   O5    A    
C24   O8    A    
O9    H1    S    
C38   S4    S    
O30   H14   S    
C13   S5    S    
C33   C38   A    
O22   H10   S    
O37   H21   S    
C25   C33   A    
S5    O44   D    
