data_mof_unit_6151.cif
_audit_creation_date              2012-10-26T19:46:52-0400
_audit_creation_method            fapswitch 2.2
_symmetry_space_group_name_H-M    P1
_symmetry_Int_Tables_number       1
_space_group_crystal_system       triclinic
_cell_length_a                    10.859521
_cell_length_b                    9.736867
_cell_length_c                    15.954334
_cell_angle_alpha                 87.228739
_cell_angle_beta                  98.187343
_cell_angle_gamma                 89.587738
_cell_volume                      1667.6586932

loop_
_atom_site_label
_atom_site_type_symbol
_atom_type_description
_atom_site_fract_x
_atom_site_fract_y
_atom_site_fract_z
_atom_type_partial_charge
C1    C     C_R   0.870791 0.497067 0.492557 -0.044275
C2    C     C_R   0.519644 0.372955 0.964642 0.176802
C3    C     C_R   0.495469 0.494646 0.913055 -0.048694
C4    C     C_R   0.534427 0.509564 0.089614 -0.041356
C5    C     C_1   0.494503 0.490819 0.822769 0.142408
C6    C     C_1   0.523695 0.512390 0.178878 0.134123
C7    C     C_1   0.512494 0.509774 0.253024 0.103708
C8    C     C_1   0.495505 0.491480 0.747506 0.107144
C9    C     C_R   0.417149 0.075735 0.445416 0.313257
C10   C     C_R   0.580748 0.918502 0.561105 0.281518
C11   C     C_R   0.582113 0.070121 0.560698 0.277185
C12   C     C_R   0.129083 0.504268 0.498302 -0.062166
C13   C     C_R   0.437401 0.934827 0.434908 0.309612
C14   C     C_R   0.075937 0.407759 0.550286 0.198453
C15   C     C_R   0.924225 0.599467 0.443676 0.252434
C16   C     C_R   0.947093 0.393188 0.538539 0.242743
C17   C     C_R   0.052502 0.599102 0.443772 0.263994
C18   C     C_R   0.262937 0.501179 0.498684 0.512233
C19   C     C_R   0.736884 0.499293 0.497075 0.585734
C20   C     C_R   0.501433 0.502964 0.341525 0.528574
C21   C     C_R   0.496866 0.497217 0.658146 0.560140
C22   C     C_R   0.485663 0.622930 0.949172 0.199141
C23   C     C_R   0.548293 0.382078 0.053639 0.196840
C24   C     C_R   0.515932 0.631380 0.037972 0.178354
Cu1   Cu    Cu3+1 0.500000 0.640660 0.500000 1.164087
Cu2   Cu    Cu3+1 0.500000 0.359340 0.500000 1.184613
H1    H     H_    0.095432 0.169279 0.451734 0.371091
H2    H     H_    0.771806 0.655136 0.370132 0.342647
H3    H     H_    0.958619 0.206911 0.590589 0.404300
H4    H     H_    0.171138 0.645213 0.367900 0.358617
H5    H     H_    0.795657 0.637289 0.689437 0.362762
H6    H     H_    0.742375 0.335383 0.710401 0.361319
H7    H     H_    0.335195 0.760738 0.239065 0.383922
H8    H     H_    0.694670 0.857732 0.182712 0.413377
H9    H     H_    0.384671 0.127267 0.810250 0.406172
H10   H     H_    0.310356 0.800136 0.760516 0.378451
H11   H     H_    0.712499 0.210525 0.247754 0.381498
H12   H     H_    0.224226 0.374182 0.633371 0.347513
N1    N     N_R   0.500000 0.852070 0.500000 -0.310183
N2    N     N_R   0.500000 0.147930 0.500000 -0.311561
O1    O     O_R   0.319640 0.618740 0.499990 -0.497177
O2    O     O_2   0.198583 0.039489 0.343239 -0.176154
O3    O     O_3   0.182971 0.161290 0.479593 -0.482479
O4    O     O_2   0.823457 0.869858 0.609842 -0.229569
O5    O     O_2   0.690570 0.867031 0.723166 -0.165696
O6    O     O_3   0.718412 0.653280 0.648776 -0.498780
O7    O     O_2   0.593137 0.128970 0.723371 -0.219433
O8    O     O_2   0.795296 0.083752 0.681591 -0.157426
O9    O     O_3   0.709951 0.315943 0.650940 -0.447931
O10   O     O_2   0.408825 0.022036 0.270278 -0.163451
O11   O     O_2   0.563900 0.844049 0.316558 -0.258257
O12   O     O_R   0.680360 0.381260 0.500010 -0.419170
O13   O     O_3   0.327527 0.778581 0.298660 -0.485915
O14   O     O_2   0.607812 0.885902 0.023129 -0.121795
O15   O     O_2   0.437249 0.855636 0.107873 -0.168375
O16   O     O_3   0.658661 0.766020 0.171747 -0.485759
O17   O     O_2   0.622095 0.155683 0.901797 -0.140780
O18   O     O_2   0.443226 0.111956 0.977061 -0.115898
O19   O     O_3   0.400577 0.223341 0.826079 -0.506059
O20   O     O_2   0.348453 0.858006 0.932245 -0.153439
O21   O     O_2   0.526240 0.848152 0.853263 -0.174352
O22   O     O_3   0.325968 0.716779 0.798813 -0.526919
O23   O     O_R   0.680360 0.618740 0.500010 -0.440470
O24   O     O_2   0.508257 0.154453 0.145647 -0.159966
O25   O     O_2   0.694709 0.152929 0.075337 -0.152564
O26   O     O_3   0.699646 0.293115 0.208587 -0.522880
O27   O     O_3   0.146419 0.326105 0.613035 -0.618759
O28   O     O_3   0.853989 0.694735 0.389654 -0.558891
O29   O     O_3   0.894257 0.279004 0.572286 -0.583446
O30   O     O_3   0.098836 0.689721 0.387288 -0.543330
O31   O     O_R   0.319640 0.381260 0.499990 -0.425089
O32   O     O_R   0.499970 0.618750 0.380310 -0.452880
O33   O     O_R   0.500030 0.381250 0.619690 -0.447477
O34   O     O_R   0.500030 0.618750 0.619690 -0.443251
O35   O     O_R   0.499970 0.381250 0.380310 -0.473805
O36   O     O_2   0.274211 0.274311 0.350239 -0.246670
S1    S     S_3+6 0.266879 0.140915 0.400410 0.121474
S2    S     S_3+6 0.701298 0.824435 0.635200 0.135775
S3    S     S_3+6 0.670580 0.150132 0.653127 0.158620
S4    S     S_3+6 0.436695 0.895289 0.327464 0.131096
S5    S     S_3+6 0.552790 0.791048 0.084433 0.141595
S6    S     S_3+6 0.498431 0.210487 0.917996 0.148477
S7    S     S_3+6 0.422160 0.767597 0.883503 0.104266
S8    S     S_3+6 0.612844 0.239595 0.120582 0.116457

loop_
_geom_bond_atom_site_label_1
_geom_bond_atom_site_label_2
_ccdc_geom_bond_type
O22   S7    S    
H8    O16   S    
O19   S6    S    
O7    S3    D    
C10   S2    S    
O16   S5    S    
O8    S3    D    
H2    O28   S    
O18   S6    D    
C4    C24   A    
O20   S7    D    
C21   O33   A    
Cu2   O33   S    
H9    O19   S    
Cu1   O34   S    
Cu1   O23   S    
C9    C13   A    
O11   S4    D    
O24   S8    D    
C19   O12   A    
C19   O23   A    
H5    O6    S    
C12   C17   A    
C14   O27   S    
O5    S2    D    
C1    C15   A    
O15   S5    D    
C13   S4    S    
C17   O30   S    
Cu2   O31   S    
H10   O22   S    
H4    O30   S    
Cu2   O35   S    
H3    O29   S    
H7    O13   S    
C1    C19   S    
C23   S8    S    
O13   S4    S    
O36   S1    D    
C4    C6    S    
O21   S7    D    
C18   O1    A    
Cu1   O1    S    
O6    S2    S    
C4    C23   A    
O25   S8    D    
Cu1   Cu2   S    
C21   O34   A    
C9    N2    A    
O9    S3    S    
C20   O35   A    
C10   N1    A    
C24   S5    S    
Cu2   O12   S    
H11   O26   S    
C8    C21   S    
C1    C16   A    
C9    S1    S    
C11   S3    S    
C12   C14   A    
C14   C16   A    
C2    S6    S    
C18   O31   A    
C15   C17   A    
C16   O29   S    
C3    C5    S    
O10   S4    D    
C5    C8    T    
C6    C7    T    
O3    S1    S    
C22   S7    S    
O4    S2    D    
C2    C3    A    
Cu1   N1    S    
Cu2   N2    S    
Cu1   O32   S    
C15   O28   S    
C22   C24   A    
C11   N2    A    
H6    O9    S    
C13   N1    A    
C10   C11   A    
O26   S8    S    
H1    O3    S    
H12   O27   S    
O2    S1    D    
C7    C20   S    
C12   C18   S    
C2    C23   A    
O17   S6    D    
C20   O32   A    
C3    C22   A    
O14   S5    D    
