data_mof_unit_45502.cif
_audit_creation_date              2012-12-10T19:46:54-0500
_audit_creation_method            fapswitch 2.2
_symmetry_space_group_name_H-M    P1
_symmetry_Int_Tables_number       1
_space_group_crystal_system       triclinic
_cell_length_a                    10.899015
_cell_length_b                    10.92142
_cell_length_c                    13.107661
_cell_angle_alpha                 90.823195
_cell_angle_beta                  90.613897
_cell_angle_gamma                 91.261261
_cell_volume                      1559.60658307

loop_
_atom_site_label
_atom_site_type_symbol
_atom_type_description
_atom_site_fract_x
_atom_site_fract_y
_atom_site_fract_z
_atom_type_partial_charge
C1    C     C_R   0.497977 0.259256 0.498812 0.808623
C2    C     C_R   0.505023 0.740529 0.501170 0.817787
C3    C     C_R   0.873125 0.504408 0.503279 -0.116106
C4    C     C_R   0.127300 0.508357 0.498600 -0.112808
C5    C     C_R   0.940151 0.468442 0.590306 -0.007784
C6    C     C_R   0.060719 0.550963 0.413516 0.050949
C7    C     C_R   0.374589 0.175786 0.158649 -0.145407
C8    C     C_R   0.630243 0.838427 0.849057 -0.157511
C9    C     C_R   0.385143 0.137362 0.259541 -0.216886
C10   C     C_R   0.624452 0.877399 0.748117 -0.191544
C11   C     C_R   0.500410 0.111485 0.301521 0.110010
C12   C     C_R   0.510630 0.887021 0.698009 0.070386
C13   C     C_R   0.605895 0.121357 0.240111 0.297238
C14   C     C_R   0.401420 0.856822 0.750459 0.320432
C15   C     C_R   0.593969 0.159530 0.138617 -0.212211
C16   C     C_R   0.409013 0.816354 0.851508 -0.152362
C17   C     C_R   0.478849 0.186886 0.098320 -0.143706
C18   C     C_R   0.522739 0.808280 0.900710 -0.168851
C19   C     C_R   0.510514 0.931847 0.409349 -0.231397
C20   C     C_R   0.502763 0.067812 0.590676 -0.246291
C21   C     C_R   0.508532 0.872906 0.503174 -0.118389
C22   C     C_R   0.501199 0.126776 0.496734 -0.114177
C23   C     C_R   0.259619 0.503925 0.499354 0.820327
C24   C     C_R   0.740621 0.500671 0.500947 0.820110
C25   C     C_R   0.507277 0.941580 0.595256 0.007675
C26   C     C_R   0.506278 0.058058 0.404616 0.046264
C27   C     C_1   0.499939 0.500024 0.173546 0.162882
C28   C     C_1   0.499656 0.499888 0.826449 0.160241
C29   C     C_1   0.499699 0.499999 0.050688 -0.106117
C30   C     C_1   0.499509 0.499856 0.949317 -0.105169
C31   C     C_R   0.242119 0.760364 0.237448 -0.158642
C32   C     C_R   0.775289 0.277814 0.790150 -0.148446
C33   C     C_R   0.180868 0.717664 0.324106 0.176949
C34   C     C_R   0.830788 0.310563 0.697941 0.191475
C35   C     C_R   0.120925 0.600523 0.320724 0.080372
C36   C     C_R   0.881798 0.430592 0.687431 0.050730
C37   C     C_R   0.120155 0.530709 0.228142 0.168851
C38   C     C_R   0.879253 0.514063 0.771618 0.183518
C39   C     C_R   0.181903 0.577247 0.142931 -0.182764
C40   C     C_R   0.824370 0.477222 0.862981 -0.153881
C41   C     C_R   0.242868 0.690492 0.147930 -0.192846
C42   C     C_R   0.772868 0.360207 0.871994 -0.215570
C43   C     C_R   0.933588 0.546724 0.416654 -0.251750
C44   C     C_R   0.066819 0.469108 0.586076 -0.218212
Cu1   Cu    Cu3+1 0.499990 0.499990 0.592680 0.971258
Cu2   Cu    Cu3+1 0.500010 0.500010 0.407320 0.970337
H1    H     H_    0.290328 0.724712 0.081685 0.141432
H2    H     H_    0.730271 0.333404 0.942730 0.146356
H3    H     H_    0.674028 0.167448 0.090737 0.123801
H4    H     H_    0.326441 0.791335 0.892163 0.131523
H5    H     H_    0.512120 0.879181 0.338546 0.156220
H6    H     H_    0.500833 0.120290 0.661561 0.159033
H7    H     H_    0.288672 0.849070 0.238754 0.133455
H8    H     H_    0.733834 0.187521 0.798780 0.138329
H9    H     H_    0.183337 0.525509 0.071838 0.135707
H10   H     H_    0.820696 0.540044 0.927543 0.139480
H11   H     H_    0.881596 0.578712 0.351621 0.149442
H12   H     H_    0.118391 0.437805 0.651593 0.158560
H13   H     H_    0.470369 0.215803 0.019964 0.142797
H14   H     H_    0.527514 0.778381 0.978997 0.143135
H15   H     H_    0.285306 0.195386 0.126696 0.143607
H16   H     H_    0.718053 0.832847 0.887784 0.129087
H17   H     H_    0.303261 0.124637 0.304584 0.135077
H18   H     H_    0.708531 0.902381 0.709478 0.137672
N1    N     N_1   0.500030 0.500030 0.268070 -0.134675
N2    N     N_1   0.499970 0.499970 0.731930 -0.136018
O1    O     O_R   0.499980 0.319630 0.578260 -0.586033
O2    O     O_R   0.500020 0.680370 0.421740 -0.583210
O3    O     O_R   0.500000 0.319650 0.421740 -0.570960
O4    O     O_R   0.500000 0.680350 0.578260 -0.573876
O5    O     O_R   0.319630 0.500000 0.578260 -0.583363
O6    O     O_R   0.680370 0.500000 0.421740 -0.585966
O7    O     O_R   0.319650 0.500020 0.421740 -0.572285
O8    O     O_R   0.680350 0.499980 0.578260 -0.574970
N3    N     N_2   0.722956 0.088820 0.278741 -0.443445
H19   H     H_    0.778504 0.049987 0.224450 0.241450
C45   C     C_3   0.786012 0.186302 0.335100 -0.680648
H20   H     H_    0.873768 0.152305 0.366442 0.226987
H21   H     H_    0.729122 0.218174 0.399351 0.231419
H22   H     H_    0.806028 0.264515 0.284260 0.225050
N4    N     N_2   0.284120 0.864871 0.702525 -0.437886
H23   H     H_    0.284573 0.858667 0.624127 0.252425
C46   C     C_3   0.210445 0.964374 0.739249 -0.749103
H24   H     H_    0.253230 0.053735 0.718362 0.231944
H25   H     H_    0.200071 0.960626 0.823353 0.231224
H26   H     H_    0.117670 0.956380 0.703846 0.240197
C47   C     C_3   0.179328 0.800280 0.417730 -0.422642
C48   C     C_3   0.059109 0.868294 0.425220 -0.840267
H27   H     H_    0.064347 0.931670 0.492041 0.242615
H28   H     H_    0.043615 0.922731 0.355469 0.251350
H29   H     H_    0.980639 0.803375 0.435419 0.258952
H30   H     H_    0.194399 0.747356 0.487933 0.192733
H31   H     H_    0.255276 0.869609 0.415036 0.199751
C49   C     C_3   0.832859 0.215524 0.612936 -0.412817
C50   C     C_3   0.917770 0.111231 0.638961 -0.876869
H32   H     H_    0.013909 0.146508 0.645963 0.256843
H33   H     H_    0.890583 0.067099 0.711320 0.246981
H34   H     H_    0.912008 0.040993 0.577079 0.248976
H35   H     H_    0.738597 0.178131 0.599518 0.208651
H36   H     H_    0.864073 0.254936 0.540203 0.200591
C51   C     C_3   0.053334 0.407763 0.216735 -0.416760
C52   C     C_3   0.109729 0.309460 0.283209 -0.835718
H37   H     H_    0.210955 0.321753 0.286872 0.271709
H38   H     H_    0.072740 0.313070 0.361597 0.253945
H39   H     H_    0.086549 0.217271 0.250679 0.228268
H40   H     H_    0.954955 0.417653 0.235021 0.195093
H41   H     H_    0.055988 0.374843 0.136111 0.193413
C53   C     C_3   0.932729 0.643117 0.766940 -0.414010
C54   C     C_3   0.052185 0.655098 0.828588 -0.835142
H42   H     H_    0.036791 0.631476 0.909656 0.239774
H43   H     H_    0.122408 0.593971 0.796210 0.259230
H44   H     H_    0.087498 0.750943 0.825972 0.262076
H45   H     H_    0.950638 0.672002 0.687583 0.220307
H46   H     H_    0.865496 0.708311 0.798066 0.192408

loop_
_geom_bond_atom_site_label_1
_geom_bond_atom_site_label_2
_ccdc_geom_bond_type
C51   H41   S    
C38   C40   A    
C47   C48   S    
C51   C52   S    
C27   C29   S    
C48   H28   S    
C50   H32   S    
N4    H23   S    
C50   H34   S    
C39   C41   A    
C45   H20   S    
C53   C54   S    
C3    C43   A    
C35   C37   A    
C16   H4    S    
C2    O2    A    
C54   H43   S    
Cu1   O5    S    
C20   C25   A    
C5    C36   S    
C6    C35   S    
C52   H39   S    
C7    C9    A    
C53   H46   S    
C19   C26   A    
C7    H15   S    
Cu2   O3    S    
C33   C35   A    
C39   H9    S    
C13   N3    S    
C44   H12   S    
C40   H10   S    
Cu1   O1    S    
C31   C33   A    
Cu2   O6    S    
C40   C42   A    
C1    C22   S    
C47   H30   S    
C3    C24   S    
C49   C50   S    
C23   O7    A    
C32   H8    S    
N4    C46   S    
C45   H21   S    
C37   C39   A    
C23   O5    A    
Cu2   N1    S    
C4    C6    A    
C54   H44   S    
C4    C23   S    
C4    C44   A    
C11   C26   S    
C7    C17   A    
Cu1   Cu2   S    
C8    C18   A    
Cu1   O8    S    
C32   C34   A    
C53   H45   S    
C28   N2    T    
N3    H19   S    
Cu2   O2    S    
C29   C30   T    
C27   N1    T    
N3    C45   S    
C46   H24   S    
C48   H29   S    
C49   H36   S    
C2    C21   S    
C41   H1    S    
C16   C18   A    
C42   H2    S    
C31   H7    S    
C52   H38   S    
C9    C11   A    
C10   C12   A    
C17   H13   S    
C18   H14   S    
C46   H25   S    
C5    C44   A    
C20   C22   A    
C6    C43   A    
C13   C15   A    
C14   C16   A    
C24   O6    A    
C45   H22   S    
C51   H40   S    
C15   C17   A    
C21   C25   A    
C31   C41   A    
C19   C21   A    
Cu1   O4    S    
C9    H17   S    
C10   H18   S    
C34   C49   S    
C12   C14   A    
C3    C5    A    
C50   H33   S    
C12   C25   S    
C28   C30   S    
C33   C47   S    
C20   H6    S    
C54   H42   S    
C37   C51   S    
C11   C13   A    
C24   O8    A    
C49   H35   S    
C47   H31   S    
C36   C38   A    
C1    O1    A    
C34   C36   A    
C15   H3    S    
C38   C53   S    
C52   H37   S    
C1    O3    A    
C43   H11   S    
C19   H5    S    
C46   H26   S    
C48   H27   S    
C8    C10   A    
C22   C26   A    
Cu1   N2    S    
C32   C42   A    
C14   N4    S    
C2    O4    A    
Cu2   O7    S    
C8    H16   S    
