data_mof_unit_44605.cif
_audit_creation_date              2012-12-11T14:33:44-0500
_audit_creation_method            fapswitch 2.2
_symmetry_space_group_name_H-M    P1
_symmetry_Int_Tables_number       1
_space_group_crystal_system       triclinic
_cell_length_a                    13.983167
_cell_length_b                    14.059191
_cell_length_c                    27.24715
_cell_angle_alpha                 89.610736
_cell_angle_beta                  89.975454
_cell_angle_gamma                 119.776965
_cell_volume                      4649.16621129

loop_
_atom_site_label
_atom_site_type_symbol
_atom_type_description
_atom_site_fract_x
_atom_site_fract_y
_atom_site_fract_z
_atom_type_partial_charge
C1    C     C_R   0.234232 0.786845 0.568566 0.536707
C2    C     C_1   0.682117 0.853102 0.865124 0.025792
C3    C     C_1   0.114500 0.883232 0.852364 0.007580
C4    C     C_1   0.179035 0.324982 0.867058 -0.022541
C5    C     C_1   0.600057 0.799643 0.663114 -0.020043
C6    C     C_1   0.180279 0.817150 0.656431 -0.024634
C7    C     C_1   0.191953 0.379149 0.661730 -0.029975
C8    C     C_1   0.583225 0.786313 0.619762 0.003952
C9    C     C_1   0.200875 0.804741 0.615130 0.000696
C10   C     C_1   0.198099 0.403063 0.618605 -0.004607
C11   C     C_R   0.065168 0.151091 0.095996 0.574411
C12   C     C_R   0.213301 0.448228 0.569643 0.537460
C13   C     C_R   0.777228 0.883557 0.087991 0.546636
C14   C     C_R   0.115850 0.893811 0.088345 0.560536
C15   C     C_R   0.110125 0.224996 0.952825 0.563680
C16   C     C_R   0.778878 0.886796 0.951378 0.548636
C17   C     C_R   0.091185 0.930278 0.943427 0.559934
C18   C     C_R   0.622179 0.896260 0.361441 -0.124235
C19   C     C_R   0.096990 0.734071 0.364260 -0.128291
C20   C     C_R   0.263521 0.359663 0.363455 -0.131994
C21   C     C_R   0.647359 0.910538 0.311559 0.021054
C22   C     C_R   0.079884 0.746505 0.314755 0.016490
C23   C     C_R   0.548575 0.762871 0.569918 0.537910
C24   C     C_R   0.240372 0.309720 0.317330 0.015536
C25   C     C_R   0.681560 0.927969 0.209746 0.022431
C26   C     C_R   0.059608 0.762208 0.212971 0.022224
C27   C     C_R   0.200079 0.228721 0.220850 0.020790
C28   C     C_R   0.232476 0.788831 0.432217 0.546251
C29   C     C_R   0.211888 0.445056 0.431496 0.547986
C30   C     C_R   0.555799 0.767412 0.432064 0.547844
C31   C     C_R   0.659346 0.002208 0.234150 -0.137966
C32   C     C_R   0.977827 0.672751 0.239357 -0.124448
C33   C     C_R   0.301556 0.259809 0.243291 -0.116906
C34   C     C_3   0.707012 0.774777 0.789393 -0.256051
C35   C     C_R   0.641757 0.993149 0.284772 -0.119302
C36   C     C_R   0.988920 0.663981 0.289874 -0.114399
C37   C     C_R   0.321628 0.300154 0.291159 -0.109511
C38   C     C_R   0.704669 0.938960 0.159396 -0.146606
C39   C     C_R   0.050126 0.772337 0.162317 -0.133935
C40   C     C_R   0.182314 0.196905 0.171519 -0.127863
C41   C     C_R   0.725116 0.862462 0.136058 0.000148
C42   C     C_R   0.133970 0.862151 0.136909 -0.002178
C43   C     C_R   0.083027 0.173728 0.148654 -0.003470
C44   C     C_R   0.656295 0.742855 0.364211 -0.114656
C45   C     C_3   0.243055 0.957456 0.782220 -0.240093
C46   C     C_R   0.260559 0.914432 0.363808 -0.114048
C47   C     C_R   0.077657 0.331037 0.368144 -0.115639
C48   C     C_R   0.676823 0.752120 0.314003 0.042405
C49   C     C_R   0.249564 0.925735 0.313754 0.044033
C50   C     C_R   0.053606 0.283995 0.321582 0.041145
C51   C     C_R   0.670647 0.835822 0.287429 0.034311
C52   C     C_R   0.159651 0.839770 0.288899 0.034413
C53   C     C_R   0.136163 0.274381 0.295805 0.034151
C54   C     C_R   0.696036 0.675114 0.289398 0.108763
C55   C     C_R   0.330712 0.017402 0.287537 0.110208
C56   C     C_3   0.116042 0.394377 0.797114 -0.238887
C57   C     C_R   0.950947 0.252140 0.299229 0.107589
C58   C     C_R   0.706665 0.681387 0.238397 -0.110300
C59   C     C_R   0.324469 0.018957 0.236449 -0.111796
C60   C     C_R   0.932901 0.213137 0.251065 -0.103621
C61   C     C_R   0.700583 0.764078 0.212254 -0.011950
C62   C     C_R   0.236222 0.933588 0.211875 -0.010003
C63   C     C_R   0.014857 0.205223 0.225139 -0.006380
C64   C     C_3   0.504823 0.767986 0.745541 -0.016049
C65   C     C_3   0.150151 0.733944 0.740503 -0.027217
C66   C     C_3   0.311074 0.428368 0.737049 -0.021215
C67   C     C_3   0.670110 0.744427 0.735243 -0.032012
C68   C     C_R   0.684457 0.842803 0.236513 0.054840
C69   C     C_R   0.151551 0.845311 0.237951 0.053444
C70   C     C_R   0.116436 0.234451 0.247540 0.051701
C71   C     C_R   0.714731 0.771234 0.162044 -0.123450
C72   C     C_R   0.229555 0.937991 0.161444 -0.131200
C73   C     C_R   0.998459 0.173804 0.176147 -0.127998
C74   C     C_R   0.619568 0.807896 0.386858 -0.016619
C75   C     C_R   0.191643 0.814891 0.387713 -0.016560
C76   C     C_R   0.183572 0.374202 0.388118 -0.016695
C77   C     C_3   0.692885 0.935243 0.729005 -0.210229
C78   C     C_3   0.262154 0.939091 0.727652 -0.027140
C79   C     C_3   0.056064 0.840578 0.712954 -0.201500
C80   C     C_3   0.137066 0.241927 0.731079 -0.164907
C81   C     C_3   0.696037 0.950856 0.785558 -0.013455
C82   C     C_3   0.035898 0.856230 0.767647 -0.011347
C83   C     C_3   0.149960 0.233021 0.787327 -0.007249
C84   C     C_1   0.720814 0.868120 0.905808 0.004278
C85   C     C_1   0.103398 0.903458 0.894130 0.000594
C86   C     C_1   0.152630 0.286569 0.907922 -0.020821
C87   C     C_3   0.616766 0.812569 0.716507 0.076861
C88   C     C_3   0.161426 0.831827 0.707920 0.082736
C89   C     C_3   0.122857 0.412794 0.740398 -0.021862
C90   C     C_3   0.190386 0.364104 0.715852 0.068069
C91   C     C_3   0.526010 0.767552 0.802620 0.010230
C92   C     C_3   0.134601 0.754084 0.795982 0.014649
C93   C     C_3   0.308876 0.428060 0.795116 0.015565
C94   C     C_3   0.652507 0.837855 0.812535 0.095738
C95   C     C_3   0.130319 0.862664 0.800874 0.102012
C96   C     C_3   0.189892 0.345731 0.813368 0.076967
Cr1   Cr    Cr6+3 0.164410 0.584450 0.499910 1.029526
Cr2   Cr    Cr6+3 0.415550 0.579960 0.499910 1.029013
Cr3   Cr    Cr6+3 0.420040 0.835590 0.499910 1.027909
Cr4   Cr    Cr6+3 0.155170 0.075460 0.019960 1.016292
Cr5   Cr    Cr6+3 0.924540 0.079710 0.019960 1.016768
Cr6   Cr    Cr6+3 0.920290 0.844830 0.019960 1.021772
H1    H     H_    0.451062 0.682213 0.734790 0.112120
H2    H     H_    0.711326 0.008542 0.139039 0.104809
H3    H     H_    0.976276 0.713808 0.143247 0.113378
H4    H     H_    0.246931 0.194373 0.150564 0.120619
H5    H     H_    0.655563 0.067108 0.214128 0.094674
H6    H     H_    0.906665 0.608637 0.220804 0.096066
H7    H     H_    0.366623 0.256198 0.223292 0.096532
H8    H     H_    0.664214 0.987628 0.710870 0.102265
H9    H     H_    0.983235 0.767132 0.698112 0.095386
H10   H     H_    0.175544 0.201150 0.710868 0.073804
H11   H     H_    0.641735 0.984844 0.794846 0.152357
H12   H     H_    0.229307 0.733468 0.737992 0.149987
H13   H     H_    0.956355 0.785026 0.779536 0.140639
H14   H     H_    0.213501 0.208266 0.792327 0.131282
H15   H     H_    0.682822 0.697948 0.810507 0.096186
H16   H     H_    0.310769 0.960386 0.804853 0.089833
H17   H     H_    0.144179 0.474299 0.815575 0.095160
H18   H     H_    0.475632 0.878575 0.824024 0.239304
H19   H     H_    0.376931 0.745722 0.826388 0.236086
H20   H     H_    0.966922 0.639009 0.801432 0.237355
H21   H     H_    0.052307 0.593385 0.819707 0.248130
H22   H     H_    0.384087 0.333517 0.807689 0.240347
H23   H     H_    0.345476 0.514042 0.724682 0.109374
H24   H     H_    0.470588 0.470079 0.806386 0.242213
H25   H     H_    0.595646 0.948053 0.379238 0.133937
H26   H     H_    0.041555 0.658266 0.383235 0.131595
H27   H     H_    0.345246 0.392093 0.378855 0.129081
H28   H     H_    0.623144 0.050254 0.302954 0.098996
H29   H     H_    0.927196 0.592178 0.309398 0.114092
H30   H     H_    0.401806 0.326752 0.307212 0.113165
H31   H     H_    0.728073 0.710267 0.143923 0.129061
H32   H     H_    0.295065 0.007100 0.141805 0.125065
H33   H     H_    0.920907 0.153277 0.158696 0.118029
H34   H     H_    0.500576 0.681685 0.813562 0.120822
H35   H     H_    0.720084 0.621818 0.219068 0.092799
H36   H     H_    0.388160 0.087395 0.215835 0.088642
H37   H     H_    0.856408 0.193358 0.233021 0.102803
H38   H     H_    0.726849 0.546784 0.292946 0.216987
H39   H     H_    0.620339 0.532064 0.326805 0.219474
H40   H     H_    0.466226 0.171954 0.288359 0.215882
H41   H     H_    0.473594 0.079393 0.324797 0.216191
H42   H     H_    0.794573 0.229996 0.304263 0.219881
H43   H     H_    0.894680 0.348189 0.326478 0.218343
H44   H     H_    0.426690 0.816847 0.695460 0.232906
H45   H     H_    0.209226 0.766097 0.816041 0.125760
H46   H     H_    0.492653 0.909575 0.739885 0.224767
H47   H     H_    0.086666 0.611113 0.688635 0.246874
H48   H     H_    0.988481 0.622134 0.719784 0.235679
H49   H     H_    0.390667 0.401670 0.679216 0.244295
H50   H     H_    0.353474 0.307487 0.724598 0.227864
H51   H     H_    0.657928 0.677641 0.384905 0.167755
H52   H     H_    0.330239 0.978467 0.383103 0.167237
H53   H     H_    0.015435 0.339881 0.387950 0.168730
H54   H     H_    0.776910 0.964375 0.714084 0.121478
H55   H     H_    0.063225 0.909040 0.689631 0.132855
H56   H     H_    0.327625 0.511277 0.806900 0.117546
H57   H     H_    0.048976 0.196171 0.720412 0.151205
H58   H     H_    0.859815 0.004975 0.790894 0.271060
H59   H     H_    0.828745 0.105271 0.782987 0.219762
H60   H     H_    0.093798 0.020677 0.757635 0.246513
H61   H     H_    0.959335 0.944016 0.751550 0.210032
H62   H     H_    0.999223 0.176728 0.822554 0.253271
H63   H     H_    0.066501 0.110963 0.838739 0.252883
H64   H     H_    0.605544 0.656105 0.734618 0.152986
H65   H     H_    0.335160 0.927857 0.726309 0.152248
H66   H     H_    0.168205 0.502870 0.733337 0.153624
H67   H     H_    0.797830 0.823979 0.792010 0.146826
H68   H     H_    0.791264 0.707718 0.718420 0.221474
H69   H     H_    0.823671 0.836373 0.702331 0.225460
H70   H     H_    0.364065 0.100053 0.707976 0.224714
H71   H     H_    0.230165 0.060091 0.702003 0.220324
H72   H     H_    0.976896 0.413031 0.732468 0.251345
H73   H     H_    0.961398 0.287796 0.730525 0.224532
H74   H     H_    0.248818 0.038465 0.787383 0.123221
H75   H     H_    0.029421 0.341690 0.809313 0.127849
N1    N     N_3   0.460345 0.800031 0.833042 -0.628921
N2    N     N_3   0.805879 0.031678 0.801649 -0.652274
N3    N     N_3   0.025056 0.953594 0.773012 -0.646230
N4    N     N_3   0.047593 0.145673 0.808817 -0.662786
N5    N     N_3   0.759935 0.755381 0.703546 -0.635737
N6    N     N_3   0.288220 0.035091 0.696755 -0.632928
N7    N     N_3   0.012608 0.368551 0.718828 -0.627756
N8    N     N_3   0.040021 0.660936 0.820094 -0.626363
N9    N     N_3   0.392780 0.408637 0.818113 -0.627087
N10   N     N_3   0.700763 0.588764 0.315963 -0.644199
N11   N     N_3   0.420568 0.106831 0.312619 -0.644005
N12   N     N_3   0.867394 0.264286 0.324575 -0.639844
N13   N     N_3   0.445150 0.825995 0.732908 -0.693324
N14   N     N_3   0.064591 0.626093 0.723188 -0.674689
N15   N     N_3   0.384362 0.390632 0.717297 -0.653005
O1    O     O_R   0.137150 0.468200 0.553200 -0.498782
O2    O     O_R   0.140110 0.470540 0.446010 -0.521498
O3    O     O_R   0.529460 0.669570 0.446010 -0.521297
O4    O     O_R   0.330430 0.859890 0.446010 -0.522555
O5    O     O_R   0.176710 0.690910 0.450560 -0.500920
O6    O     O_R   0.309090 0.485800 0.450560 -0.498898
O7    O     O_R   0.514200 0.823290 0.450560 -0.500234
O8    O     O_3   0.333333 0.666667 0.499990 -0.275212
O9    O     O_R   0.176750 0.985260 0.074180 -0.529800
O10   O     O_R   0.014740 0.191490 0.074180 -0.505516
O11   O     O_R   0.808510 0.823250 0.074180 -0.520169
O12   O     O_R   0.531800 0.668950 0.553200 -0.502533
O13   O     O_R   0.146100 0.172630 0.068980 -0.493050
O14   O     O_R   0.827370 0.973470 0.068980 -0.519572
O15   O     O_R   0.026530 0.853900 0.068980 -0.491276
O16   O     O_3   0.000000 0.000000 0.020040 -0.270693
O17   O     O_R   0.148270 0.170520 0.969620 -0.509449
O18   O     O_R   0.829480 0.977750 0.969620 -0.493035
O19   O     O_R   0.022250 0.851730 0.969620 -0.480112
O20   O     O_R   0.331050 0.862850 0.553200 -0.501893
O21   O     O_R   0.179100 0.982980 0.967000 -0.503780
O22   O     O_R   0.017020 0.196120 0.967000 -0.499185
O23   O     O_R   0.803880 0.820900 0.967000 -0.515702
O24   O     O_R   0.173970 0.688730 0.549930 -0.503506
O25   O     O_R   0.311270 0.485240 0.549930 -0.502390
O26   O     O_R   0.514760 0.826030 0.549930 -0.502429

loop_
_geom_bond_atom_site_label_1
_geom_bond_atom_site_label_2
_ccdc_geom_bond_type
C45   H16   S    
C25   C31   A    
C64   H1    S    
C14   O9    A    
C26   C32   A    
C2    C94   S    
C55   C59   A    
C65   C92   S    
C18   C21   A    
C65   H12   S    
Cr4   O17   S    
H69   N5    S    
C2    C84   T    
H70   N6    S    
C20   H27   S    
C6    C9    T    
C13   C41   S    
Cr4   O16   S    
C66   C90   S    
C29   C76   S    
C27   C33   A    
C48   C54   A    
C46   C49   A    
C20   C76   A    
C78   H65   S    
C60   C63   A    
C17   C85   S    
C44   H51   S    
C32   C36   A    
Cr2   O12   S    
C67   N5    S    
C47   C76   A    
Cr5   O10   S    
C15   O22   A    
C77   H54   S    
C30   C74   S    
Cr6   O19   S    
C4    C86   T    
H42   N12   S    
C29   O2    A    
C91   N1    S    
C19   H26   S    
C16   C84   S    
C8    C23   S    
C6    C88   S    
C83   N4    S    
C39   H3    S    
C78   N6    S    
C12   O1    A    
C7    C10   T    
Cr1   O1    S    
H18   N1    S    
C39   C42   A    
C79   C88   S    
C38   H2    S    
C52   C69   A    
H48   N14   S    
C4    C96   S    
C43   C73   A    
C40   C43   A    
C91   H34   S    
C73   H33   S    
C89   H66   S    
Cr1   O24   S    
C66   N15   S    
Cr3   O8    S    
C63   C70   A    
C25   C38   A    
C11   C43   S    
C45   C78   S    
H39   N10   S    
H59   N2    S    
Cr6   O15   S    
Cr5   O22   S    
C64   C87   S    
H60   N3    S    
C14   C42   S    
C93   N9    S    
C61   C71   A    
C58   C61   A    
C30   O7    A    
C23   O26   A    
C18   C74   A    
C14   O15   A    
H68   N5    S    
C1    O20   A    
H38   N10   S    
Cr1   O8    S    
C77   H8    S    
C25   C68   A    
C80   C83   S    
C17   O21   A    
C53   C70   A    
C46   C75   A    
C24   C37   A    
C47   C50   A    
C56   H75   S    
C48   C51   A    
H41   N11   S    
H46   N13   S    
C46   H52   S    
Cr4   O21   S    
H47   N14   S    
C50   C53   A    
C79   H55   S    
Cr2   O6    S    
C89   N7    S    
Cr1   O5    S    
H24   N9    S    
C19   C22   A    
C1    C9    S    
C81   N2    S    
C38   C41   A    
Cr3   O20   S    
C36   H29   S    
H72   N7    S    
C92   N8    S    
C80   H57   S    
C63   C73   A    
C59   H36   S    
C17   O19   A    
C24   C53   A    
C49   C55   A    
C7    C90   S    
Cr3   O4    S    
C92   C95   S    
C33   C37   A    
C13   O11   A    
C62   C69   A    
C11   O10   A    
Cr1   O2    S    
H21   N8    S    
C16   O23   A    
Cr6   O11   S    
H58   N2    S    
C57   N12   S    
C41   C71   A    
Cr5   O16   S    
C18   H25   S    
C79   C82   S    
C81   H11   S    
Cr4   O9    S    
C72   H32   S    
C30   O3    A    
Cr3   O26   S    
C77   C81   S    
C27   C40   A    
C49   C52   A    
C80   H10   S    
C1    O24   A    
C42   C72   A    
C71   H31   S    
C62   C72   A    
C55   N11   S    
C44   C74   A    
C27   C70   A    
C35   H28   S    
H71   N6    S    
C34   H67   S    
C10   C12   S    
C15   C86   S    
C58   H35   S    
H49   N15   S    
C93   C96   S    
C54   N10   S    
C66   C93   S    
C65   N14   S    
C56   H17   S    
C31   C35   A    
C3    C85   T    
C45   H74   S    
C33   H7    S    
Cr3   O7    S    
C45   C95   S    
C12   O25   A    
C21   C51   A    
H40   N11   S    
C67   H64   S    
C65   C88   S    
C40   H4    S    
C54   C58   A    
C78   C88   S    
C56   C96   S    
C56   C89   S    
C59   C62   A    
C82   C95   S    
H43   N12   S    
C50   C57   A    
C31   H5    S    
C83   H14   S    
C34   C94   S    
H20   N8    S    
C34   C67   S    
C82   H13   S    
C5    C8    T    
C64   N13   S    
Cr4   O13   S    
C37   H30   S    
H19   N1    S    
C21   C35   A    
Cr2   O8    S    
Cr5   O18   S    
C22   C36   A    
H62   N4    S    
C67   C87   S    
C28   O5    A    
C66   H23   S    
C79   H9    S    
C23   O12   A    
H63   N4    S    
C16   O18   A    
H50   N15   S    
C91   C94   S    
H22   N9    S    
C81   C94   S    
C61   C68   A    
C47   H53   S    
C34   H15   S    
C83   C96   S    
C19   C75   A    
C28   O4    A    
Cr2   O3    S    
C22   C52   A    
C51   C68   A    
C80   C90   S    
C93   H56   S    
C26   C39   A    
Cr5   O14   S    
C60   H37   S    
C5    C87   S    
Cr6   O23   S    
C57   C60   A    
C77   C87   S    
C15   O17   A    
C29   O6    A    
C32   H6    S    
Cr2   O25   S    
C82   N3    S    
H61   N3    S    
C26   C69   A    
C13   O14   A    
H44   N13   S    
C3    C95   S    
C11   O13   A    
C64   C91   S    
C89   C90   S    
C28   C75   S    
Cr6   O16   S    
C20   C24   A    
C44   C48   A    
H73   N7    S    
C92   H45   S    
