data_mof_unit_13487.cif
_audit_creation_date              2012-12-11T16:22:21-0500
_audit_creation_method            fapswitch 2.2
_symmetry_space_group_name_H-M    P1
_symmetry_Int_Tables_number       1
_space_group_crystal_system       triclinic
_cell_length_a                    19.662604
_cell_length_b                    6.916329
_cell_length_c                    17.770992
_cell_angle_alpha                 90.001453
_cell_angle_beta                  107.938385
_cell_angle_gamma                 90.13358
_cell_volume                      2299.24278031

loop_
_atom_site_label
_atom_site_type_symbol
_atom_type_description
_atom_site_fract_x
_atom_site_fract_y
_atom_site_fract_z
_atom_type_partial_charge
O1    O     O_R   0.561700 0.369960 0.440190 -0.518888
O2    O     O_R   0.061700 0.630040 0.940190 -0.513809
O3    O     O_R   0.413790 0.033680 0.407460 -0.519514
O4    O     O_R   0.913790 0.966320 0.907460 -0.517349
O5    O     O_R   0.438300 0.869760 0.559810 -0.508706
O6    O     O_R   0.938300 0.130240 0.059810 -0.519902
C1    C     C_R   0.388069 0.203104 0.383423 0.713264
C2    C     C_R   0.885173 0.797155 0.887416 0.711314
O7    O     O_R   0.559630 0.039830 0.430710 -0.555556
O8    O     O_R   0.059630 0.960170 0.930710 -0.544218
O9    O     O_R   0.585190 0.875950 0.583220 -0.520860
O10   O     O_R   0.085190 0.124050 0.083220 -0.517770
C3    C     C_R   0.579830 0.209698 0.413975 0.734611
C4    C     C_R   0.080024 0.790616 0.914285 0.778455
O11   O     O_R   0.414810 0.363770 0.416780 -0.546161
O12   O     O_R   0.914810 0.636230 0.916780 -0.548939
O13   O     O_3   0.508210 0.205480 0.550010 -0.362701
O14   O     O_3   0.008210 0.794520 0.050010 -0.369946
V1    V     V_3+5 0.498480 0.928140 0.490720 1.548573
V2    V     V_3+5 0.998480 0.071860 0.990720 1.571143
O15   O     O_R   0.586210 0.546600 0.592540 -0.558690
O16   O     O_R   0.086210 0.453400 0.092540 -0.560704
C5    C     C_R   0.614773 0.715579 0.613730 0.638902
C6    C     C_R   0.112661 0.284381 0.116890 0.640096
O17   O     O_R   0.440370 0.540460 0.569290 -0.525971
O18   O     O_R   0.940370 0.459540 0.069290 -0.540009
C7    C     C_R   0.418488 0.709404 0.584160 0.823523
C8    C     C_R   0.918947 0.290119 0.084678 0.782915
V3    V     V_3+5 0.501520 0.428910 0.509280 1.529440
V4    V     V_3+5 0.001520 0.571090 0.009280 1.530532
O19   O     O_3   0.491790 0.701440 0.449990 -0.366490
O20   O     O_3   0.991790 0.298560 0.949990 -0.354643
C9    C     C_R   0.273989 0.893546 0.669133 0.262439
C10   C     C_R   0.772156 0.114265 0.167276 0.238882
C11   C     C_R   0.319596 0.876291 0.621022 0.242176
C12   C     C_R   0.817542 0.132345 0.119115 0.227020
C13   C     C_R   0.369565 0.723221 0.633778 -0.293670
C14   C     C_R   0.872136 0.274130 0.136781 -0.270203
C15   C     C_R   0.371726 0.584340 0.692943 0.279355
C16   C     C_R   0.880584 0.399245 0.202801 0.269099
C17   C     C_R   0.323981 0.596279 0.737768 0.301162
C18   C     C_R   0.826634 0.402735 0.240787 0.353615
C19   C     C_R   0.273931 0.749099 0.724943 -0.168274
C20   C     C_R   0.773845 0.256040 0.224496 -0.078319
C21   C     C_R   0.170601 0.606378 0.765525 0.312514
C22   C     C_R   0.671321 0.394162 0.265184 0.335806
C23   C     C_R   0.125071 0.614916 0.813964 0.315033
C24   C     C_R   0.625830 0.387105 0.314181 0.214710
C25   C     C_R   0.126900 0.778442 0.862606 -0.147432
C26   C     C_R   0.626548 0.222306 0.361945 -0.105489
C27   C     C_R   0.174403 0.930075 0.862722 -0.261440
C28   C     C_R   0.674012 0.071023 0.362014 -0.273931
H1    H     H_    0.176825 0.056181 0.899630 0.163758
H2    H     H_    0.676087 0.944493 0.398571 0.154231
C29   C     C_R   0.221143 0.918639 0.817657 -0.124881
C30   C     C_R   0.721557 0.084114 0.317854 -0.181939
H3    H     H_    0.258755 0.035535 0.821217 0.181423
H4    H     H_    0.759190 0.967791 0.321392 0.177216
C31   C     C_R   0.220581 0.757828 0.769288 0.060219
C32   C     C_R   0.721447 0.245724 0.270056 0.134150
C33   C     C_2   0.713760 0.891312 0.712804 0.254557
C34   C     C_2   0.212417 0.108501 0.214887 0.264190
C35   C     C_2   0.687445 0.724529 0.673866 0.184649
C36   C     C_2   0.175370 0.275115 0.190869 0.182580
C37   C     C_2   0.789325 0.902598 0.767498 0.268220
C38   C     C_2   0.271233 0.098416 0.292645 0.264647
C39   C     C_2   0.811713 0.783778 0.830659 0.212337
C40   C     C_2   0.328596 0.217186 0.308077 0.201734
O21   O     O_3   0.227744 0.047550 0.661504 -0.616898
H5    H     H_    0.249585 0.162894 0.645088 0.319920
O22   O     O_3   0.723403 0.964834 0.157205 -0.618824
H6    H     H_    0.742741 0.849932 0.137521 0.332713
O23   O     O_3   0.731832 0.564463 0.686548 -0.641179
H7    H     H_    0.708215 0.459854 0.649656 0.294652
O24   O     O_3   0.195025 0.436557 0.238998 -0.650340
H8    H     H_    0.162223 0.544737 0.216736 0.292621
O25   O     O_3   0.835701 0.040322 0.754817 -0.649239
H9    H     H_    0.811097 0.109030 0.704906 0.298366
O26   O     O_3   0.267946 0.961747 0.348247 -0.647704
H10   H     H_    0.221473 0.893229 0.328393 0.293228
O27   O     O_3   0.763837 0.651074 0.844048 -0.648129
H11   H     H_    0.786390 0.585062 0.895137 0.289525
O28   O     O_3   0.332779 0.349885 0.251306 -0.636364
H12   H     H_    0.379530 0.417318 0.270114 0.295173
O29   O     O_3   0.313877 0.000971 0.558550 -0.613060
H13   H     H_    0.264222 0.049653 0.538577 0.303457
O30   O     O_3   0.808068 0.018217 0.052742 -0.637298
H14   H     H_    0.757475 0.976349 0.032692 0.297186
O31   O     O_3   0.417249 0.427271 0.704259 -0.533661
C41   C     C_3   0.484858 0.480926 0.756063 0.121774
H15   H     H_    0.480300 0.536747 0.813037 0.101714
H16   H     H_    0.510078 0.594203 0.728828 0.082872
C42   C     C_3   0.533224 0.303264 0.773326 -0.279999
H17   H     H_    0.508795 0.189336 0.800945 0.185411
H18   H     H_    0.538439 0.245413 0.717013 0.228398
C43   C     C_3   0.607398 0.352548 0.828848 -0.797118
H19   H     H_    0.633899 0.459896 0.800632 0.265185
H20   H     H_    0.640564 0.219735 0.842059 0.242035
H21   H     H_    0.603513 0.412444 0.885383 0.230765
O32   O     O_3   0.937229 0.529563 0.226769 -0.555593
C44   C     C_3   0.004438 0.432407 0.251746 0.114048
H22   H     H_    0.043558 0.523496 0.234207 0.141172
H23   H     H_    0.004728 0.288449 0.224050 0.071157
C45   C     C_3   0.031374 0.405575 0.341675 -0.377077
H24   H     H_    0.037729 0.548956 0.371249 0.198930
H25   H     H_    0.992118 0.317273 0.360309 0.192970
C46   C     C_3   0.103455 0.302607 0.368421 -0.771964
H26   H     H_    0.100595 0.162293 0.337133 0.226157
H27   H     H_    0.118696 0.274294 0.432990 0.235328
H28   H     H_    0.145367 0.394851 0.356904 0.261003
O33   O     O_3   0.324710 0.449473 0.791101 -0.538648
C47   C     C_3   0.355211 0.516959 0.869548 0.115831
H29   H     H_    0.312201 0.571231 0.892398 0.124525
H30   H     H_    0.395075 0.635499 0.874611 0.081495
C48   C     C_3   0.392458 0.348425 0.921526 -0.298705
H31   H     H_    0.352832 0.232427 0.919916 0.192284
H32   H     H_    0.434345 0.288417 0.898164 0.199239
C49   C     C_3   0.426974 0.412141 0.007080 -0.808302
H33   H     H_    0.468068 0.525086 0.010393 0.232664
H34   H     H_    0.453213 0.286325 0.043176 0.241463
H35   H     H_    0.385859 0.470190 0.032056 0.239416
O34   O     O_3   0.816528 0.564504 0.282581 -0.535588
C50   C     C_3   0.866294 0.576473 0.359185 0.116740
H36   H     H_    0.855059 0.713194 0.385892 0.131147
H37   H     H_    0.921146 0.592917 0.356790 0.148099
C51   C     C_3   0.859727 0.409876 0.413836 -0.403413
H38   H     H_    0.804477 0.405944 0.417891 0.210387
H39   H     H_    0.871227 0.269535 0.389936 0.179852
C52   C     C_3   0.912023 0.435926 0.496781 -0.770185
H40   H     H_    0.967888 0.438328 0.494618 0.233151
H41   H     H_    0.906169 0.313712 0.534853 0.243412
H42   H     H_    0.900891 0.572951 0.523374 0.236287
O35   O     O_3   0.163972 0.450451 0.714978 -0.628766
H43   H     H_    0.186011 0.481869 0.673387 0.308255
O36   O     O_3   0.666763 0.539941 0.210704 -0.618066
H44   H     H_    0.617666 0.592981 0.194277 0.302967
O37   O     O_3   0.076343 0.469244 0.812786 -0.630964
H45   H     H_    0.083109 0.359644 0.780047 0.339183
O38   O     O_3   0.580287 0.537511 0.316028 -0.643223
H46   H     H_    0.601764 0.659947 0.305209 0.295451
O39   O     O_3   0.671759 0.055542 0.700005 -0.664003
H47   H     H_    0.698983 0.159809 0.734772 0.301140
O40   O     O_3   0.194405 0.943255 0.169181 -0.659153
H48   H     H_    0.229386 0.840890 0.193862 0.302624

loop_
_geom_bond_atom_site_label_1
_geom_bond_atom_site_label_2
_ccdc_geom_bond_type
C38   C40   D    
O30   H14   S    
C42   H17   S    
C29   C31   A    
O13   V3    S    
O23   H7    S    
O33   C47   S    
C34   O40   S    
O4    C2    A    
V1    O19   S    
C25   C27   A    
C45   H25   S    
O27   H11   S    
O36   H44   S    
C23   C25   A    
O25   H9    S    
C38   O26   S    
O9    V1    S    
C51   H38   S    
C11   C13   A    
C20   C32   S    
O3    C1    A    
C50   H37   S    
C4    C25   S    
O12   V4    S    
O40   H48   S    
C43   H21   S    
C3    C26   S    
O9    C5    A    
C33   C35   D    
O7    C3    A    
C49   H33   S    
C47   H29   S    
C34   C36   D    
C9    C11   A    
C22   O36   S    
O5    C7    A    
O7    V1    S    
O6    C8    A    
O8    V2    S    
C48   H32   S    
C43   H20   S    
C26   C28   A    
C46   H26   S    
O3    V1    S    
O14   V4    S    
V4    O20   S    
C27   C29   A    
C9    O21   S    
C52   H42   S    
C5    C35   S    
C1    C40   S    
C2    O12   A    
C17   C19   A    
O10   V2    S    
C18   C20   A    
C47   H30   S    
C45   H24   S    
C28   H2    S    
O11   V3    S    
C21   C23   A    
C12   O30   S    
O17   V3    S    
C42   H18   S    
C13   C15   A    
C22   C24   A    
C37   O25   S    
C34   C38   S    
C9    C19   A    
C44   H22   S    
C50   H36   S    
C10   C20   A    
C15   C17   A    
O8    C4    A    
C50   C51   S    
C1    O11   A    
C35   O23   S    
C51   C52   S    
C37   C39   D    
O29   H13   S    
O15   V3    S    
C30   C32   A    
C27   H1    S    
C49   H35   S    
O24   H8    S    
C41   H16   S    
O28   H12   S    
C8    C14   S    
C48   C49   S    
C43   H19   S    
C23   O37   S    
O1    V3    S    
C33   O39   S    
O18   V4    S    
C42   C43   S    
C29   H3    S    
O35   H43   S    
C46   H28   S    
O16   C6    A    
O1    C3    A    
C12   C14   A    
C18   O34   S    
C41   C42   S    
C52   H40   S    
V2    O20   S    
C21   C31   A    
C51   H39   S    
O16   V4    S    
C24   O38   S    
C22   C32   A    
C40   O28   S    
O18   C8    A    
C16   C18   A    
C16   O32   S    
O38   H46   S    
C39   O27   S    
O5    V1    S    
C19   C31   S    
O17   C7    A    
O6    V2    S    
O37   H45   S    
O10   C6    A    
C21   O35   S    
O2    V4    S    
O15   C5    A    
O31   C41   S    
O22   H6    S    
V3    O19   S    
O39   H47   S    
C14   C16   A    
C11   O29   S    
C41   H15   S    
C46   H27   S    
C28   C30   A    
C7    C13   S    
C24   C26   A    
O32   C44   S    
O13   V1    S    
C36   O24   S    
C30   H4    S    
C6    C36   S    
O14   V2    S    
C45   C46   S    
O21   H5    S    
O2    C4    A    
C49   H34   S    
O26   H10   S    
O4    V2    S    
C33   C37   S    
C10   C12   A    
C2    C39   S    
C44   H23   S    
C17   O33   S    
C44   C45   S    
O34   C50   S    
C10   O22   S    
C15   O31   S    
C47   C48   S    
C48   H31   S    
C52   H41   S    
