data_mof_unit_22492.cif
_audit_creation_date              2013-03-05T15:47:08-0500
_audit_creation_method            fapswitch 2.2
_symmetry_space_group_name_H-M    P1
_symmetry_Int_Tables_number       1
_space_group_crystal_system       triclinic
_cell_length_a                    10.181735
_cell_length_b                    10.825904
_cell_length_c                    13.552534
_cell_angle_alpha                 91.629347
_cell_angle_beta                  99.383233
_cell_angle_gamma                 97.383125
_cell_volume                      1459.77773347

loop_
_atom_site_label
_atom_site_type_symbol
_atom_site_description
_atom_site_fract_x
_atom_site_fract_y
_atom_site_fract_z
_atom_type_partial_charge
O1    O     O_R   0.935190 0.693030 0.507870 -0.552784
O2    O     O_R   0.064810 0.306970 0.492130 -0.552784
O3    O     O_R   0.142080 0.658430 0.482770 -0.582478
O4    O     O_R   0.857920 0.341570 0.517230 -0.582474
C1    C     C_R   0.054863 0.732687 0.492392 0.882181
C2    C     C_R   0.945137 0.267312 0.507609 0.882162
O5    O     O_R   0.969700 0.527180 0.651960 -0.535663
O6    O     O_R   0.030300 0.472820 0.348040 -0.535652
O7    O     O_R   0.176600 0.492580 0.626860 -0.628446
O8    O     O_R   0.823400 0.507420 0.373140 -0.628450
C3    C     C_R   0.093037 0.514254 0.685929 0.947527
C4    C     C_R   0.906963 0.485744 0.314071 0.947524
Zn1   Zn    Zn3+2 0.861850 0.523100 0.516760 1.095498
Zn2   Zn    Zn3+2 0.138150 0.476900 0.483240 1.095503
C5    C     C_R   0.143475 0.529063 0.793252 -0.214829
C6    C     C_R   0.856520 0.470920 0.206749 -0.214817
C7    C     C_R   0.144060 0.617542 0.960101 0.220578
C8    C     C_R   0.855930 0.382419 0.039906 0.220572
C9    C     C_R   0.082220 0.594576 0.859694 0.604086
C10   C     C_R   0.917776 0.405402 0.140311 0.604088
C11   C     C_R   0.264688 0.486420 0.826468 -0.229558
C12   C     C_R   0.735298 0.513547 0.173533 -0.229567
C13   C     C_R   0.335471 0.518146 0.922301 0.035356
C14   C     C_R   0.664511 0.481803 0.077703 0.035349
C15   C     C_R   0.269868 0.575268 0.992797 -0.166224
C16   C     C_R   0.730115 0.424679 0.007209 -0.166228
C17   C     C_R   0.469087 0.491584 0.949420 0.026716
C18   C     C_R   0.530892 0.508355 0.050585 0.026713
C19   C     C_R   0.455444 0.546575 0.122286 -0.245992
C20   C     C_R   0.544533 0.453356 0.877720 -0.245979
C21   C     C_R   0.329186 0.582429 0.094016 0.741690
C22   C     C_R   0.670792 0.417504 0.905991 0.741670
H1    H     H_    0.697483 0.572797 0.224506 0.201530
H2    H     H_    0.302499 0.427173 0.775490 0.201529
H3    H     H_    0.490144 0.547009 0.201862 0.171870
H4    H     H_    0.509833 0.452914 0.798144 0.171877
C23   C     C_2   0.093417 0.866494 0.494170 0.023786
C24   C     C_2   0.906588 0.133504 0.505838 0.023774
C25   C     C_2   0.993206 0.936742 0.477850 0.451159
C26   C     C_2   0.006802 0.063260 0.522155 0.451167
H5    H     H_    0.577695 0.414291 0.438582 0.186200
H6    H     H_    0.422305 0.585709 0.561418 0.186202
N1    N     N_2   0.322180 0.446120 0.460900 -0.156209
N2    N     N_2   0.677820 0.553880 0.539100 -0.156213
C27   C     C_2   0.431102 0.511651 0.508192 -0.072977
C28   C     C_2   0.568898 0.488349 0.491808 -0.072978
H7    H     H_    0.665480 0.623326 0.589059 0.218284
H8    H     H_    0.334520 0.376674 0.410940 0.218283
F1    F     F_    0.262450 0.615232 0.167544 -0.594453
F2    F     F_    0.737526 0.384692 0.832464 -0.594455
F3    F     F_    0.033677 0.358676 0.173748 -0.584663
F4    F     F_    0.966326 0.641315 0.826257 -0.584665
N3    N     N_R   0.084315 0.693002 0.024725 0.272552
O9    O     O_R   0.955152 0.675322 0.023150 -0.319894
O10   O     O_R   0.154233 0.793616 0.070295 -0.258875
N4    N     N_R   0.915676 0.306953 0.975287 0.272560
O11   O     O_R   0.044836 0.324646 0.976850 -0.319904
O12   O     O_R   0.845765 0.206325 0.929734 -0.258863
F5    F     F_    0.127073 0.113980 0.577138 -0.609395
F6    F     F_    0.872939 0.886027 0.422858 -0.609402
N5    N     N_R   0.767590 0.081407 0.477133 0.250732
O13   O     O_R   0.687497 0.137081 0.413747 -0.326347
O14   O     O_R   0.716482 0.991057 0.526468 -0.250940
N6    N     N_R   0.232410 0.918586 0.522892 0.250727
O15   O     O_R   0.312476 0.862916 0.586296 -0.326363
O16   O     O_R   0.283542 0.008925 0.473560 -0.250924

loop_
_geom_bond_atom_site_label_1
_geom_bond_atom_site_label_2
_geom_bond_distance
_ccdc_geom_bond_type
C15   C21   1.401534 A    
O5    C3    1.291831 A    
O7    Zn2   1.919968 S    
C2    C24   1.449785 S    
C5    C9    1.401179 A    
C16   C22   1.401533 A    
C20   H4    1.078405 S    
N4    O12   1.301438 A    
C20   C22   1.387851 A    
N1    C27   1.297748 D    
N1    H8    1.030782 S    
C19   H3    1.078406 S    
C8    C16   1.422572 A    
N2    H7    1.030782 S    
C8    N4    1.437084 S    
O6    C4    1.291832 A    
C24   N5    1.440556 S    
C7    C15   1.422574 A    
N6    O15   1.301328 A    
C11   C13   1.389250 A    
C23   C25   1.343024 D    
C26   F5    1.364815 S    
N3    O9    1.300960 A    
C17   C20   1.416977 A    
C24   C26   1.343031 D    
O7    C3    1.297121 A    
C22   F2    1.357749 S    
O2    C2    1.291138 A    
H5    C28   1.085258 S    
O8    C4    1.297121 A    
C21   F1    1.357748 S    
O1    C1    1.291138 A    
C25   F6    1.364809 S    
O4    C2    1.291168 A    
C6    C10   1.401182 A    
C7    C9    1.403969 A    
C14   C16   1.421972 A    
O3    Zn2   1.960698 S    
C10   F3    1.358637 S    
C8    C10   1.403968 A    
C13   C17   1.418479 A    
N3    O10   1.301436 A    
N5    O13   1.301380 A    
O2    Zn2   1.909269 S    
C12   C14   1.389250 A    
C5    C11   1.384197 A    
O1    Zn1   1.909268 S    
C1    C23   1.449777 S    
C7    N3    1.437087 S    
O5    Zn1   1.972805 S    
C23   N6    1.440524 S    
N4    O11   1.300959 A    
C14   C18   1.418472 A    
C19   C21   1.387848 A    
C13   C15   1.421976 A    
C25   C26   1.460517 S    
N5    O14   1.301683 A    
C12   H1    1.077926 S    
C18   C19   1.416973 A    
C6    C12   1.384197 A    
C11   H2    1.077923 S    
O6    Zn2   1.972805 S    
O3    C1    1.291166 A    
C27   C28   1.506897 S    
C3    C5    1.458435 S    
C9    F4    1.358639 S    
H6    C27   1.085259 S    
Zn1   N2    2.013289 S    
C4    C6    1.458436 S    
O4    Zn1   1.960698 S    
N2    C28   1.297748 D    
Zn2   N1    2.013289 S    
C17   C18   1.408497 A    
O8    Zn1   1.919967 S    
N6    O16   1.301667 A    
