data_mof_unit_7208.cif
_audit_creation_date              2012-12-11T15:53:44-0500
_audit_creation_method            fapswitch 2.2
_symmetry_space_group_name_H-M    P1
_symmetry_Int_Tables_number       1
_space_group_crystal_system       triclinic
_cell_length_a                    6.959536
_cell_length_b                    14.525174
_cell_length_c                    16.056028
_cell_angle_alpha                 90.324202
_cell_angle_beta                  88.985599
_cell_angle_gamma                 90.001116
_cell_volume                      1622.79896823

loop_
_atom_site_label
_atom_site_type_symbol
_atom_type_description
_atom_site_fract_x
_atom_site_fract_y
_atom_site_fract_z
_atom_type_partial_charge
O1    O     O_R   0.361600 0.167310 0.164620 -0.542841
O2    O     O_R   0.638400 0.832690 0.835380 -0.541082
O3    O     O_R   0.691080 0.157570 0.338750 -0.528150
O4    O     O_R   0.308920 0.842430 0.661250 -0.526059
O5    O     O_R   0.861410 0.336420 0.339360 -0.528661
O6    O     O_R   0.138590 0.663580 0.660640 -0.537479
C1    C     C_R   0.520290 0.133248 0.365506 0.675315
C2    C     C_R   0.479708 0.866155 0.633966 0.733329
O7    O     O_R   0.691320 0.156280 0.165240 -0.546923
O8    O     O_R   0.308680 0.843720 0.834760 -0.550329
O9    O     O_R   0.861640 0.335130 0.164600 -0.544657
O10   O     O_R   0.138360 0.664870 0.835400 -0.548461
C3    C     C_R   0.521843 0.132400 0.137301 0.683877
C4    C     C_R   0.478163 0.868151 0.862074 0.675795
O11   O     O_R   0.361370 0.168600 0.339370 -0.553863
O12   O     O_R   0.638630 0.831400 0.660630 -0.504855
O13   O     O_3   0.527990 0.310540 0.251980 -0.349814
O14   O     O_3   0.472010 0.689460 0.748020 -0.379223
V1    V     V_3+5 0.802830 0.240980 0.251990 1.436482
V2    V     V_3+5 0.197170 0.759020 0.748010 1.466163
O15   O     O_R   0.191360 0.346160 0.165220 -0.539632
O16   O     O_R   0.808640 0.653840 0.834780 -0.545819
C5    C     C_R   0.023878 0.369220 0.136963 0.692829
C6    C     C_R   0.976114 0.630802 0.863060 0.679752
O17   O     O_R   0.191130 0.347440 0.338740 -0.524218
O18   O     O_R   0.808870 0.652560 0.661260 -0.537723
C7    C     C_R   0.020652 0.369227 0.367522 0.732292
C8    C     C_R   0.979235 0.631900 0.631587 0.746534
V3    V     V_3+5 0.302840 0.262750 0.251990 1.438114
V4    V     V_3+5 0.697160 0.737250 0.748010 1.470065
O19   O     O_3   0.027820 0.193180 0.251990 -0.379425
O20   O     O_3   0.972180 0.806820 0.748010 -0.346210
C9    C     C_3   0.899462 0.426518 0.522174 0.113069
C10   C     C_3   0.099325 0.576717 0.475551 0.119233
C11   C     C_3   0.076065 0.465407 0.567152 0.083599
C12   C     C_3   0.923606 0.537491 0.430168 0.153014
C13   C     C_3   0.993299 0.563771 0.560334 -0.157419
C14   C     C_3   0.006235 0.438956 0.437379 -0.138191
C15   C     C_3   0.817129 0.525308 0.514855 -0.021264
C16   C     C_3   0.181965 0.478010 0.482509 -0.028272
C17   C     C_R   0.837244 0.496852 0.948508 0.157874
C18   C     C_R   0.162674 0.503235 0.051584 0.147173
C19   C     C_R   0.855665 0.435652 0.015439 -0.190059
C20   C     C_R   0.144282 0.564419 0.984635 -0.189181
H1    H     H_    0.743826 0.385019 0.026443 0.125942
H2    H     H_    0.256115 0.615056 0.973633 0.126421
C21   C     C_R   0.016083 0.437245 0.067503 -0.092989
C22   C     C_R   0.983881 0.562812 0.932555 -0.088799
C23   C     C_R   0.651606 0.061418 0.492183 -0.143716
C24   C     C_R   0.346901 0.937573 0.507115 -0.094589
H3    H     H_    0.769017 0.110422 0.487923 0.121594
H4    H     H_    0.230481 0.888220 0.512074 0.183212
C25   C     C_R   0.648043 0.998323 0.557813 0.021009
C26   C     C_R   0.351498 0.999657 0.440163 -0.022824
C27   C     C_R   0.493473 0.935136 0.565906 -0.133326
C28   C     C_R   0.506558 0.063100 0.432618 -0.134874
C29   C     C_R   0.664351 0.053512 0.012179 -0.196646
C30   C     C_R   0.334797 0.948445 0.985722 -0.194329
H5    H     H_    0.791346 0.095283 0.021203 0.126302
H6    H     H_    0.207744 0.906727 0.976593 0.127174
C31   C     C_R   0.658476 0.992702 0.943696 0.148828
C32   C     C_R   0.339848 0.009752 0.053694 0.149805
C33   C     C_R   0.491317 0.938160 0.930472 -0.088124
C34   C     C_R   0.508160 0.063339 0.067897 -0.088559
C35   C     C_3   0.161677 0.425674 0.645864 -0.811264
H7    H     H_    0.216954 0.355274 0.633007 0.205854
H8    H     H_    0.280978 0.469952 0.667280 0.206277
H9    H     H_    0.049304 0.422567 0.695689 0.213104
C36   C     C_3   0.845655 0.577194 0.349744 -0.691080
H10   H     H_    0.776307 0.644709 0.362407 0.237496
H11   H     H_    0.965821 0.586751 0.304234 0.180022
H12   H     H_    0.740517 0.529453 0.321911 0.244431
C37   C     C_3   0.796717 0.338718 0.549034 -0.813384
H13   H     H_    0.701853 0.353166 0.603830 0.200034
H14   H     H_    0.711635 0.310763 0.497022 0.212162
H15   H     H_    0.904186 0.285869 0.565877 0.210329
C38   C     C_3   0.195866 0.666060 0.448442 -0.656709
H16   H     H_    0.302885 0.652050 0.397921 0.239737
H17   H     H_    0.086317 0.714674 0.425289 0.205551
H18   H     H_    0.264526 0.699674 0.502279 0.230513
C39   C     C_2   0.627505 0.565711 0.538121 0.466873
H19   H     H_    0.535598 0.532252 0.583841 0.004003
O21   O     O_2   0.586028 0.641775 0.512512 -0.545036
C40   C     C_2   0.374867 0.440438 0.461044 0.395190
H20   H     H_    0.433346 0.386649 0.499057 0.017548
O22   O     O_2   0.459863 0.465484 0.398151 -0.529451
C41   C     C_3   0.662564 0.487944 0.894632 -0.745086
H21   H     H_    0.570208 0.549806 0.902114 0.218386
H22   H     H_    0.707433 0.479229 0.828327 0.194659
H23   H     H_    0.573325 0.427367 0.911992 0.192548
C42   C     C_3   0.337236 0.512198 0.105527 -0.720945
H24   H     H_    0.429716 0.450375 0.098068 0.216527
H25   H     H_    0.426394 0.572818 0.088214 0.191664
H26   H     H_    0.292228 0.520875 0.171822 0.209595
C43   C     C_2   0.804392 0.004793 0.618302 0.370300
H27   H     H_    0.816102 0.065473 0.657598 0.002463
O23   O     O_2   0.927997 0.945414 0.620726 -0.501395
C44   C     C_2   0.197748 0.992984 0.377386 0.369806
H28   H     H_    0.216965 0.022507 0.316282 0.055087
O24   O     O_2   0.047267 0.952800 0.392966 -0.526897
C45   C     C_3   0.830609 0.990120 0.885169 -0.717326
H29   H     H_    0.784284 0.000035 0.820004 0.196866
H30   H     H_    0.906936 0.923501 0.890985 0.218926
H31   H     H_    0.935588 0.045383 0.899434 0.186882
C46   C     C_3   0.164860 0.013741 0.110383 -0.712448
H32   H     H_    0.207452 0.001032 0.175383 0.193683
H33   H     H_    0.056614 0.960688 0.094082 0.191686
H34   H     H_    0.093430 0.081676 0.105303 0.216605

loop_
_geom_bond_atom_site_label_1
_geom_bond_atom_site_label_2
_ccdc_geom_bond_type
C30   C32   A    
V4    O20   S    
C41   H21   S    
C45   H29   S    
C25   C43   S    
C10   C13   S    
C37   H14   S    
C37   H13   S    
C16   C40   S    
C43   H27   S    
O4    C2    A    
V1    O19   S    
C39   H19   S    
C32   C46   S    
C38   H16   S    
C46   H33   S    
O9    V1    S    
C24   C26   A    
C10   C16   S    
C11   C13   S    
C40   O22   D    
O3    C1    A    
C10   C38   S    
C29   H5    S    
C11   C35   S    
C7    C14   S    
C30   H6    S    
C44   H28   S    
O13   V3    S    
C31   C33   A    
C18   C42   S    
C2    O12   A    
C36   H11   S    
O7    C3    A    
C32   C34   A    
C9    C11   S    
O5    C7    A    
O7    V1    S    
O6    C8    A    
O8    V2    S    
C23   H3    S    
C24   H4    S    
O3    V1    S    
O14   V4    S    
C10   C12   S    
C38   H17   S    
C45   H30   S    
C17   C19   A    
C18   C20   A    
C1    C28   S    
C2    C27   S    
C39   O21   D    
C20   H2    S    
O11   V3    S    
C25   C27   A    
O17   V3    S    
C17   C41   S    
C46   H34   S    
C26   C28   A    
C5    C21   S    
C6    C22   S    
C40   H20   S    
C15   C39   S    
O8    C4    A    
C42   H24   S    
C1    O11   A    
C35   H8    S    
O15   V3    S    
C36   H12   S    
C31   C45   S    
C42   H25   S    
C35   H9    S    
O10   V2    S    
O1    V3    S    
C9    C15   S    
C19   H1    S    
C9    C37   S    
O18   V4    S    
C45   H31   S    
C44   O24   D    
C41   H22   S    
C37   H15   S    
O16   C6    A    
O1    C3    A    
O12   V4    S    
C12   C14   S    
C12   C36   S    
C29   C34   A    
V2    O20   S    
C38   H18   S    
C30   C33   A    
O16   V4    S    
C12   C15   S    
C24   C27   A    
C43   O23   D    
C29   C31   A    
O5    V1    S    
O17   C7    A    
C23   C28   A    
O6    V2    S    
C46   H32   S    
O10   C6    A    
O18   C8    A    
C9    C14   S    
O2    V4    S    
O15   C5    A    
C11   C16   S    
C13   C15   S    
C42   H26   S    
C14   C16   S    
C3    C34   S    
C8    C13   S    
C23   C25   A    
C4    C33   S    
O9    C5    A    
O13   V1    S    
C17   C22   A    
O14   V2    S    
C18   C21   A    
C36   H10   S    
O2    C4    A    
O4    V2    S    
V3    O19   S    
C35   H7    S    
C41   H23   S    
C26   C44   S    
C19   C21   A    
C20   C22   A    
