data_mof_unit_59775.cif
_audit_creation_date              2013-03-05T15:41:21-0500
_audit_creation_method            fapswitch 2.2
_symmetry_space_group_name_H-M    P1
_symmetry_Int_Tables_number       1
_space_group_crystal_system       triclinic
_cell_length_a                    10.58039
_cell_length_b                    8.688659
_cell_length_c                    7.528027
_cell_angle_alpha                 103.373679
_cell_angle_beta                  94.604176
_cell_angle_gamma                 92.720885
_cell_volume                      669.549710173

loop_
_atom_site_label
_atom_site_type_symbol
_atom_site_description
_atom_site_fract_x
_atom_site_fract_y
_atom_site_fract_z
_atom_type_partial_charge
O1    O     O_R   0.509190 0.286130 0.619780 -0.567746
O2    O     O_R   0.490810 0.713870 0.380220 -0.567747
O3    O     O_R   0.485310 0.256770 0.308360 -0.581182
O4    O     O_R   0.514690 0.743230 0.691640 -0.581182
C1    C     C_R   0.496142 0.199859 0.453060 0.845613
C2    C     C_R   0.503858 0.800141 0.546940 0.845613
O5    O     O_R   0.328790 0.514640 0.655680 -0.546942
O6    O     O_R   0.671210 0.485360 0.344320 -0.546942
O7    O     O_R   0.304910 0.485280 0.344260 -0.562633
O8    O     O_R   0.695090 0.514720 0.655740 -0.562633
C3    C     C_R   0.259689 0.499435 0.501043 0.781004
C4    C     C_R   0.740311 0.500565 0.498957 0.781004
Cu1   Cu    Cu3+1 0.514140 0.517380 0.684380 1.099042
Cu2   Cu    Cu3+1 0.485860 0.482620 0.315620 1.099042
N1    N     N_2   0.464560 0.456420 0.038510 0.031046
N2    N     N_2   0.535440 0.543580 0.961490 0.031045
C5    C     C_3   0.040416 0.379781 0.569674 -0.152596
C6    C     C_3   0.959584 0.620218 0.430326 -0.152596
C7    C     C_3   0.946795 0.361399 0.396157 -0.180817
C8    C     C_3   0.053205 0.638601 0.603843 -0.180818
H1    H     H_    0.899929 0.248424 0.310901 0.162923
H2    H     H_    0.100071 0.751575 0.689099 0.162922
H3    H     H_    0.076652 0.281784 0.626953 0.179749
H4    H     H_    0.923348 0.718216 0.373047 0.179749
C9    C     C_3   0.877260 0.500415 0.498546 0.008857
C10   C     C_3   0.122739 0.499585 0.501454 0.008857
C11   C     C_3   0.968611 0.518861 0.672502 -0.081848
C12   C     C_3   0.031389 0.481139 0.327498 -0.081848
H5    H     H_    0.941115 0.534765 0.814492 0.199367
H6    H     H_    0.058885 0.465235 0.185508 0.199367
C13   C     C_2   0.494413 0.031460 0.427295 -0.324543
C14   C     C_2   0.505587 0.968539 0.572705 -0.324543
H7    H     H_    0.483973 0.958975 0.287633 0.202326
H8    H     H_    0.516027 0.041025 0.712367 0.202326
N3    N     N_R   0.340667 0.424652 0.959189 0.259365
O9    O     O_R   0.298646 0.278321 0.889257 -0.392605
O10   O     O_R   0.259580 0.533147 0.995230 -0.378379
N4    N     N_R   0.659333 0.575347 0.040811 0.259365
O11   O     O_R   0.701354 0.721679 0.110743 -0.392605
O12   O     O_R   0.740420 0.466852 0.004770 -0.378379

loop_
_geom_bond_atom_site_label_1
_geom_bond_atom_site_label_2
_geom_bond_distance
_ccdc_geom_bond_type
C2    C14   1.429821 S    
O7    Cu2   1.944370 S    
C13   H7    1.087513 S    
C7    H1    1.110217 S    
C8    C11   1.544428 S    
O3    Cu2   1.950135 S    
C11   H5    1.109819 S    
C10   C12   1.536152 S    
C13   C14   1.331656 D    
C4    C9    1.449294 S    
O6    C4    1.300069 A    
C12   H6    1.109819 S    
O2    C2    1.297418 A    
Cu1   Cu2   2.712440 S    
O5    C3    1.300069 A    
C7    C12   1.544428 S    
O7    C3    1.290804 A    
C5    H3    1.110052 S    
C6    C9    1.529374 S    
C8    C10   1.529390 S    
O1    C1    1.297419 A    
C5    C10   1.529374 S    
O8    C4    1.290803 A    
N1    N3    1.383756 S    
N4    O12   1.301589 A    
C8    H2    1.110217 S    
C6    C8    1.547162 S    
N4    O11   1.300174 A    
O2    Cu2   1.951984 S    
C6    H4    1.110052 S    
C1    C13   1.429821 S    
O1    Cu1   1.951982 S    
C7    C9    1.529390 S    
N1    N2    1.300425 D    
C5    C11   1.544510 S    
O5    Cu1   1.954028 S    
C6    C12   1.544510 S    
O4    C2    1.295663 A    
Cu1   N2    2.038224 S    
O4    Cu1   1.950135 S    
Cu2   N1    2.038225 S    
C5    C7    1.547162 S    
O6    Cu2   1.954030 S    
C3    C10   1.449294 S    
N3    O10   1.301587 A    
O8    Cu1   1.944370 S    
N3    O9    1.300172 A    
N2    N4    1.383758 S    
O3    C1    1.295663 A    
C9    C11   1.536152 S    
C14   H8    1.087513 S    
