data_mof_unit_36862.cif
_audit_creation_date              2012-12-10T16:51:28-0500
_audit_creation_method            fapswitch 2.2
_symmetry_space_group_name_H-M    P1
_symmetry_Int_Tables_number       1
_space_group_crystal_system       triclinic
_cell_length_a                    7.841423
_cell_length_b                    8.565751
_cell_length_c                    12.409145
_cell_angle_alpha                 92.220994
_cell_angle_beta                  103.027804
_cell_angle_gamma                 93.858388
_cell_volume                      808.951853418

loop_
_atom_site_label
_atom_site_type_symbol
_atom_type_description
_atom_site_fract_x
_atom_site_fract_y
_atom_site_fract_z
_atom_type_partial_charge
C1    C     C_R   0.044442 0.794492 0.497599 0.979861
C2    C     C_R   0.184572 0.598093 0.822491 -0.127220
C3    C     C_2   0.067786 0.958174 0.496617 -0.338441
C4    C     C_R   0.113863 0.535454 0.707194 0.873787
C5    C     C_2   0.933249 0.041975 0.505336 -0.341847
C6    C     C_R   0.955944 0.205578 0.503125 0.973639
C7    C     C_R   0.890040 0.491388 0.291199 0.908457
C8    C     C_R   0.827046 0.401549 0.987491 -0.155062
C9    C     C_R   0.826799 0.494093 0.173411 -0.107504
C10   C     C_R   0.074102 0.648180 0.889041 -0.187502
C11   C     C_R   0.137210 0.671063 0.003490 -0.112446
C12   C     C_R   0.426630 0.608070 0.984228 0.084626
C13   C     C_R   0.308648 0.638139 0.051805 -0.142512
C14   C     C_R   0.365281 0.605502 0.869086 0.066380
C15   C     C_R   0.598192 0.562479 0.024093 0.045178
C16   C     C_R   0.682908 0.487920 0.948417 0.093567
C17   C     C_R   0.629635 0.515693 0.836206 -0.270106
C18   C     C_R   0.488887 0.606406 0.804050 0.143700
C19   C     C_R   0.688613 0.587024 0.133864 0.071337
C20   C     C_R   0.893600 0.398337 0.101093 -0.227631
H1    H     H_    0.001309 0.327241 0.132164 0.173965
H2    H     H_    0.194771 0.009105 0.488375 0.189502
H3    H     H_    0.806317 0.991010 0.513681 0.200150
H4    H     H_    0.470244 0.369240 0.422962 0.196898
H5    H     H_    0.527473 0.634251 0.571138 0.219824
H6    H     H_    0.708718 0.486276 0.778602 0.185971
H7    H     H_    0.888429 0.338881 0.930730 0.164331
H8    H     H_    0.939316 0.667019 0.853095 0.182275
H9    H     H_    0.344673 0.632134 0.140682 0.172201
H10   H     H_    0.049652 0.703551 0.055209 0.173398
I1    I     I_    0.669422 0.802656 0.224346 -0.387262
I2    I     I_    0.543112 0.831727 0.748498 -0.408144
N1    N     N_2   0.434800 0.456690 0.470850 -0.167402
N2    N     N_2   0.565200 0.543310 0.529150 -0.166670
O1    O     O_R   0.893060 0.738880 0.507150 -0.598357
O2    O     O_R   0.172250 0.711130 0.488470 -0.618636
O3    O     O_R   0.944700 0.520730 0.667600 -0.629758
O4    O     O_R   0.223890 0.492980 0.648920 -0.603527
O5    O     O_R   0.827750 0.288870 0.511530 -0.620427
O6    O     O_R   0.106940 0.261120 0.492850 -0.609799
O7    O     O_R   0.776110 0.507020 0.351080 -0.597997
O8    O     O_R   0.055300 0.479270 0.332400 -0.621835
Zn1   Zn    Zn3+2 0.813580 0.518530 0.512470 0.970767
Zn2   Zn    Zn3+2 0.186420 0.481470 0.487530 0.970276

loop_
_geom_bond_atom_site_label_1
_geom_bond_atom_site_label_2
_ccdc_geom_bond_type
O3    Zn1   S    
C2    C4    S    
O4    Zn2   S    
O1    Zn1   S    
C14   C18   A    
C9    C20   A    
H4    N1    S    
C5    H3    S    
C12   C15   A    
O6    Zn2   S    
H5    N2    S    
C19   I1    S    
N1    N2    D    
C8    C16   A    
C20   H1    S    
C15   C19   A    
C12   C13   A    
O7    Zn1   S    
C8    C20   A    
O8    Zn2   S    
C11   H10   S    
C17   H6    S    
C13   H9    S    
C12   C14   A    
C17   C18   A    
C7    O7    A    
C5    C6    S    
C2    C14   A    
C6    O6    A    
O2    Zn2   S    
C18   I2    S    
C10   C11   A    
C15   C16   A    
C2    C10   A    
C11   C13   A    
C4    O3    A    
C1    O1    A    
C7    O8    A    
C10   H8    S    
C7    C9    S    
C8    H7    S    
C6    O5    A    
C3    H2    S    
O5    Zn1   S    
C3    C5    D    
N1    Zn2   S    
C9    C19   A    
N2    Zn1   S    
C1    O2    A    
C4    O4    A    
C16   C17   A    
C1    C3    S    
