data_mof_unit_27446.cif
_audit_creation_date              2012-12-10T20:48:48-0500
_audit_creation_method            fapswitch 2.2
_symmetry_space_group_name_H-M    P1
_symmetry_Int_Tables_number       1
_space_group_crystal_system       triclinic
_cell_length_a                    15.793778
_cell_length_b                    8.914511
_cell_length_c                    8.20032
_cell_angle_alpha                 90.000039
_cell_angle_beta                  89.382156
_cell_angle_gamma                 90.000054
_cell_volume                      1154.48715098

loop_
_atom_site_label
_atom_site_type_symbol
_atom_type_description
_atom_site_fract_x
_atom_site_fract_y
_atom_site_fract_z
_atom_type_partial_charge
C1    C     C_R   0.500000 0.218392 0.500000 0.931607
C2    C     C_3   0.053628 0.400932 0.333700 -0.204620
C3    C     C_3   0.946372 0.400930 0.666299 -0.204623
C4    C     C_3   0.951921 0.377722 0.342440 -0.094727
C5    C     C_1   0.750144 0.491208 0.496596 -0.094169
C6    C     C_1   0.249856 0.491209 0.503404 -0.094165
C7    C     C_3   0.083196 0.470253 0.504042 0.091187
C8    C     C_3   0.916804 0.470252 0.495958 0.091193
C9    C     C_3   0.952174 0.633796 0.483705 -0.345846
C10   C     C_3   0.047826 0.633797 0.516298 -0.345852
C11   C     C_2   0.899649 0.255760 0.711067 0.214184
C12   C     C_1   0.824985 0.481625 0.494750 -0.000490
C13   C     C_2   0.924085 0.213271 0.357842 0.339135
C14   C     C_2   0.075916 0.213271 0.642156 0.339146
C15   C     C_2   0.100352 0.255763 0.288930 0.214181
C16   C     C_2   0.085482 0.509656 0.200085 0.402216
C17   C     C_2   0.087514 0.423830 0.819008 0.630015
C18   C     C_2   0.912485 0.423831 0.180993 0.630006
C19   C     C_2   0.914517 0.509652 0.799916 0.402206
C20   C     C_1   0.175015 0.481627 0.505250 -0.000488
C21   C     C_R   0.338219 0.499727 0.500912 0.894318
C22   C     C_R   0.661781 0.499727 0.499088 0.894318
C23   C     C_1   0.500000 0.934674 0.500000 -0.153647
C24   C     C_1   0.500000 0.065307 0.500000 -0.151214
C25   C     C_R   0.500000 0.781584 0.500000 0.927062
C26   C     C_3   0.048079 0.377722 0.657560 -0.094730
H1    H     H_    0.060272 0.683625 0.637397 0.266798
H2    H     H_    0.069417 0.361469 0.926844 0.092865
H3    H     H_    0.930577 0.361463 0.073158 0.092862
H4    H     H_    0.849782 0.499114 0.844952 0.116988
H5    H     H_    0.080103 0.711596 0.429770 0.206223
H6    H     H_    0.919897 0.711595 0.570233 0.206226
H7    H     H_    0.939728 0.683627 0.362607 0.266799
H8    H     H_    0.843578 0.221079 0.646326 0.159353
H9    H     H_    0.967888 0.123931 0.384107 0.120489
H10   H     H_    0.032114 0.123931 0.615888 0.120488
H11   H     H_    0.156422 0.221082 0.353673 0.159350
H12   H     H_    0.150218 0.499122 0.155050 0.116988
N1    N     N_1   0.500000 0.500030 0.073640 -0.015867
N2    N     N_1   0.500000 0.500030 0.926360 -0.015867
O1    O     O_R   0.500000 0.285340 0.636850 -0.611648
O2    O     O_2   0.849860 0.177882 0.340742 -0.557027
O3    O     O_2   0.150141 0.177884 0.659258 -0.557026
O4    O     O_2   0.079804 0.182320 0.169900 -0.534932
O5    O     O_2   0.043819 0.615085 0.150203 -0.498505
O6    O     O_2   0.138934 0.525463 0.831018 -0.560023
O7    O     O_2   0.861069 0.525469 0.168983 -0.560019
O8    O     O_2   0.956179 0.615082 0.849798 -0.498506
O9    O     O_R   0.500000 0.285340 0.363150 -0.611648
O10   O     O_R   0.377140 0.500000 0.636930 -0.588854
O11   O     O_R   0.377140 0.500000 0.363070 -0.625727
O12   O     O_R   0.622860 0.500000 0.636930 -0.625727
O13   O     O_R   0.622860 0.500000 0.363070 -0.588855
O14   O     O_R   0.500000 0.714650 0.636900 -0.611561
O15   O     O_R   0.500000 0.714650 0.363100 -0.611561
O16   O     O_2   0.920198 0.182311 0.830092 -0.534932
Zn1   Zn    Zn3+2 0.500000 0.499990 0.682780 1.033326
Zn2   Zn    Zn3+2 0.500000 0.499990 0.317220 1.033325

loop_
_geom_bond_atom_site_label_1
_geom_bond_atom_site_label_2
_ccdc_geom_bond_type
C16   O5    D    
C10   H1    S    
C7    C10   S    
C2    C4    S    
C23   C24   T    
C3    C19   S    
O13   Zn2   S    
C2    C16   S    
C9    C10   S    
C2    C7    S    
C11   H8    S    
C8    C12   S    
C4    C8    S    
C4    C18   S    
C18   O7    D    
C8    C9    S    
C17   O6    D    
O1    Zn1   S    
C11   O16   D    
C18   H3    S    
C14   C26   S    
C9    H7    S    
C2    C15   S    
O10   Zn1   S    
C19   H4    S    
C7    C26   S    
C1    C24   S    
C17   C26   S    
N1    Zn2   S    
C1    O1    A    
C13   O2    D    
C15   O4    D    
C13   H9    S    
C22   O13   A    
C6    C21   S    
C23   C25   S    
C14   H10   S    
C3    C11   S    
O12   Zn1   S    
O9    Zn2   S    
N1    N2    T    
C21   O11   A    
C6    C20   T    
C25   O14   A    
C5    C12   T    
C22   O12   A    
C3    C8    S    
O15   Zn2   S    
C4    C13   S    
O11   Zn2   S    
C19   O8    D    
C21   O10   A    
N2    Zn1   S    
C9    H6    S    
C17   H2    S    
C1    O9    A    
C10   H5    S    
C7    C20   S    
C3    C26   S    
C15   H11   S    
C5    C22   S    
C25   O15   A    
C16   H12   S    
C14   O3    D    
O14   Zn1   S    
