data_mof_unit_17566.cif
_audit_creation_date              2012-12-11T15:22:19-0500
_audit_creation_method            fapswitch 2.2
_symmetry_space_group_name_H-M    P1
_symmetry_Int_Tables_number       1
_space_group_crystal_system       triclinic
_cell_length_a                    22.469351
_cell_length_b                    12.945213
_cell_length_c                    26.96375
_cell_angle_alpha                 90.000632
_cell_angle_beta                  90.476597
_cell_angle_gamma                 90.065376
_cell_volume                      7842.6839377

loop_
_atom_site_label
_atom_site_type_symbol
_atom_type_description
_atom_site_fract_x
_atom_site_fract_y
_atom_site_fract_z
_atom_type_partial_charge
C1    C     C_R   0.705594 0.306245 0.173169 0.570706
C2    C     C_R   0.294415 0.306177 0.826844 0.570893
C3    C     C_R   0.205593 0.806244 0.173169 0.570708
C4    C     C_R   0.794415 0.806176 0.826844 0.570894
C5    C     C_R   0.476031 0.161279 0.871413 -0.004443
C6    C     C_R   0.523964 0.161152 0.128594 -0.004821
C7    C     C_R   0.976030 0.661279 0.871413 -0.004441
C8    C     C_R   0.023964 0.661152 0.128594 -0.004819
C9    C     C_R   0.516009 0.254697 0.103370 -0.142009
C10   C     C_R   0.483969 0.254814 0.896676 -0.141644
C11   C     C_R   0.016011 0.754698 0.103370 -0.142005
C12   C     C_R   0.983967 0.754814 0.896676 -0.141640
C13   C     C_R   0.506267 0.254747 0.051969 0.018669
C14   C     C_R   0.493707 0.254814 0.948079 0.018634
C15   C     C_R   0.006268 0.754747 0.051969 0.018673
C16   C     C_R   0.993706 0.754813 0.948079 0.018638
C17   C     C_R   0.502757 0.159750 0.025992 0.049120
C18   C     C_R   0.497219 0.159785 0.974019 0.049056
C19   C     C_R   0.002757 0.659750 0.025992 0.049122
C20   C     C_R   0.997219 0.659785 0.974019 0.049057
C21   C     C_R   0.503036 0.348232 0.025819 -0.149086
C22   C     C_R   0.496933 0.348266 0.974267 -0.148968
C23   C     C_R   0.003037 0.848232 0.025819 -0.149082
C24   C     C_R   0.996932 0.848265 0.974267 -0.148963
C25   C     C_R   0.744992 0.951170 0.132006 0.021266
C26   C     C_R   0.254961 0.951231 0.867999 0.021671
C27   C     C_R   0.244993 0.451166 0.132007 0.021263
C28   C     C_R   0.754961 0.451226 0.867998 0.021667
C29   C     C_R   0.789675 0.994279 0.102318 -0.121069
C30   C     C_R   0.210414 0.994428 0.897737 -0.120754
C31   C     C_R   0.289682 0.494264 0.102322 -0.121062
C32   C     C_R   0.710405 0.494410 0.897733 -0.120747
C33   C     C_R   0.799233 0.957958 0.054820 -0.116856
C34   C     C_R   0.200846 0.958093 0.945236 -0.116825
C35   C     C_R   0.299240 0.457943 0.054824 -0.116855
C36   C     C_R   0.700839 0.458075 0.945232 -0.116824
C37   C     C_R   0.765572 0.875353 0.035944 0.040773
C38   C     C_R   0.234361 0.875393 0.964063 0.040770
C39   C     C_R   0.265571 0.375349 0.035944 0.040773
C40   C     C_R   0.734361 0.375389 0.964062 0.040770
C41   C     C_R   0.722557 0.828661 0.066341 -0.116814
C42   C     C_R   0.277242 0.828632 0.933621 -0.116671
C43   C     C_R   0.222551 0.328666 0.066339 -0.116811
C44   C     C_R   0.777249 0.328639 0.933623 -0.116666
C45   C     C_R   0.553117 0.157084 0.177698 0.534318
C46   C     C_R   0.446882 0.157144 0.822305 0.535407
C47   C     C_R   0.053117 0.657084 0.177697 0.534320
C48   C     C_R   0.946882 0.657144 0.822305 0.535409
C49   C     C_R   0.711655 0.867367 0.113910 -0.124789
C50   C     C_R   0.288156 0.867347 0.886048 -0.124378
C51   C     C_R   0.211649 0.367373 0.113909 -0.124788
C52   C     C_R   0.788162 0.367354 0.886050 -0.124377
C53   C     C_R   0.723532 0.818187 0.953996 -0.088170
C54   C     C_R   0.276378 0.818118 0.045971 -0.088145
C55   C     C_R   0.223529 0.318202 0.953995 -0.088170
C56   C     C_R   0.776381 0.318133 0.045972 -0.088146
C57   C     C_R   0.729563 0.804530 0.902933 0.358351
C58   C     C_R   0.270370 0.804470 0.097038 0.358179
C59   C     C_R   0.229560 0.304546 0.902931 0.358348
C60   C     C_R   0.770374 0.304487 0.097040 0.358178
C61   C     C_R   0.834651 0.844029 0.910111 -0.188769
C62   C     C_R   0.165346 0.844117 0.089927 -0.188638
C63   C     C_R   0.334651 0.344019 0.910112 -0.188774
C64   C     C_R   0.665346 0.344105 0.089926 -0.188643
C65   C     C_R   0.829010 0.854166 0.961095 -0.143372
C66   C     C_R   0.170957 0.854242 0.038941 -0.143361
C67   C     C_R   0.329009 0.354154 0.961096 -0.143373
C68   C     C_R   0.670958 0.354229 0.038939 -0.143362
C69   C     C_R   0.773024 0.845085 0.983463 -0.018274
C70   C     C_R   0.226906 0.845094 0.016540 -0.018257
C71   C     C_R   0.273022 0.345084 0.983463 -0.018276
C72   C     C_R   0.726908 0.345093 0.016540 -0.018259
C73   C     C_R   0.785231 0.820099 0.880393 0.036560
C74   C     C_R   0.214753 0.820131 0.119614 0.036841
C75   C     C_R   0.285229 0.320102 0.880392 0.036560
C76   C     C_R   0.714754 0.320133 0.119615 0.036841
C77   C     C_R   0.527249 0.169044 0.370799 0.019274
C78   C     C_R   0.471490 0.169780 0.628734 0.022904
C79   C     C_R   0.027249 0.669044 0.370799 0.019275
C80   C     C_R   0.971489 0.669780 0.628733 0.022904
C81   C     C_R   0.534511 0.261086 0.398144 0.377697
C82   C     C_R   0.460587 0.259798 0.600636 0.376056
C83   C     C_R   0.034511 0.761086 0.398144 0.377696
C84   C     C_R   0.960587 0.759798 0.600636 0.376056
C85   C     C_R   0.523176 0.262136 0.448663 -0.061601
C86   C     C_R   0.471594 0.260489 0.550092 -0.079163
C87   C     C_R   0.023176 0.762136 0.448663 -0.061603
C88   C     C_R   0.971594 0.760489 0.550092 -0.079163
C89   C     C_R   0.731668 0.001691 0.179436 0.532586
C90   C     C_R   0.268317 0.001733 0.820561 0.531953
C91   C     C_R   0.231668 0.501691 0.179436 0.532589
C92   C     C_R   0.768317 0.501732 0.820561 0.531957
C93   C     C_R   0.503131 0.172740 0.472657 -0.016311
C94   C     C_R   0.494955 0.172973 0.526750 -0.023765
C95   C     C_R   0.003130 0.672740 0.472657 -0.016312
C96   C     C_R   0.994954 0.672973 0.526750 -0.023766
C97   C     C_R   0.491517 0.083336 0.444756 -0.107899
C98   C     C_R   0.509843 0.085878 0.555295 -0.108967
C99   C     C_R   0.991516 0.583336 0.444755 -0.107899
C100  C     C_R   0.009843 0.585878 0.555295 -0.108968
C101  C     C_R   0.503754 0.081349 0.394249 -0.170751
C102  C     C_R   0.497826 0.084052 0.605875 -0.175410
C103  C     C_R   0.003754 0.581349 0.394249 -0.170750
C104  C     C_R   0.997826 0.584052 0.605875 -0.175410
C105  C     C_R   0.736952 0.962701 0.373528 -0.034837
C106  C     C_R   0.265731 0.980393 0.624437 -0.014931
C107  C     C_R   0.236952 0.462701 0.373528 -0.034838
C108  C     C_R   0.765731 0.480392 0.624437 -0.014930
C109  C     C_R   0.684584 0.948166 0.400808 -0.070356
C110  C     C_R   0.258349 0.880271 0.606179 -0.086505
C111  C     C_R   0.184584 0.448164 0.400808 -0.070356
C112  C     C_R   0.758343 0.380272 0.606180 -0.086505
C113  C     C_R   0.687186 0.936834 0.451681 0.390220
C114  C     C_R   0.257950 0.864126 0.555004 0.414189
C115  C     C_R   0.187186 0.436832 0.451681 0.390217
C116  C     C_R   0.757944 0.364126 0.555005 0.414191
C117  C     C_R   0.742560 0.935562 0.475885 0.074217
C118  C     C_R   0.265889 0.948351 0.522602 0.058601
C119  C     C_R   0.242560 0.435561 0.475885 0.074215
C120  C     C_R   0.765887 0.448350 0.522602 0.058604
C121  C     C_R   0.795240 0.942596 0.448362 -0.119633
C122  C     C_R   0.275177 0.047582 0.541448 -0.133177
C123  C     C_R   0.295240 0.442596 0.448362 -0.119631
C124  C     C_R   0.775180 0.547580 0.541448 -0.133179
C125  C     C_R   0.792441 0.957755 0.397327 -0.146165
C126  C     C_R   0.275097 0.063403 0.592127 -0.131881
C127  C     C_R   0.292440 0.457756 0.397327 -0.146164
C128  C     C_R   0.775101 0.563401 0.592127 -0.131882
C129  C     C_R   0.782745 0.989439 0.558253 0.417268
C130  C     C_R   0.217746 0.989787 0.442153 0.384702
C131  C     C_R   0.282745 0.489439 0.558253 0.417269
C132  C     C_R   0.717747 0.489789 0.442153 0.384703
C133  C     C_R   0.721182 0.347549 0.321731 0.565159
C134  C     C_R   0.278669 0.348032 0.678588 0.558032
C135  C     C_R   0.221182 0.847549 0.321731 0.565158
C136  C     C_R   0.778669 0.848032 0.678588 0.558031
C137  C     C_R   0.789943 0.970222 0.608632 -0.044660
C138  C     C_R   0.208068 0.967396 0.392389 -0.054593
C139  C     C_R   0.289943 0.470221 0.608632 -0.044660
C140  C     C_R   0.708069 0.467398 0.392388 -0.054593
C141  C     C_R   0.717462 0.831325 0.603033 -0.166872
C142  C     C_R   0.287858 0.841061 0.395333 -0.143265
C143  C     C_R   0.217461 0.331327 0.603033 -0.166875
C144  C     C_R   0.787856 0.341056 0.395334 -0.143264
C145  C     C_R   0.711550 0.848376 0.552653 -0.129172
C146  C     C_R   0.297389 0.863085 0.445170 -0.120950
C147  C     C_R   0.211549 0.348378 0.552654 -0.129175
C148  C     C_R   0.797386 0.363079 0.445171 -0.120951
C149  C     C_R   0.745319 0.925438 0.529726 0.058948
C150  C     C_R   0.261000 0.934702 0.469084 0.054390
C151  C     C_R   0.245319 0.425439 0.529726 0.058946
C152  C     C_R   0.760999 0.434700 0.469084 0.054391
C153  C     C_R   0.759224 0.888140 0.630719 -0.042814
C154  C     C_R   0.241338 0.889824 0.369241 -0.039435
C155  C     C_R   0.259224 0.388141 0.630719 -0.042815
C156  C     C_R   0.741338 0.389823 0.369241 -0.039434
C157  C     C_R   0.554244 0.158998 0.321622 0.565080
C158  C     C_R   0.445508 0.159127 0.678252 0.563536
C159  C     C_R   0.054244 0.658998 0.321622 0.565081
C160  C     C_R   0.945507 0.659127 0.678252 0.563537
C161  C     C_R   0.731220 0.002837 0.323328 0.549695
C162  C     C_R   0.268513 0.002872 0.676805 0.538867
C163  C     C_R   0.231220 0.502837 0.323328 0.549694
C164  C     C_R   0.768513 0.502871 0.676805 0.538865
C165  C     C_R   0.514710 0.067642 0.103347 -0.122150
C166  C     C_R   0.485294 0.067766 0.896626 -0.121785
C167  C     C_R   0.014711 0.567642 0.103347 -0.122153
C168  C     C_R   0.985293 0.567766 0.896627 -0.121790
C169  C     C_R   0.505538 0.065132 0.052018 -0.011596
C170  C     C_R   0.494441 0.065202 0.947957 -0.011662
C171  C     C_R   0.005538 0.565132 0.052018 -0.011596
C172  C     C_R   0.994441 0.565201 0.947957 -0.011663
C173  C     C_R   0.497277 0.970163 0.973891 -0.022550
C174  C     C_R   0.502672 0.970127 0.026048 -0.022537
C175  C     C_R   0.997277 0.470162 0.973891 -0.022548
C176  C     C_R   0.002672 0.470126 0.026048 -0.022535
Cr1   Cr    Cr6+3 0.756570 0.170940 0.251190 1.067809
Cr2   Cr    Cr6+3 0.243430 0.170940 0.748810 1.069957
Cr3   Cr    Cr6+3 0.256570 0.670940 0.251190 1.067814
Cr4   Cr    Cr6+3 0.743430 0.670940 0.748810 1.069963
Cr5   Cr    Cr6+3 0.623740 0.299110 0.249580 1.069245
Cr6   Cr    Cr6+3 0.376260 0.299110 0.750420 1.068761
Cr7   Cr    Cr6+3 0.123740 0.799110 0.249580 1.069244
Cr8   Cr    Cr6+3 0.876260 0.799110 0.750420 1.068759
Cr9   Cr    Cr6+3 0.625990 0.036240 0.250480 1.022687
Cr10  Cr    Cr6+3 0.374010 0.036240 0.749520 1.028464
Cr11  Cr    Cr6+3 0.125990 0.536240 0.250480 1.022686
Cr12  Cr    Cr6+3 0.874010 0.536240 0.749520 1.028463
H1    H     H_    0.480609 0.995971 0.876467 0.156596
H2    H     H_    0.519422 0.995836 0.123477 0.156222
H3    H     H_    0.980608 0.495972 0.876467 0.156593
H4    H     H_    0.019423 0.495837 0.123477 0.156221
H5    H     H_    0.877788 0.855464 0.893701 0.132185
H6    H     H_    0.122242 0.855616 0.106360 0.132403
H7    H     H_    0.377788 0.355444 0.893703 0.132186
H8    H     H_    0.622241 0.355594 0.106359 0.132403
H9    H     H_    0.696845 0.763500 0.053043 0.096958
H10   H     H_    0.302842 0.763409 0.946884 0.097125
H11   H     H_    0.196834 0.263513 0.053039 0.096956
H12   H     H_    0.802855 0.263426 0.946889 0.097123
H13   H     H_    0.676978 0.832874 0.136147 0.129156
H14   H     H_    0.322730 0.832791 0.863771 0.129478
H15   H     H_    0.176968 0.332888 0.136144 0.129161
H16   H     H_    0.822742 0.332808 0.863775 0.129483
H17   H     H_    0.529570 0.018397 0.538345 0.185172
H18   H     H_    0.474264 0.014255 0.462169 0.137445
H19   H     H_    0.029570 0.518397 0.538345 0.185172
H20   H     H_    0.974263 0.514255 0.462169 0.137446
H21   H     H_    0.506854 0.014119 0.626661 0.154098
H22   H     H_    0.497389 0.009786 0.374063 0.148848
H23   H     H_    0.006854 0.514119 0.626661 0.154098
H24   H     H_    0.997388 0.509786 0.374063 0.148848
H25   H     H_    0.532751 0.331998 0.469335 0.159653
H26   H     H_    0.459273 0.328358 0.528910 0.139679
H27   H     H_    0.032751 0.831998 0.469335 0.159653
H28   H     H_    0.959272 0.828358 0.528910 0.139679
H29   H     H_    0.641022 0.953687 0.383475 0.165978
H30   H     H_    0.252190 0.815846 0.631258 0.135892
H31   H     H_    0.141022 0.453685 0.383475 0.165978
H32   H     H_    0.752181 0.315848 0.631259 0.135891
H33   H     H_    0.821798 0.015710 0.629686 0.177556
H34   H     H_    0.172175 0.006267 0.372906 0.185325
H35   H     H_    0.321799 0.515708 0.629685 0.177558
H36   H     H_    0.672178 0.506272 0.372904 0.185320
H37   H     H_    0.682856 0.797677 0.531208 0.205712
H38   H     H_    0.331543 0.821558 0.465560 0.177697
H39   H     H_    0.182855 0.297679 0.531209 0.205712
H40   H     H_    0.831538 0.321549 0.465562 0.177698
H41   H     H_    0.693141 0.767545 0.619211 0.164678
H42   H     H_    0.314318 0.781102 0.378272 0.158978
H43   H     H_    0.193139 0.267549 0.619212 0.164677
H44   H     H_    0.814315 0.281095 0.378273 0.158979
H45   H     H_    0.838374 0.938849 0.466515 0.166355
H46   H     H_    0.282022 0.112731 0.516888 0.148423
H47   H     H_    0.338373 0.438850 0.466515 0.166358
H48   H     H_    0.782029 0.612727 0.516887 0.148421
H49   H     H_    0.833180 0.969221 0.376836 0.150951
H50   H     H_    0.283009 0.140513 0.606357 0.134036
H51   H     H_    0.333180 0.469222 0.376836 0.150951
H52   H     H_    0.783017 0.640511 0.606357 0.134035
H53   H     H_    0.478700 0.327297 0.877012 0.113048
H54   H     H_    0.521278 0.327171 0.123061 0.112551
H55   H     H_    0.978698 0.827297 0.877012 0.113048
H56   H     H_    0.021280 0.827171 0.123061 0.112550
H57   H     H_    0.494062 0.421482 0.954901 0.106900
H58   H     H_    0.505904 0.421426 0.045215 0.106748
H59   H     H_    0.994062 0.921481 0.954901 0.106899
H60   H     H_    0.005905 0.921426 0.045215 0.106746
H61   H     H_    0.815664 0.060020 0.114764 0.173470
H62   H     H_    0.184546 0.060240 0.885328 0.173683
H63   H     H_    0.315677 0.559996 0.114770 0.173478
H64   H     H_    0.684532 0.560212 0.885321 0.173687
H65   H     H_    0.679685 0.811600 0.969955 0.108163
H66   H     H_    0.320196 0.811467 0.029981 0.108188
H67   H     H_    0.179681 0.311625 0.969953 0.108167
H68   H     H_    0.820201 0.311494 0.029984 0.108189
H69   H     H_    0.831454 0.998160 0.032248 0.106284
H70   H     H_    0.168739 0.998347 0.967848 0.106209
H71   H     H_    0.331466 0.498137 0.032254 0.106285
H72   H     H_    0.668725 0.498321 0.967841 0.106209
H73   H     H_    0.868404 0.871841 0.982840 0.132842
H74   H     H_    0.131575 0.871977 0.017220 0.132959
H75   H     H_    0.368405 0.371817 0.982842 0.132847
H76   H     H_    0.631575 0.371950 0.017218 0.132964
O1    O     O_R   0.769900 0.064540 0.196060 -0.507569
O2    O     O_R   0.230100 0.064540 0.803940 -0.505954
O3    O     O_R   0.269900 0.564540 0.196060 -0.507559
O4    O     O_R   0.730100 0.564540 0.803940 -0.505945
O5    O     O_R   0.574760 0.239320 0.300850 -0.424082
O6    O     O_R   0.425240 0.239320 0.699150 -0.426301
O7    O     O_R   0.074760 0.739320 0.300850 -0.424082
O8    O     O_R   0.925240 0.739320 0.699150 -0.426302
O9    O     O_R   0.566290 0.069580 0.305400 -0.533287
O10   O     O_R   0.433710 0.069580 0.694600 -0.524069
O11   O     O_R   0.066290 0.569580 0.305400 -0.533287
O12   O     O_R   0.933710 0.569580 0.694600 -0.524070
O13   O     O_R   0.680760 0.993330 0.302620 -0.507339
O14   O     O_R   0.319240 0.993330 0.697380 -0.493440
O15   O     O_R   0.180760 0.493330 0.302620 -0.507339
O16   O     O_R   0.819240 0.493330 0.697380 -0.493440
O17   O     O_3   0.668770 0.168760 0.250420 -0.283813
O18   O     O_3   0.331230 0.168760 0.749580 -0.288540
O19   O     O_3   0.168770 0.668760 0.250420 -0.283813
O20   O     O_3   0.831230 0.668760 0.749580 -0.288541
O21   O     O_R   0.750800 0.274080 0.199250 -0.425083
O22   O     O_R   0.249200 0.274080 0.800750 -0.422683
O23   O     O_R   0.250800 0.774080 0.199250 -0.425081
O24   O     O_R   0.749200 0.774080 0.800750 -0.422680
O25   O     O_R   0.669990 0.371670 0.194150 -0.528978
O26   O     O_R   0.330010 0.371670 0.805850 -0.527798
O27   O     O_R   0.169990 0.871670 0.194150 -0.528982
O28   O     O_R   0.830010 0.871670 0.805850 -0.527802
O29   O     O_R   0.574600 0.238480 0.197800 -0.526094
O30   O     O_R   0.425400 0.238480 0.802200 -0.525601
O31   O     O_R   0.074600 0.738480 0.197800 -0.526093
O32   O     O_R   0.925400 0.738480 0.802200 -0.525601
O33   O     O_R   0.566130 0.068680 0.194240 -0.517562
O34   O     O_R   0.433870 0.068680 0.805760 -0.516912
O35   O     O_R   0.066130 0.568680 0.194240 -0.517563
O36   O     O_R   0.933870 0.568680 0.805760 -0.516913
O37   O     O_R   0.680610 0.992490 0.199570 -0.503837
O38   O     O_R   0.319390 0.992490 0.800430 -0.504936
O39   O     O_R   0.180610 0.492490 0.199570 -0.503840
O40   O     O_R   0.819390 0.492490 0.800430 -0.504939
O41   O     O_R   0.770060 0.065440 0.307230 -0.507229
O42   O     O_R   0.229940 0.065440 0.692770 -0.503302
O43   O     O_R   0.270060 0.565440 0.307230 -0.507229
O44   O     O_R   0.729940 0.565440 0.692770 -0.503302
O45   O     O_R   0.750960 0.274920 0.302300 -0.501959
O46   O     O_R   0.249040 0.274920 0.697700 -0.506792
O47   O     O_R   0.250960 0.774920 0.302300 -0.501959
O48   O     O_R   0.749040 0.774920 0.697700 -0.506792
O49   O     O_R   0.670160 0.372580 0.305320 -0.470667
O50   O     O_R   0.329840 0.372580 0.694680 -0.465919
O51   O     O_R   0.170160 0.872580 0.305320 -0.470669
O52   O     O_R   0.829840 0.872580 0.694680 -0.465918
F1    F     F_    0.556750 0.348264 0.377250 -0.609131
F2    F     F_    0.435089 0.344861 0.620834 -0.612922
F3    F     F_    0.056749 0.848264 0.377250 -0.609132
F4    F     F_    0.935088 0.844861 0.620834 -0.612922
F5    F     F_    0.813751 0.067809 0.537152 -0.587530
F6    F     F_    0.182043 0.059626 0.464829 -0.625685
F7    F     F_    0.313752 0.567807 0.537151 -0.587524
F8    F     F_    0.682046 0.559631 0.464828 -0.625686
C177  C     C_R   0.492523 0.869719 0.947323 0.018339
C178  C     C_R   0.440430 0.810382 0.951049 -0.081685
C179  C     C_R   0.436939 0.713247 0.928536 -0.113376
C180  C     C_R   0.485302 0.675056 0.901995 -0.113679
C181  C     C_R   0.537183 0.733997 0.897878 -0.092291
C182  C     C_R   0.540946 0.831097 0.920513 -0.092033
H77   H     H_    0.403023 0.839099 0.971926 0.103408
H78   H     H_    0.396933 0.667246 0.931871 0.102864
H79   H     H_    0.482624 0.599699 0.884710 0.107766
H80   H     H_    0.574498 0.703945 0.877348 0.181971
H81   H     H_    0.581572 0.875705 0.917686 0.156804
C183  C     C_R   0.507347 0.869650 0.052581 0.018459
C184  C     C_R   0.559371 0.810350 0.048800 -0.081585
C185  C     C_R   0.562774 0.713183 0.071276 -0.113381
C186  C     C_R   0.514397 0.674927 0.097839 -0.114222
C187  C     C_R   0.462587 0.733830 0.102012 -0.093153
C188  C     C_R   0.458908 0.830958 0.079411 -0.092258
H82   H     H_    0.596789 0.839121 0.027908 0.103427
H83   H     H_    0.602723 0.667207 0.067896 0.102605
H84   H     H_    0.517008 0.599547 0.115096 0.106983
H85   H     H_    0.425260 0.703725 0.122559 0.181191
H86   H     H_    0.418335 0.875537 0.082281 0.156614
C189  C     C_R   0.992524 0.369718 0.947322 0.018333
C190  C     C_R   0.940437 0.310369 0.951057 -0.081676
C191  C     C_R   0.936947 0.213235 0.928542 -0.113380
C192  C     C_R   0.985305 0.175058 0.901991 -0.113684
C193  C     C_R   0.037180 0.234011 0.897866 -0.092287
C194  C     C_R   0.040943 0.331109 0.920503 -0.092046
H87   H     H_    0.903033 0.339076 0.971941 0.103404
H88   H     H_    0.896946 0.167225 0.931884 0.102863
H89   H     H_    0.982629 0.099702 0.884705 0.107768
H90   H     H_    0.074492 0.203969 0.877328 0.181976
H91   H     H_    0.081565 0.375727 0.917669 0.156821
C195  C     C_R   0.007347 0.369650 0.052582 0.018453
C196  C     C_R   0.059366 0.310341 0.048794 -0.081577
C197  C     C_R   0.062768 0.213174 0.071271 -0.113384
C198  C     C_R   0.014395 0.174928 0.097841 -0.114224
C199  C     C_R   0.962589 0.233841 0.102021 -0.093150
C200  C     C_R   0.958911 0.330967 0.079419 -0.092270
H92   H     H_    0.096782 0.339103 0.027897 0.103426
H93   H     H_    0.102714 0.167191 0.067886 0.102604
H94   H     H_    0.017005 0.099549 0.115099 0.106984
H95   H     H_    0.925265 0.203744 0.122574 0.181192
H96   H     H_    0.918341 0.375553 0.082294 0.156631
F9    F     F_    0.635490 0.933608 0.477412 -0.643783
F10   F     F_    0.247874 0.767631 0.537085 -0.577034
F11   F     F_    0.135490 0.433606 0.477412 -0.643785
F12   F     F_    0.747863 0.267632 0.537086 -0.577036
F13   F     F_    0.680534 0.780147 0.875711 -0.666861
F14   F     F_    0.319377 0.780007 0.124229 -0.667759
F15   F     F_    0.180530 0.280177 0.875708 -0.666863
F16   F     F_    0.819382 0.280040 0.124232 -0.667759

loop_
_geom_bond_atom_site_label_1
_geom_bond_atom_site_label_2
_ccdc_geom_bond_type
C99   C103  A    
C7    C168  A    
C55   C59   A    
C142  C146  A    
C77   C101  A    
C19   C20   A    
C53   C69   A    
C165  C169  A    
C38   C70   S    
C184  C185  A    
C108  C164  S    
Cr9   O37   S    
Cr10  O34   S    
C37   C69   S    
C26   C50   A    
C197  H93   S    
Cr11  O35   S    
C29   C33   A    
C100  C104  A    
C23   H60   S    
C3    C74   S    
C9    C13   A    
C59   F15   S    
C146  C150  A    
C131  C151  A    
C12   C16   A    
C56   C72   A    
C169  C174  A    
C178  C179  A    
Cr7   O31   S    
Cr8   O28   S    
C172  C175  A    
C141  C145  A    
C138  C154  A    
C6    C165  A    
C21   C22   A    
C92   O40   A    
C91   O3    A    
C41   C49   A    
C60   F16   S    
C18   C170  A    
C159  O7    A    
C160  O8    A    
C27   C31   A    
C84   C88   A    
C42   H10   S    
C187  C188  A    
C62   C66   A    
C193  H90   S    
C167  C171  A    
C98   C102  A    
C145  H37   S    
C60   C76   A    
C15   C19   A    
C180  H79   S    
Cr1   O1    S    
C78   C82   A    
C134  C155  S    
C54   C70   A    
C68   C72   A    
C165  H2    S    
C31   H63   S    
C134  O46   A    
C135  O51   A    
C20   C172  A    
C119  C123  A    
C132  C152  A    
C128  H52   S    
C62   H6    S    
C130  C138  A    
C58   F14   S    
Cr12  O16   S    
C139  H35   S    
C132  F8    S    
C46   O34   A    
C183  C184  A    
Cr9   O13   S    
Cr6   O18   S    
C67   H75   S    
Cr10  O10   S    
Cr11  O15   S    
C26   C90   S    
C5    C46   S    
Cr11  O39   S    
C105  C125  A    
C7    C48   S    
C8    C47   S    
Cr7   O27   S    
C157  O9    A    
C136  C153  S    
Cr1   O21   S    
C66   C70   A    
C163  O15   A    
Cr2   O18   S    
C31   C35   A    
Cr3   O23   S    
C190  C191  A    
C114  F10   S    
C55   H67   S    
C95   C99   A    
C192  C193  A    
C107  C127  A    
C92   O4    A    
C61   C65   A    
C129  C137  A    
C33   H69   S    
C196  C197  A    
C39   C71   S    
C117  C149  S    
C48   O36   A    
C55   C71   A    
C2    C75   S    
C29   H61   S    
C130  F6    S    
C198  H94   S    
Cr12  O20   S    
C122  C126  A    
C191  C192  A    
C200  H96   S    
C147  C151  A    
C193  C194  A    
C148  H40   S    
C6    C9    A    
C82   F2    S    
C174  C183  S    
Cr1   O45   S    
C64   C68   A    
Cr5   O29   S    
Cr2   O42   S    
Cr3   O47   S    
C142  H42   S    
C199  C200  A    
C138  H34   S    
C185  H83   S    
C57   F13   S    
C118  C122  A    
C57   C73   A    
C189  C194  A    
C85   C93   A    
C78   C158  S    
C87   C95   A    
C130  C150  A    
C23   C24   A    
C27   C91   S    
C196  H92   S    
C97   H18   S    
C47   O31   A    
C110  C114  A    
Cr9   O33   S    
C184  H82   S    
C48   O32   A    
C89   O37   A    
C44   C52   A    
C186  H84   S    
C91   O39   A    
C54   H66   S    
C79   C103  A    
Cr10  O38   S    
C10   H53   S    
C111  H31   S    
C115  F11   S    
C197  C198  A    
Cr4   O4    S    
C27   C51   A    
Cr5   O5    S    
C7    C12   A    
C49   H13   S    
C113  F9    S    
Cr7   O7    S    
C30   C34   A    
C41   H9    S    
C10   C14   A    
C147  H39   S    
C140  H36   S    
C108  C128  A    
C116  C120  A    
C88   C96   A    
C124  H48   S    
C144  C156  A    
C129  F5    S    
C86   H26   S    
C129  C149  A    
C123  C127  A    
C139  C155  A    
C181  H80   S    
C157  O5    A    
C17   C18   A    
C112  H32   S    
C5    C166  A    
C142  C154  A    
C4    C73   S    
C42   C50   A    
C113  C117  A    
C107  C163  S    
C26   C30   A    
C115  C119  A    
C182  H81   S    
C56   H68   S    
C14   C22   A    
C105  C161  S    
C187  H85   S    
C61   H5    S    
C112  C116  A    
C58   C74   A    
C105  C109  A    
C40   C72   S    
C1    C76   S    
C107  C111  A    
C65   H73   S    
C148  C152  A    
C180  C181  A    
C143  C155  A    
Cr2   O2    S    
C102  H21   S    
C44   H12   S    
C21   H58   S    
C135  O47   A    
C134  O50   A    
C171  C176  A    
C13   C17   A    
C166  H1    S    
C2    O26   A    
C161  O13   A    
C13   C21   A    
C141  C153  A    
C63   C75   A    
C192  H89   S    
C64   H8    S    
C89   O1    A    
C36   H72   S    
C37   C41   A    
C145  C149  A    
C109  H29   S    
Cr12  O36   S    
C40   C44   A    
C24   H59   S    
C46   O30   A    
C143  H43   S    
Cr9   O17   S    
C191  H88   S    
C81   C85   A    
Cr10  O14   S    
Cr11  O11   S    
C83   C87   A    
Cr4   O44   S    
C127  H51   S    
C6    C45   S    
C93   C97   A    
C78   C102  A    
C133  C156  S    
C133  O49   A    
C80   C84   A    
C1    O21   A    
Cr2   O22   S    
C3    O23   A    
Cr3   O19   S    
C135  C154  S    
C80   C104  A    
C84   F4    S    
C79   C159  S    
C80   C160  S    
C94   C98   A    
C141  H41   S    
C137  H33   S    
C34   H70   S    
C118  C150  S    
Cr5   O49   S    
C160  O12   A    
Cr4   O20   S    
C1    O25   A    
C124  C128  A    
C11   C15   A    
C50   H14   S    
C25   C29   A    
Cr5   O25   S    
Cr2   O46   S    
C53   H65   S    
Cr6   O30   S    
Cr3   O43   S    
C133  O45   A    
C100  H19   S    
C51   H15   S    
C199  H95   S    
C68   H76   S    
C161  O41   A    
Cr8   O8    S    
C189  C190  A    
C53   C57   A    
C146  H38   S    
C61   C73   A    
C136  O48   A    
C82   C86   A    
C33   C37   A    
C56   C60   A    
C52   H16   S    
C45   O33   A    
Cr7   O19   S    
C4    O28   A    
C8    C167  A    
C90   O38   A    
C186  C187  A    
C28   C32   A    
C177  C182  A    
C123  H47   S    
Cr6   O6    S    
C121  H45   S    
C63   H7    S    
C32   C36   A    
C125  H49   S    
Cr11  O19   S    
C144  H44   S    
Cr8   O52   S    
Cr8   O20   S    
C188  H86   S    
C116  F12   S    
C132  C140  A    
C106  C126  A    
C25   C89   S    
C158  O6    A    
C99   H20   S    
C176  C195  S    
C179  C180  A    
C79   C83   A    
C43   C51   A    
C65   C69   A    
C67   C71   A    
C106  C162  S    
C177  C178  A    
C25   C49   A    
C108  C112  A    
C168  C172  A    
Cr6   O50   S    
C87   H27   S    
C62   C74   A    
C66   H74   S    
C175  C189  S    
C131  F7    S    
C170  C173  A    
Cr3   O3    S    
C93   C94   S    
C181  C182  A    
C14   C18   A    
C47   O35   A    
C95   C96   S    
C3    O27   A    
C144  C148  A    
Cr8   O32   S    
C162  O14   A    
C173  C174  A    
C136  O52   A    
C143  C147  A    
C167  H4    S    
C35   H71   S    
C4    O24   A    
C168  H3    S    
C90   O2    A    
C19   C171  A    
C38   C42   A    
C179  H78   S    
Cr12  O40   S    
C17   C169  A    
C96   C100  A    
C117  C121  A    
C86   C94   A    
C121  C125  A    
C175  C176  A    
C164  O44   A    
C98   H17   S    
C77   C81   A    
Cr10  O18   S    
C16   C20   A    
C2    O22   A    
C15   C23   A    
C16   C24   A    
C194  H91   S    
C11   H56   S    
C9    H54   S    
C190  H87   S    
C158  O10   A    
C119  C151  S    
Cr9   O9    S    
C63   C67   A    
C120  C152  S    
C137  C153  A    
Cr4   O48   S    
C36   C40   A    
C131  C139  A    
C39   C43   A    
Cr12  O12   S    
C30   H62   S    
Cr4   O24   S    
Cr5   O17   S    
C183  C188  A    
C85   H25   S    
C12   H55   S    
C64   C76   A    
C195  C200  A    
C28   C92   S    
Cr6   O26   S    
C114  C118  A    
Cr1   O17   S    
C140  C156  A    
Cr7   O51   S    
C162  O42   A    
C173  C177  S    
C59   C75   A    
C54   C58   A    
C88   H28   S    
C122  H46   S    
C34   C38   A    
C45   O29   A    
C103  H24   S    
C22   H57   S    
C43   H11   S    
C109  C113  A    
C101  H22   S    
C198  C199  A    
C32   H64   S    
C159  O11   A    
C5    C10   A    
C28   C52   A    
C81   F1    S    
C8    C11   A    
C35   C39   A    
C83   F3    S    
C166  C170  A    
Cr1   O41   S    
C163  O43   A    
C195  C196  A    
C110  H30   S    
C106  C110  A    
C185  C186  A    
C178  H77   S    
C164  O16   A    
C111  C115  A    
C104  H23   S    
C97   C101  A    
C120  C124  A    
C77   C157  S    
C126  H50   S    
