data_mof_unit_65509.cif
_audit_creation_date              2012-12-10T19:27:19-0500
_audit_creation_method            fapswitch 2.2
_symmetry_space_group_name_H-M    P1
_symmetry_Int_Tables_number       1
_space_group_crystal_system       triclinic
_cell_length_a                    13.898134
_cell_length_b                    16.453377
_cell_length_c                    17.712152
_cell_angle_alpha                 89.794542
_cell_angle_beta                  90.303424
_cell_angle_gamma                 84.883957
_cell_volume                      4034.0339923

loop_
_atom_site_label
_atom_site_type_symbol
_atom_type_description
_atom_site_fract_x
_atom_site_fract_y
_atom_site_fract_z
_atom_type_partial_charge
C1    C     C_R   0.502843 0.499642 0.644602 0.844176
C2    C     C_R   0.497157 0.500358 0.355398 0.844176
C3    C     C_R   0.439743 0.560838 0.152194 -0.190300
C4    C     C_R   0.560257 0.439161 0.847806 -0.190300
C5    C     C_R   0.498403 0.500885 0.114552 0.114647
C6    C     C_R   0.501597 0.499114 0.885448 0.114647
C7    C     C_1   0.499674 0.500229 0.033862 -0.040588
C8    C     C_1   0.500326 0.499770 0.966138 -0.040588
C9    C     C_R   0.438056 0.175976 0.452142 -0.266699
C10   C     C_R   0.561944 0.824024 0.547858 -0.266700
C11   C     C_R   0.439179 0.261700 0.453011 0.081613
C12   C     C_R   0.560821 0.738300 0.546989 0.081613
C13   C     C_R   0.560851 0.252095 0.546986 0.091057
C14   C     C_R   0.439149 0.747904 0.453014 0.091057
C15   C     C_R   0.561904 0.166224 0.547846 -0.258518
C16   C     C_R   0.438096 0.833776 0.452154 -0.258518
C17   C     C_R   0.499966 0.126920 0.499995 0.136911
C18   C     C_R   0.500034 0.873080 0.500005 0.136911
C19   C     C_1   0.499981 0.037291 0.499993 -0.030033
C20   C     C_1   0.500019 0.962709 0.500007 -0.030033
C21   C     C_R   0.683355 0.486944 0.499927 0.865583
C22   C     C_R   0.316645 0.513056 0.500073 0.865583
C23   C     C_1   0.213608 0.521007 0.499613 -0.155693
C24   C     C_1   0.786392 0.478993 0.500387 -0.155693
C25   C     C_2   0.023327 0.533659 0.498595 -0.152959
C26   C     C_2   0.976673 0.466341 0.501405 -0.152959
C27   C     C_1   0.873145 0.472655 0.500862 0.010428
C28   C     C_1   0.126855 0.527345 0.499137 0.010428
C29   C     C_R   0.553750 0.440588 0.155164 -0.139509
C30   C     C_R   0.446250 0.559412 0.844836 -0.139509
C31   C     C_R   0.551252 0.440546 0.233733 -0.211609
C32   C     C_R   0.448749 0.559454 0.766267 -0.211609
C33   C     C_R   0.493242 0.500747 0.272533 -0.104543
C34   C     C_R   0.506758 0.499253 0.727467 -0.104543
C35   C     C_R   0.435007 0.560881 0.231277 -0.014424
C36   C     C_R   0.564992 0.439119 0.768722 -0.014424
Cu1   Cu    Cu3+1 0.500000 0.419580 0.500020 0.964939
Cu2   Cu    Cu3+1 0.500000 0.580420 0.499980 0.964940
H1    H     H_    0.015924 0.406239 0.504130 0.158527
H2    H     H_    0.984076 0.593761 0.495869 0.158527
H3    H     H_    0.599039 0.393772 0.126103 0.140318
H4    H     H_    0.400961 0.606228 0.873897 0.140318
H5    H     H_    0.595915 0.394070 0.264415 0.153066
H6    H     H_    0.404085 0.605931 0.735585 0.153066
H7    H     H_    0.395355 0.606022 0.119661 0.163604
H8    H     H_    0.604645 0.393977 0.880339 0.163604
H9    H     H_    0.389089 0.148289 0.414284 0.141021
H10   H     H_    0.610911 0.851711 0.585715 0.141021
H11   H     H_    0.391069 0.298561 0.415775 0.129468
H12   H     H_    0.608931 0.701439 0.584225 0.129468
H13   H     H_    0.609009 0.281288 0.584136 0.145923
H14   H     H_    0.390991 0.718712 0.415864 0.145923
H15   H     H_    0.610872 0.130846 0.585689 0.148279
H16   H     H_    0.389128 0.869154 0.414311 0.148279
N1    N     N_R   0.500030 0.298780 0.500030 -0.176465
N2    N     N_R   0.499970 0.701220 0.499970 -0.176465
O1    O     O_R   0.500010 0.432070 0.608760 -0.568642
O2    O     O_R   0.499990 0.567930 0.391240 -0.568642
O3    O     O_R   0.500000 0.567880 0.608730 -0.590412
O4    O     O_R   0.500000 0.432120 0.391270 -0.590412
O5    O     O_R   0.637850 0.422490 0.500000 -0.571999
O6    O     O_R   0.362150 0.577510 0.500000 -0.571999
O7    O     O_R   0.637840 0.558310 0.499970 -0.584197
O8    O     O_R   0.362160 0.441690 0.500030 -0.584197
C37   C     C_2   0.363979 0.620471 0.268159 0.821963
O9    O     O_2   0.347855 0.689233 0.241916 -0.601774
O10   O     O_R   0.312270 0.597036 0.330881 -0.777784
H17   H     H_    0.264219 0.642329 0.349702 0.324626
C38   C     C_2   0.636021 0.379528 0.731841 0.821963
O11   O     O_2   0.652144 0.310767 0.758084 -0.601775
O12   O     O_R   0.687729 0.402963 0.669119 -0.777783
H18   H     H_    0.735781 0.357671 0.650298 0.324626

loop_
_geom_bond_atom_site_label_1
_geom_bond_atom_site_label_2
_ccdc_geom_bond_type
Cu1   O5    S    
C31   C33   A    
Cu1   O1    S    
Cu1   Cu2   S    
C11   H11   S    
C2    O2    A    
C1    O1    A    
C22   O6    A    
C14   N2    A    
C19   C20   T    
C24   C27   T    
C3    C35   A    
C25   H2    S    
C4    C36   A    
C32   H6    S    
C11   N1    A    
O12   H18   S    
C29   C31   A    
C4    H8    S    
C23   C28   T    
C25   C28   S    
C30   C32   A    
C9    C11   A    
C33   C35   A    
C26   C27   S    
C12   N2    A    
C2    O4    A    
C31   H5    S    
C10   C18   A    
C13   H13   S    
C15   H15   S    
C2    C33   S    
C16   C18   A    
C6    C30   A    
C34   C36   A    
C1    C34   S    
C9    H9    S    
C16   H16   S    
C1    O3    A    
C13   C15   A    
C10   H10   S    
C38   O11   D    
C10   C12   A    
C14   C16   A    
C26   H1    S    
C21   O7    A    
Cu1   O4    S    
C37   O10   S    
C35   C37   S    
C22   O8    A    
O10   H17   S    
Cu1   N1    S    
C5    C29   A    
C3    C5    A    
C38   O12   S    
C7    C8    T    
Cu1   O8    S    
Cu2   N2    S    
C36   C38   S    
C18   C20   S    
C15   C17   A    
C37   O9    D    
C21   C24   S    
C9    C17   A    
C21   O5    A    
C5    C7    S    
C22   C23   S    
C30   H4    S    
C6    C8    S    
C17   C19   S    
C29   H3    S    
C25   C26   D    
Cu2   O7    S    
C4    C6    A    
Cu2   O2    S    
C3    H7    S    
C14   H14   S    
Cu2   O3    S    
Cu2   O6    S    
C12   H12   S    
C13   N1    A    
C32   C34   A    
