data_mof_unit_8853.cif
_audit_creation_date              2012-12-10T19:28:29-0500
_audit_creation_method            fapswitch 2.2
_symmetry_space_group_name_H-M    P1
_symmetry_Int_Tables_number       1
_space_group_crystal_system       triclinic
_cell_length_a                    27.65575
_cell_length_b                    10.48621
_cell_length_c                    9.736793
_cell_angle_alpha                 89.487832
_cell_angle_beta                  89.928811
_cell_angle_gamma                 89.806862
_cell_volume                      2823.57800634

loop_
_atom_site_label
_atom_site_type_symbol
_atom_type_description
_atom_site_fract_x
_atom_site_fract_y
_atom_site_fract_z
_atom_type_partial_charge
C1    C     C_R   0.500202 0.257575 0.500633 0.938442
C2    C     C_R   0.499918 0.742406 0.499338 0.958076
C3    C     C_R   0.100628 0.525246 0.488555 -0.045458
C4    C     C_R   0.898347 0.530136 0.474294 -0.046249
C5    C     C_R   0.124928 0.407224 0.480065 -0.030324
C6    C     C_R   0.873421 0.627742 0.543645 -0.043188
C7    C     C_R   0.098671 0.295816 0.456522 -0.106831
C8    C     C_R   0.899223 0.728517 0.601115 -0.103891
C9    C     C_R   0.126793 0.636938 0.515865 -0.025430
C10   C     C_R   0.872577 0.427579 0.418312 -0.020533
C11   C     C_R   0.352621 0.505227 0.500375 -0.169359
C12   C     C_R   0.646472 0.511884 0.499531 -0.165574
C13   C     C_R   0.974290 0.428720 0.407215 0.036610
C14   C     C_R   0.025326 0.647779 0.492574 0.035883
C15   C     C_R   0.974590 0.642018 0.511005 0.073576
C16   C     C_R   0.024498 0.419893 0.433511 0.076406
C17   C     C_R   0.949121 0.534146 0.462923 0.053202
C18   C     C_R   0.050116 0.531254 0.470613 0.053406
C19   C     C_R   0.947597 0.334445 0.335191 -0.051226
C20   C     C_R   0.052751 0.762260 0.502498 -0.023486
C21   C     C_R   0.897248 0.332577 0.346301 -0.194393
C22   C     C_R   0.102827 0.754559 0.519811 -0.193976
C23   C     C_R   0.405854 0.501776 0.499708 0.956564
C24   C     C_R   0.593832 0.503489 0.499788 0.962336
C25   C     C_R   0.049097 0.301916 0.435069 -0.121156
C26   C     C_R   0.949105 0.734955 0.586086 -0.114105
C27   C     C_3   0.501609 0.038946 0.631734 -0.238742
C28   C     C_3   0.498681 0.960950 0.368098 -0.210143
C29   C     C_3   0.540141 0.956950 0.560064 0.454877
C30   C     C_3   0.460146 0.042939 0.439729 0.446306
C31   C     C_3   0.499961 0.877227 0.497963 -0.131084
C32   C     C_3   0.500310 0.122707 0.501881 -0.140827
C33   C     C_3   0.460912 0.957119 0.568651 -0.256683
C34   C     C_3   0.539369 0.042816 0.431161 -0.244560
C35   C     C_3   0.470467 0.415489 0.049661 -0.034916
C36   C     C_3   0.529526 0.584531 0.950361 -0.051073
C37   C     C_3   0.513045 0.390033 0.952331 -0.117607
C38   C     C_3   0.486948 0.609971 0.047693 -0.037675
C39   C     C_3   0.457376 0.525484 0.951409 -0.044549
C40   C     C_3   0.542620 0.474530 0.048604 -0.052290
C41   C     C_R   0.175146 0.403875 0.495308 0.629197
C42   C     C_R   0.823118 0.620833 0.555397 0.642243
C43   C     C_R   0.177019 0.629004 0.530704 0.643313
C44   C     C_R   0.822223 0.425403 0.431069 0.626842
C45   C     C_R   0.278437 0.484203 0.634577 -0.037912
C46   C     C_R   0.722520 0.451549 0.607166 -0.017190
C47   C     C_R   0.328717 0.480792 0.625275 -0.338244
C48   C     C_R   0.672154 0.448161 0.603376 -0.340631
C49   C     C_R   0.325227 0.533786 0.381039 0.343383
C50   C     C_R   0.671246 0.583788 0.398830 0.330995
C51   C     C_R   0.274754 0.534992 0.389108 0.365711
C52   C     C_R   0.721733 0.586474 0.400516 0.365407
C53   C     C_R   0.251490 0.510995 0.514933 0.145447
C54   C     C_R   0.747289 0.520217 0.503520 0.142241
H1    H     H_    0.503241 0.074212 0.738814 0.183172
H2    H     H_    0.497065 0.925628 0.261036 0.187680
H3    H     H_    0.428874 0.917881 0.623107 0.190581
H4    H     H_    0.571410 0.082010 0.376687 0.192878
H5    H     H_    0.524044 0.297539 0.907087 0.146216
H6    H     H_    0.475920 0.702422 0.092984 0.152852
H7    H     H_    0.445630 0.344522 0.096811 0.179864
H8    H     H_    0.554338 0.655595 0.903277 0.182032
H9    H     H_    0.421500 0.547002 0.905546 0.157693
H10   H     H_    0.578482 0.453022 0.094539 0.170350
H11   H     H_    0.116287 0.203405 0.454670 0.190256
H12   H     H_    0.881028 0.802441 0.658754 0.200589
H13   H     H_    0.652705 0.394169 0.681162 0.179444
H14   H     H_    0.349402 0.458955 0.717083 0.185213
H15   H     H_    0.877175 0.258677 0.294250 0.196021
H16   H     H_    0.123389 0.841800 0.530413 0.192639
H17   H     H_    0.030104 0.212678 0.424374 0.154432
H18   H     H_    0.967581 0.810750 0.638854 0.153182
N1    N     N_R   0.199931 0.514037 0.518326 -0.321457
N2    N     N_R   0.798834 0.521019 0.498879 -0.321149
N3    N     N_3   0.499960 0.500030 0.863290 -0.098165
N4    N     N_3   0.500040 0.499970 0.136710 -0.087173
O1    O     O_R   0.500000 0.313960 0.616610 -0.631969
O2    O     O_R   0.500000 0.686040 0.383390 -0.613240
O3    O     O_R   0.500020 0.313950 0.383350 -0.609759
O4    O     O_R   0.499980 0.686050 0.616650 -0.610553
O5    O     O_R   0.428750 0.500030 0.616610 -0.640452
O6    O     O_R   0.571250 0.499970 0.383390 -0.595975
O7    O     O_R   0.428770 0.500020 0.383360 -0.558450
O8    O     O_R   0.571230 0.499980 0.616640 -0.611743
O9    O     O_2   0.199257 0.292223 0.485030 -0.509955
O10   O     O_2   0.798496 0.713061 0.621735 -0.497730
O11   O     O_2   0.796661 0.329126 0.375963 -0.522025
O12   O     O_2   0.203002 0.735184 0.554905 -0.507881
Zn1   Zn    Zn3+2 0.499990 0.500010 0.655740 0.972958
Zn2   Zn    Zn3+2 0.500010 0.499990 0.344260 1.023417
Cl1   Cl    Cl    0.352212 0.572954 0.220971 -0.529616
Cl2   Cl    Cl    0.639900 0.676490 0.274541 -0.501550
Cl3   Cl    Cl    0.239682 0.567037 0.240770 -0.472554
Cl4   Cl    Cl    0.753717 0.672318 0.272676 -0.463593
C55   C     C_2   0.747403 0.381675 0.720342 0.538383
H19   H     H_    0.726257 0.326565 0.793617 0.074073
O13   O     O_2   0.791210 0.384883 0.734731 -0.549898
C56   C     C_2   0.255964 0.459673 0.771025 0.555477
H20   H     H_    0.278776 0.436896 0.858620 0.094191
O14   O     O_2   0.212305 0.465029 0.788561 -0.529312
C57   C     C_2   0.969302 0.247167 0.232817 0.429932
H21   H     H_    0.951403 0.158214 0.208446 0.103730
O15   O     O_2   0.005740 0.276696 0.169275 -0.519245
C58   C     C_2   0.032541 0.891537 0.476196 0.389956
H22   H     H_    0.050434 0.974622 0.517952 0.057730
O16   O     O_2   0.997539 0.907280 0.401527 -0.551082
Cl5   Cl    Cl    0.593354 0.894297 0.638984 -0.553448
Cl6   Cl    Cl    0.406976 0.105323 0.360349 -0.558123

loop_
_geom_bond_atom_site_label_1
_geom_bond_atom_site_label_2
_ccdc_geom_bond_type
C43   N1    A    
O6    Zn2   S    
C8    H12   S    
C57   H21   S    
C27   C29   S    
C1    O1    A    
C14   C18   A    
C11   C47   A    
C55   H19   S    
C12   C48   A    
C58   O16   D    
C28   H2    S    
C38   N4    S    
C27   C33   S    
O1    Zn1   S    
C23   O7    A    
C3    C9    A    
C43   O12   S    
C35   C37   S    
C37   C40   S    
C45   C56   S    
C38   C39   S    
C27   H1    S    
C9    C22   A    
C8    C26   A    
C3    C18   A    
C11   C23   S    
O4    Zn1   S    
C24   O6    A    
O3    Zn2   S    
C54   N2    S    
C46   C55   S    
C49   C51   A    
C50   C52   A    
C31   C33   S    
C52   Cl4   S    
C25   H17   S    
C39   N3    S    
C44   O11   S    
O5    Zn1   S    
C37   N3    S    
C28   C34   S    
C57   O15   D    
C49   Cl1   S    
C36   H8    S    
C58   H22   S    
C52   C54   A    
C45   C47   A    
C10   C21   A    
C46   C48   A    
C35   N4    S    
C42   N2    A    
C9    C43   A    
C13   C19   A    
C10   C44   A    
C14   C20   A    
C36   C40   S    
C11   C49   A    
C4    C6    A    
C5    C7    A    
C15   C26   A    
C6    C8    A    
C41   N1    A    
C29   C34   S    
C1    C32   S    
O2    Zn2   S    
C40   N4    S    
C21   H15   S    
C2    C31   S    
C51   C53   A    
C32   C34   S    
C35   C39   S    
C2    O2    A    
C36   N3    S    
C7    H11   S    
C46   C54   A    
C35   H7    S    
C26   H18   S    
C44   N2    A    
C37   H5    S    
C51   Cl3   S    
C42   O10   S    
C4    C17   A    
C50   Cl2   S    
C20   C22   A    
C56   O14   D    
C1    O3    A    
C38   H6    S    
O8    Zn1   S    
C4    C10   A    
C47   H14   S    
C39   H9    S    
C16   C25   A    
C15   C17   A    
O7    Zn2   S    
C5    C41   A    
C33   H3    S    
C23   O5    A    
C30   C33   S    
C30   Cl6   S    
C27   C32   S    
C28   C31   S    
C53   N1    S    
C3    C5    A    
C40   H10   S    
C12   C50   A    
C55   O13   D    
C20   C58   S    
C41   O9    S    
C12   C24   S    
C7    C25   A    
C13   C17   A    
C36   C38   S    
C24   O8    A    
C29   C31   S    
C30   C32   S    
C19   C57   S    
C28   C30   S    
C48   H13   S    
C2    O4    A    
N3    Zn1   S    
C45   C53   A    
C16   C18   A    
C56   H20   S    
C6    C42   A    
C13   C16   A    
C34   H4    S    
C14   C15   A    
C29   Cl5   S    
C22   H16   S    
N4    Zn2   S    
C19   C21   A    
