data_mof_unit_59873.cif
_audit_creation_date              2013-03-05T15:45:00-0500
_audit_creation_method            fapswitch 2.2
_symmetry_space_group_name_H-M    P1
_symmetry_Int_Tables_number       1
_space_group_crystal_system       triclinic
_cell_length_a                    17.333695
_cell_length_b                    24.252635
_cell_length_c                    15.136346
_cell_angle_alpha                 90.117101
_cell_angle_beta                  125.56536
_cell_angle_gamma                 89.911933
_cell_volume                      5176.09701722

loop_
_atom_site_label
_atom_site_type_symbol
_atom_site_description
_atom_site_fract_x
_atom_site_fract_y
_atom_site_fract_z
_atom_type_partial_charge
C1    C     C_R   0.311288 0.374837 0.910780 -0.073436
C2    C     C_R   0.685775 0.370858 0.088365 -0.118054
C3    C     C_R   0.814150 0.871071 0.911803 -0.120602
C4    C     C_R   0.147811 0.847274 0.088217 -0.084958
H1    H     H_    0.252224 0.369668 0.827642 0.151549
H2    H     H_    0.741625 0.360602 0.170359 0.146786
H3    H     H_    0.757978 0.861001 0.829756 0.145083
H4    H     H_    0.185750 0.832464 0.170179 0.169353
N1    N     N_R   0.395440 0.396300 0.944370 -0.038349
N2    N     N_R   0.604560 0.396300 0.055630 -0.044412
N3    N     N_R   0.895440 0.896300 0.944370 -0.042678
N4    N     N_R   0.104560 0.896300 0.055630 -0.053659
C5    C     C_R   0.398274 0.622484 0.088155 -0.100150
C6    C     C_R   0.557656 0.652319 0.912612 -0.069050
C7    C     C_R   0.942181 0.152272 0.087752 -0.073026
C8    C     C_R   0.056227 0.152690 0.912834 -0.071928
H5    H     H_    0.422273 0.626316 0.171121 0.141064
H6    H     H_    0.509475 0.668054 0.832055 0.155450
H7    H     H_    0.989486 0.167708 0.168788 0.153243
H8    H     H_    0.004663 0.168911 0.833158 0.144777
N5    N     N_R   0.449890 0.602500 0.055780 -0.039026
N6    N     N_R   0.550110 0.602500 0.944220 -0.048316
N7    N     N_R   0.949890 0.102500 0.055780 -0.044091
N8    N     N_R   0.050110 0.102500 0.944220 -0.051589
C9    C     C_R   0.542831 0.453915 0.299213 -0.168802
C10   C     C_R   0.462620 0.452451 0.704803 -0.187537
C11   C     C_R   0.044022 0.952675 0.298463 -0.184897
C12   C     C_R   0.015562 0.951824 0.749094 -0.156213
H9    H     H_    0.552378 0.411548 0.325802 0.141666
H10   H     H_    0.451327 0.409982 0.678277 0.156381
H11   H     H_    0.058973 0.910252 0.325347 0.161270
H12   H     H_    0.022281 0.908837 0.735828 0.124044
N9    N     N_R   0.525090 0.470990 0.205640 -0.059888
N10   N     N_R   0.474910 0.470990 0.794360 -0.058082
N11   N     N_R   0.025090 0.970990 0.205640 -0.058100
N12   N     N_R   0.974910 0.970990 0.794360 -0.048610
C13   C     C_R   0.241349 0.545087 0.701611 -0.194612
C14   C     C_R   0.767488 0.546393 0.252985 -0.143858
C15   C     C_R   0.732600 0.046588 0.746328 -0.162425
C16   C     C_R   0.263922 0.045479 0.290415 -0.169510
H13   H     H_    0.227506 0.587131 0.672464 0.146308
H14   H     H_    0.787676 0.589042 0.258538 0.125530
H15   H     H_    0.712461 0.089333 0.740062 0.126317
H16   H     H_    0.280589 0.087795 0.318042 0.143272
N13   N     N_R   0.320240 0.527820 0.794510 -0.065462
N14   N     N_R   0.679760 0.527820 0.205490 -0.057768
N15   N     N_R   0.820240 0.027820 0.794510 -0.061346
N16   N     N_R   0.179760 0.027820 0.205490 -0.064987
C17   C     C_R   0.545368 0.545483 0.299662 0.279781
C18   C     C_R   0.463665 0.544231 0.703511 0.338788
C19   C     C_R   0.044572 0.044317 0.301071 0.337454
C20   C     C_R   0.010297 0.044123 0.739927 0.334298
N17   N     N_R   0.524580 0.527810 0.205160 -0.081311
N18   N     N_R   0.475420 0.527810 0.794840 -0.078103
N19   N     N_R   0.024580 0.027810 0.205160 -0.075809
N20   N     N_R   0.975420 0.027810 0.794840 -0.075188
C21   C     C_R   0.243272 0.453517 0.700880 0.321023
C22   C     C_R   0.770171 0.454636 0.269163 0.272229
C23   C     C_R   0.729905 0.954733 0.730028 0.272441
C24   C     C_R   0.262178 0.953351 0.291022 0.354510
N21   N     N_R   0.320750 0.470990 0.794990 -0.095289
N22   N     N_R   0.679250 0.470990 0.205010 -0.082101
N23   N     N_R   0.820750 0.970990 0.794990 -0.080084
N24   N     N_R   0.179250 0.970990 0.205010 -0.096556
C25   C     C_R   0.308987 0.623736 0.906511 -0.103158
C26   C     C_R   0.648212 0.651574 0.092697 -0.118075
C27   C     C_R   0.852146 0.151679 0.907635 -0.135752
C28   C     C_R   0.150100 0.151139 0.093041 -0.110401
H17   H     H_    0.252182 0.629879 0.822218 0.099101
H18   H     H_    0.684440 0.665179 0.175832 0.117599
H19   H     H_    0.816314 0.165324 0.824665 0.100691
H20   H     H_    0.189142 0.164133 0.176844 0.104137
N25   N     N_R   0.393580 0.602500 0.942610 -0.044187
N26   N     N_R   0.606420 0.602500 0.057390 -0.046425
N27   N     N_R   0.893580 0.102500 0.942610 -0.045196
N28   N     N_R   0.106420 0.102500 0.057390 -0.044029
C29   C     C_R   0.403439 0.374404 0.092278 -0.091873
C30   C     C_R   0.595372 0.372961 0.907369 -0.068155
C31   C     C_R   0.904779 0.873459 0.092986 -0.088427
C32   C     C_R   0.056535 0.847648 0.907784 -0.106755
H21   H     H_    0.431145 0.368537 0.176258 0.097434
H22   H     H_    0.567835 0.366947 0.823573 0.092981
H23   H     H_    0.932468 0.868362 0.177124 0.094862
H24   H     H_    0.009538 0.833998 0.824558 0.114576
N29   N     N_R   0.451750 0.396300 0.057540 -0.042414
N30   N     N_R   0.548250 0.396300 0.942460 -0.036166
N31   N     N_R   0.951750 0.896300 0.057540 -0.041501
N32   N     N_R   0.048250 0.896300 0.942460 -0.045876
C33   C     C_R   0.313690 0.361487 0.001770 -0.008383
C34   C     C_R   0.683868 0.358457 0.997535 -0.005497
C35   C     C_R   0.816344 0.858747 0.002879 0.007170
C36   C     C_R   0.118044 0.815607 0.997425 0.008329
C37   C     C_R   0.309011 0.635724 0.996303 0.015642
C38   C     C_R   0.618258 0.684002 0.003482 0.013142
C39   C     C_R   0.882323 0.184140 0.997053 0.020830
C40   C     C_R   0.118802 0.183982 0.003613 0.017331
C41   C     C_R   0.553761 0.500070 0.357762 -0.020844
C42   C     C_R   0.458220 0.497362 0.648527 -0.060080
C43   C     C_R   0.055762 0.997571 0.359254 -0.054048
C44   C     C_R   0.038638 0.996797 0.714241 -0.069334
C45   C     C_R   0.191726 0.499236 0.641669 -0.025208
C46   C     C_R   0.825838 0.501213 0.288858 0.021470
C47   C     C_R   0.674209 0.001529 0.709769 0.028314
C48   C     C_R   0.316757 0.999171 0.345779 -0.039616
Ni1   Ni    Ni4+2 0.435420 0.434250 0.870220 0.286148
Ni2   Ni    Ni4+2 0.564580 0.434250 0.129780 0.281456
Ni3   Ni    Ni4+2 0.935420 0.934250 0.870220 0.280056
Ni4   Ni    Ni4+2 0.064580 0.934250 0.129780 0.263618
Ni5   Ni    Ni4+2 0.563400 0.564580 0.128670 0.253503
Ni6   Ni    Ni4+2 0.436600 0.564580 0.871330 0.232664
Ni7   Ni    Ni4+2 0.063400 0.064580 0.128670 0.231602
Ni8   Ni    Ni4+2 0.936600 0.064580 0.871330 0.235433
C49   C     C_2   0.983228 0.464024 0.358617 -0.054894
C50   C     C_2   0.082420 0.468611 0.452755 -0.037191
C51   C     C_2   0.419750 0.969528 0.534362 -0.038788
C52   C     C_2   0.515933 0.965042 0.633520 -0.055724
C53   C     C_2   0.925609 0.506630 0.334754 -0.192703
C54   C     C_2   0.103603 0.501496 0.535619 -0.120772
C55   C     C_2   0.404746 0.000248 0.451751 -0.108914
C56   C     C_2   0.574024 0.007496 0.660315 -0.195028
H25   H     H_    0.955575 0.423503 0.323818 0.155304
H26   H     H_    0.134189 0.440015 0.460431 0.155868
H27   H     H_    0.364828 0.943065 0.524551 0.157611
H28   H     H_    0.542367 0.924634 0.669672 0.156294
H29   H     H_    0.954682 0.548060 0.359013 0.133951
H30   H     H_    0.052429 0.529674 0.530323 0.141608
H31   H     H_    0.459286 0.026097 0.459163 0.145772
H32   H     H_    0.544970 0.048776 0.632973 0.136109
C57   C     C_R   0.156125 0.685794 0.896808 -0.152168
C58   C     C_R   0.712954 0.766709 0.103107 -0.143291
C59   C     C_R   0.789062 0.267224 0.897763 -0.149648
C60   C     C_R   0.211380 0.267901 0.101812 -0.152899
H33   H     H_    0.136208 0.670127 0.819289 0.115724
H34   H     H_    0.736662 0.749103 0.180585 0.120421
H35   H     H_    0.765904 0.249763 0.820262 0.115722
H36   H     H_    0.234436 0.250721 0.179400 0.117825
C61   C     C_R   0.738594 0.311356 0.897899 -0.154454
C62   C     C_R   0.259726 0.313160 0.101195 -0.150730
C63   C     C_R   0.109745 0.732167 0.897189 -0.143484
C64   C     C_R   0.763032 0.810944 0.102938 -0.153361
H37   H     H_    0.679131 0.326469 0.820406 0.108943
H38   H     H_    0.317908 0.329334 0.178521 0.113033
H39   H     H_    0.055881 0.750325 0.819796 0.120342
H40   H     H_    0.822818 0.825913 0.180410 0.111850
C65   C     C_R   0.757517 0.329860 0.996542 0.135798
C66   C     C_R   0.240566 0.331835 0.002533 0.128033
C67   C     C_R   0.141387 0.757789 0.996045 0.127035
C68   C     C_R   0.743262 0.829795 0.004200 0.133440
C69   C     C_R   0.840991 0.313047 0.094442 -0.149846
C70   C     C_R   0.159134 0.313043 0.904658 -0.135353
C71   C     C_R   0.206110 0.730179 0.093738 -0.135026
C72   C     C_R   0.659742 0.812871 0.906425 -0.151577
H41   H     H_    0.862353 0.329782 0.171849 0.125548
H42   H     H_    0.138118 0.328976 0.826979 0.147148
H43   H     H_    0.228036 0.746704 0.171440 0.142805
H44   H     H_    0.637944 0.829701 0.829024 0.125995
C73   C     C_R   0.252400 0.683755 0.093230 -0.148646
C74   C     C_R   0.609552 0.768615 0.906519 -0.138706
C75   C     C_R   0.891594 0.268921 0.094367 -0.142725
C76   C     C_R   0.110620 0.267932 0.905196 -0.137135
H45   H     H_    0.308229 0.666393 0.170587 0.131697
H46   H     H_    0.551344 0.752721 0.828942 0.141379
H47   H     H_    0.949665 0.253000 0.171933 0.140520
H48   H     H_    0.054437 0.250879 0.827666 0.145685
C77   C     C_R   0.235006 0.665463 0.995190 0.126551
C78   C     C_R   0.642737 0.741674 0.004535 0.126625
C79   C     C_R   0.858695 0.241998 0.996280 0.122354
C80   C     C_R   0.143078 0.241739 0.003726 0.118745
C81   C     C_R   0.423068 0.526086 0.475450 -0.107316
C82   C     C_R   0.451730 0.529614 0.408223 -0.135708
C83   C     C_R   0.122935 0.026228 0.636787 -0.112639
C84   C     C_R   0.127976 0.026361 0.548823 -0.103447
H49   H     H_    0.360299 0.548053 0.455249 0.158191
H50   H     H_    0.409687 0.553672 0.334322 0.122080
H51   H     H_    0.168562 0.053155 0.705395 0.147766
H52   H     H_    0.179109 0.052543 0.550174 0.163295
C85   C     C_R   0.532759 0.500794 0.434872 0.167729
C86   C     C_R   0.476785 0.494675 0.569218 0.159469
C87   C     C_R   0.064693 0.993509 0.458782 0.163928
C88   C     C_R   0.055962 0.992524 0.633312 0.165698
C89   C     C_R   0.584075 0.467350 0.526018 -0.152625
C90   C     C_R   0.556278 0.464565 0.594323 -0.177758
C91   C     C_R   0.002633 0.957276 0.459480 -0.168771
C92   C     C_R   0.998293 0.956731 0.546638 -0.149202
H53   H     H_    0.645042 0.444037 0.543967 0.142877
H54   H     H_    0.598082 0.440370 0.668064 0.125324
H55   H     H_    0.953529 0.931640 0.389916 0.125399
H56   H     H_    0.945690 0.930810 0.543134 0.139989
Br1   Br    Br    0.597978 0.616275 0.362158 -0.540071
Br2   Br    Br    0.430466 0.616908 0.643716 -0.599071
Br3   Br    Br    0.081480 0.117184 0.359489 -0.592696
Br4   Br    Br    0.986252 0.113637 0.668545 -0.548983
N33   N     N_R   0.231601 0.398589 0.659898 0.206801
O1    O     O_R   0.148037 0.375877 0.603493 -0.378313
O2    O     O_R   0.305782 0.368158 0.693871 -0.428469
N34   N     N_R   0.799458 0.407557 0.339484 0.221759
O3    O     O_R   0.885187 0.404286 0.427805 -0.362736
O4    O     O_R   0.735229 0.374556 0.328462 -0.410149
N35   N     N_R   0.701292 0.907439 0.660020 0.222086
O5    O     O_R   0.616560 0.904522 0.570017 -0.353716
O6    O     O_R   0.765959 0.873985 0.673057 -0.407703
N36   N     N_R   0.278894 0.898651 0.333370 0.205079
O7    O     O_R   0.361052 0.875367 0.376233 -0.361645
O8    O     O_R   0.214083 0.873352 0.335856 -0.458565

loop_
_geom_bond_atom_site_label_1
_geom_bond_atom_site_label_2
_geom_bond_distance
_ccdc_geom_bond_type
C22   N22   1.342927 A    
C31   H23   1.075622 S    
C83   C84   1.384129 A    
C73   H45   1.080499 S    
C81   C82   1.370466 A    
C6    H6    1.070623 S    
C47   C56   1.443773 S    
N8    Ni8   1.846756 S    
C23   N35   1.438717 S    
C32   H24   1.079594 S    
C58   C64   1.381999 A    
C64   C68   1.402368 A    
N26   Ni5   1.872957 S    
C31   N31   1.329797 A    
N25   Ni6   1.869663 S    
C2    H2    1.068764 S    
C89   C90   1.373126 A    
C30   C34   1.379997 A    
C7    H7    1.070562 S    
C84   H52   1.081561 S    
C11   C43   1.361044 A    
N27   Ni8   1.869663 S    
C18   N18   1.336211 A    
N36   O8    1.300520 A    
N14   N22   1.378296 A    
C1    H1    1.071691 S    
C45   C54   1.435545 S    
C76   H48   1.080014 S    
C61   C65   1.402256 A    
C8    H8    1.074740 S    
C14   H14   1.079766 S    
C34   C65   1.459622 S    
C59   H35   1.080423 S    
C55   H31   1.085112 S    
C7    C39   1.379675 A    
C85   C89   1.388275 A    
N16   N24   1.378296 A    
C27   H19   1.079899 S    
C17   Br1   1.915427 S    
C60   C62   1.385341 A    
N15   Ni8   1.867641 S    
C26   N26   1.332896 A    
N5    N25   1.393574 A    
C25   H17   1.076355 S    
C25   N25   1.334425 A    
N18   Ni6   1.867801 S    
C9    H9    1.081144 S    
C3    C35   1.389918 A    
C90   H54   1.084328 S    
C22   N34   1.438392 S    
C4    H4    1.073598 S    
C2    C34   1.388243 A    
C69   H41   1.080947 S    
N11   Ni4   1.867944 S    
N1    N29   1.393574 A    
C66   C70   1.400558 A    
C63   H39   1.080044 S    
C10   N10   1.321728 A    
N31   Ni4   1.838886 S    
C72   H44   1.080973 S    
N3    N31   1.393574 A    
N6    Ni6   1.846756 S    
C59   C79   1.400903 A    
C88   C92   1.395149 A    
C40   C80   1.462936 S    
C22   C46   1.401193 A    
C71   H43   1.080235 S    
C4    N4    1.337388 A    
N21   Ni1   1.845861 S    
C31   C35   1.380203 A    
C20   Br4   1.914368 S    
C26   C38   1.378075 A    
C48   C55   1.433140 S    
C7    N7    1.334738 A    
C30   N30   1.331055 A    
C25   C37   1.389053 A    
C37   C77   1.462216 S    
N35   O5    1.300175 A    
C8    N8    1.334142 A    
N12   Ni3   1.871184 S    
C27   C39   1.377913 A    
C38   C78   1.459637 S    
C58   H34   1.080452 S    
N23   Ni3   1.845861 S    
C35   C68   1.459582 S    
N24   Ni4   1.846563 S    
C87   C91   1.394883 A    
N9    N17   1.378056 A    
C33   C66   1.464138 S    
C72   C74   1.383165 A    
C18   C42   1.377949 A    
C51   H27   1.085054 S    
N36   O7    1.300812 A    
N4    N32   1.393575 A    
C82   C85   1.401098 A    
C11   H11   1.081440 S    
C68   C72   1.400581 A    
C12   H12   1.080161 S    
C1    N1    1.340033 A    
N34   O4    1.301549 A    
C62   H38   1.080317 S    
C73   C77   1.402536 A    
N7    Ni7   1.845989 S    
N4    Ni4   1.866991 S    
N32   Ni3   1.838113 S    
C89   H53   1.084009 S    
N13   Ni6   1.867641 S    
N8    N28   1.393574 A    
C15   H15   1.079964 S    
N33   O2    1.300751 A    
C83   H51   1.083429 S    
C20   C44   1.388713 A    
N11   N19   1.378056 A    
C92   H56   1.083857 S    
N15   N23   1.378299 A    
C21   N33   1.432410 S    
C28   H20   1.080152 S    
C32   C36   1.378606 A    
C67   C71   1.401983 A    
C91   C92   1.364472 A    
C43   C87   1.425629 S    
N12   N20   1.378054 A    
C91   H55   1.084489 S    
C16   C48   1.382116 A    
C19   C43   1.379585 A    
C30   H22   1.073812 S    
C41   C85   1.410418 S    
C57   C63   1.383420 A    
C29   H21   1.075691 S    
C60   H36   1.080758 S    
C29   C33   1.384078 A    
C8    C40   1.380229 A    
C5    N5    1.335373 A    
C28   C40   1.381999 A    
C28   N28   1.334477 A    
C15   C47   1.369024 A    
C69   C75   1.383091 A    
C50   C54   1.343547 D    
C46   C53   1.446873 S    
C70   C76   1.383850 A    
C10   C42   1.358599 A    
C49   C53   1.332066 D    
C63   C67   1.403021 A    
C84   C87   1.398106 A    
C9    C41   1.369509 A    
N10   N18   1.378054 A    
C51   C55   1.345806 D    
N3    Ni3   1.870300 S    
C75   H47   1.080116 S    
C83   C88   1.396513 A    
N2    Ni2   1.866991 S    
N30   Ni1   1.838113 S    
C42   C86   1.413458 S    
N6    N26   1.393574 A    
C13   N13   1.336582 A    
N29   Ni2   1.838886 S    
C44   C88   1.424348 S    
C71   C73   1.384162 A    
C81   C86   1.388054 A    
C19   Br3   1.911346 S    
C74   C78   1.403207 A    
C15   N15   1.325614 A    
C49   C50   1.465930 S    
C82   H50   1.084362 S    
C24   N36   1.428621 S    
C16   N16   1.335011 A    
C61   H37   1.080177 S    
N2    N30   1.393575 A    
C1    C33   1.392293 A    
C57   H33   1.080586 S    
C52   H28   1.085779 S    
N19   Ni7   1.871047 S    
N10   Ni1   1.871184 S    
C23   N23   1.342044 A    
N9    Ni2   1.867944 S    
C60   C80   1.400799 A    
N7    N27   1.393574 A    
N34   O3    1.300323 A    
C39   C79   1.459298 S    
N5    Ni5   1.845990 S    
C56   H32   1.088516 S    
C21   N21   1.336494 A    
N22   Ni2   1.846563 S    
C57   C77   1.400923 A    
C86   C90   1.401874 A    
C49   H25   1.085648 S    
C21   C45   1.378585 A    
C3    H3    1.069047 S    
C5    H5    1.072698 S    
C24   N24   1.329537 A    
C11   N11   1.320907 A    
C6    N6    1.334726 A    
C64   H40   1.080102 S    
C23   C47   1.402803 A    
C32   N32   1.331530 A    
N20   Ni8   1.867801 S    
C13   C45   1.375004 A    
C12   C44   1.370089 A    
C58   C78   1.400806 A    
C26   H18   1.079999 S    
C20   N20   1.341444 A    
C62   C66   1.403915 A    
N28   Ni7   1.872956 S    
C17   N17   1.325918 A    
N13   N21   1.378299 A    
C75   C79   1.402905 A    
C19   N19   1.341916 A    
C76   C80   1.403920 A    
C13   H13   1.081616 S    
C18   Br2   1.911703 S    
C14   N14   1.327114 A    
C17   C41   1.364620 A    
C3    N3    1.340233 A    
C74   H46   1.080088 S    
C29   N29   1.332066 A    
C50   H26   1.084848 S    
C52   C56   1.328522 D    
C16   H16   1.081766 S    
N16   Ni7   1.866950 S    
C27   N27   1.332782 A    
C12   N12   1.319602 A    
C14   C46   1.370633 A    
N33   O1    1.300924 A    
C70   H42   1.080565 S    
N14   Ni5   1.866950 S    
C5    C37   1.388522 A    
N35   O6    1.301605 A    
C81   H49   1.083050 S    
N17   Ni5   1.871047 S    
C54   H30   1.084400 S    
C4    C36   1.384442 A    
C24   C48   1.379924 A    
C53   H29   1.087731 S    
N1    Ni1   1.870300 S    
C6    C38   1.379552 A    
C65   C69   1.400783 A    
C51   C52   1.460602 S    
C9    N9    1.329457 A    
C59   C61   1.382060 A    
C36   C67   1.462330 S    
C10   H10   1.080693 S    
C2    N2    1.339843 A    
