data_mof_unit_34808.cif
_audit_creation_date              2012-12-11T20:41:33-0500
_audit_creation_method            fapswitch 2.2
_symmetry_space_group_name_H-M    P1
_symmetry_Int_Tables_number       1
_space_group_crystal_system       triclinic
_cell_length_a                    8.240693
_cell_length_b                    18.977656
_cell_length_c                    26.928116
_cell_angle_alpha                 97.65705
_cell_angle_beta                  93.426148
_cell_angle_gamma                 85.715296
_cell_volume                      4156.75813071

loop_
_atom_site_label
_atom_site_type_symbol
_atom_type_description
_atom_site_fract_x
_atom_site_fract_y
_atom_site_fract_z
_atom_type_partial_charge
Ba1   Ba    Ba6+2 0.852670 0.466460 0.522850 1.681586
Ba2   Ba    Ba6+2 0.337150 0.533490 0.477140 1.736262
C1    C     C_3   0.610281 0.218562 0.658204 -0.205773
C2    C     C_R   0.864696 0.553191 0.169132 0.628398
C3    C     C_2   0.814816 0.577843 0.279942 -0.086129
C4    C     C_3   0.154599 0.318987 0.658831 0.278805
C5    C     C_3   0.762803 0.568567 0.332390 -0.205920
C6    C     C_1   0.976988 0.477981 0.337228 -0.082016
C7    C     C_2   0.036223 0.487182 0.293428 -0.025288
C8    C     C_2   0.943790 0.536356 0.259172 0.221009
C9    C     C_R   0.054032 0.519657 0.102556 -0.133453
C10   C     C_R   0.160273 0.487977 0.137239 -0.119898
C11   C     C_R   0.292061 0.440682 0.119224 0.462039
C12   C     C_3   0.662574 0.286544 0.640385 0.316616
C13   C     C_R   0.907582 0.555053 0.119178 -0.041737
C14   C     C_2   0.818125 0.492875 0.340853 0.193762
C15   C     C_2   0.353020 0.486094 0.641473 -0.271910
C16   C     C_3   0.131222 0.305056 0.712112 -0.364155
C17   C     C_R   0.248593 0.462320 0.979844 0.034860
C18   C     C_R   0.062639 0.567240 0.972650 0.015887
C19   C     C_R   0.175560 0.514315 0.950932 0.053820
C20   C     C_R   0.333534 0.402754 0.953845 -0.111720
C21   C     C_R   0.363848 0.399378 0.902989 -0.071947
C22   C     C_R   0.308704 0.455391 0.875676 -0.030060
C23   C     C_3   0.519132 0.648700 0.630478 0.303114
C24   C     C_R   0.214848 0.513365 0.899897 -0.085176
C25   C     C_R   0.159361 0.570328 0.873318 -0.032748
C26   C     C_R   0.196132 0.567937 0.822356 0.590062
C27   C     C_R   0.341298 0.453778 0.824450 0.579060
C28   C     C_3   0.049140 0.310334 0.398194 0.263103
C29   C     C_2   0.472178 0.496010 0.729312 -0.064759
C30   C     C_3   0.506563 0.495869 0.674309 -0.048378
C31   C     C_1   0.214937 0.516140 0.658238 0.028927
C32   C     C_2   0.181449 0.517895 0.706123 -0.114207
C33   C     C_2   0.317360 0.507130 0.744978 0.204088
C34   C     C_3   0.504210 0.677804 0.685588 -0.373867
C35   C     C_R   0.227944 0.470879 0.033048 -0.043063
C36   C     C_R   0.092519 0.515770 0.051489 0.022803
C37   C     C_R   0.997403 0.558720 0.019278 0.026416
C38   C     C_R   0.335614 0.437310 0.068349 -0.022244
C39   C     C_R   0.802192 0.588183 0.085122 -0.070656
C40   C     C_3   0.063029 0.234663 0.369793 -0.246203
C41   C     C_R   0.026655 0.628036 0.948025 -0.126682
C42   C     C_R   0.071525 0.629129 0.898867 -0.062724
C43   C     C_R   0.841885 0.589660 0.035208 0.052026
C44   C     C_2   0.396270 0.297654 0.512816 -0.228995
C45   C     C_3   0.018325 0.706314 0.344739 0.353691
C46   C     C_3   0.332826 0.257942 0.551529 -0.020484
C47   C     C_2   0.377268 0.179007 0.542232 -0.155048
C48   C     C_2   0.513568 0.155449 0.517654 -0.071145
C49   C     C_2   0.605509 0.209685 0.496892 -0.146875
C50   C     C_1   0.537351 0.275100 0.493513 0.047316
C51   C     C_R   0.664230 0.935958 0.499963 0.493798
C52   C     C_3   0.014786 0.682827 0.583719 0.306783
C53   C     C_R   0.568498 0.077968 0.511454 0.453435
C54   C     C_R   0.619446 0.809632 0.512841 -0.129391
C55   C     C_R   0.663657 0.736261 0.506204 0.053979
C56   C     C_3   0.984917 0.749200 0.300894 -0.249949
C57   C     C_R   0.900826 0.757436 0.463179 -0.006218
C58   C     C_R   0.857454 0.831021 0.469191 -0.070238
C59   C     C_R   0.714031 0.858033 0.493526 -0.030214
C60   C     C_R   0.799333 0.710569 0.479404 -0.258929
C61   C     C_3   0.997740 0.763131 0.598599 -0.378880
C62   C     C_3   0.514651 0.265511 0.375291 0.298287
C63   C     C_3   0.573302 0.210966 0.330289 -0.090338
C64   C     C_3   0.999423 0.178422 0.397960 -0.252824
C65   C     C_3   0.129350 0.149712 0.434228 -0.337024
C66   C     C_3   0.518465 0.235645 0.278678 -0.217787
C67   C     C_3   0.528984 0.715696 0.310417 0.755834
C68   C     C_3   0.336084 0.232038 0.264055 -0.357339
C69   C     C_3   0.519324 0.134553 0.332290 -0.235769
C70   C     C_3   0.621420 0.093772 0.369611 -0.363652
C71   C     C_3   0.706391 0.199586 0.705896 -0.185361
C72   C     C_3   0.862955 0.153770 0.693905 -0.440304
C73   C     C_3   0.514706 0.417683 0.057084 -0.179117
C74   C     C_3   0.564295 0.337587 0.048161 -0.301984
C75   C     C_3   0.709086 0.620638 0.000586 -0.226242
C76   C     C_3   0.551217 0.582443 0.997078 -0.416560
C77   C     C_3   0.468587 0.694983 0.255840 -0.310924
C78   C     C_R   0.134685 0.508690 0.189252 0.648107
H1    H     H_    0.794339 0.281548 0.634993 0.104637
H2    H     H_    0.473748 0.235622 0.404167 -0.089196
H3    H     H_    0.623204 0.173513 0.627456 0.082684
H4    H     H_    0.708565 0.207410 0.332309 0.101134
H5    H     H_    0.597673 0.291919 0.603870 -0.006694
H6    H     H_    0.478972 0.225961 0.665959 0.100573
H7    H     H_    0.395837 0.635859 0.614537 0.027047
H8    H     H_    0.602581 0.599815 0.627321 0.030535
H9    H     H_    0.430650 0.729548 0.689062 0.138421
H10   H     H_    0.442568 0.640305 0.705149 0.076431
H11   H     H_    0.627058 0.685773 0.703870 0.125435
H12   H     H_    0.191499 0.219469 0.361602 0.107457
H13   H     H_    0.190737 0.345806 0.739049 0.132921
H14   H     H_    0.072377 0.652451 0.330863 0.021062
H15   H     H_    0.899412 0.701362 0.360951 -0.076090
H16   H     H_    0.098524 0.753218 0.282023 0.140532
H17   H     H_    0.897337 0.723080 0.272818 0.043974
H18   H     H_    0.933495 0.803607 0.314548 0.175571
H19   H     H_    0.661595 0.704973 0.315081 -0.170433
H20   H     H_    0.545903 0.717249 0.230162 0.104772
H21   H     H_    0.340830 0.715414 0.249441 0.111763
H22   H     H_    0.101365 0.373378 0.654738 0.085858
H23   H     H_    0.995617 0.234262 0.332865 0.098667
H24   H     H_    0.473662 0.636189 0.246223 0.127316
H25   H     H_    0.130150 0.448419 0.278711 0.177497
H26   H     H_    0.574031 0.490980 0.756392 0.100505
H27   H     H_    0.430862 0.352460 0.885117 0.120869
H28   H     H_    0.371111 0.356684 0.971763 0.088838
H29   H     H_    0.753509 0.618586 0.260513 0.094638
H30   H     H_    0.687876 0.614351 0.097791 0.116279
H31   H     H_    0.963782 0.675387 0.966755 0.076751
H32   H     H_    0.287261 0.316936 0.653053 -0.008531
H33   H     H_    0.035120 0.675859 0.880729 0.122540
H34   H     H_    0.895948 0.663577 0.569291 -0.002049
H35   H     H_    0.056518 0.526717 0.717282 0.123973
H36   H     H_    0.355655 0.454192 0.604834 0.064970
H37   H     H_    0.306862 0.142978 0.558930 0.106557
H38   H     H_    0.724777 0.194256 0.482764 0.108545
H39   H     H_    0.514283 0.828774 0.534243 0.100383
H40   H     H_    0.936615 0.866715 0.455866 0.103963
H41   H     H_    0.328627 0.345313 0.502456 0.052239
H42   H     H_    0.999338 0.308244 0.719155 0.129636
H43   H     H_    0.834309 0.654057 0.475306 0.041131
H44   H     H_    0.186352 0.251428 0.718039 0.117820
H45   H     H_    0.103733 0.670636 0.554024 0.068292
H46   H     H_    0.087181 0.309768 0.438395 0.060510
H47   H     H_    0.922556 0.332722 0.393902 0.072564
H48   H     H_    0.225365 0.116235 0.413193 0.124274
H49   H     H_    0.187019 0.194243 0.457660 0.122092
H50   H     H_    0.073310 0.116675 0.458762 0.161855
H51   H     H_    0.889899 0.200593 0.418065 0.136178
H52   H     H_    0.964516 0.133004 0.370126 0.127588
H53   H     H_    0.293222 0.178561 0.266051 0.113299
H54   H     H_    0.262478 0.272896 0.287987 0.166470
H55   H     H_    0.313976 0.242843 0.224676 0.192816
H56   H     H_    0.901952 0.776966 0.626248 0.136858
H57   H     H_    0.549082 0.291130 0.277919 0.235785
H58   H     H_    0.587962 0.202042 0.249030 0.125678
H59   H     H_    0.738925 0.073022 0.353577 0.142539
H60   H     H_    0.644033 0.128053 0.405446 0.116312
H61   H     H_    0.556201 0.047467 0.377167 0.179747
H62   H     H_    0.390178 0.136702 0.341883 0.113017
H63   H     H_    0.528730 0.102315 0.294792 0.149226
H64   H     H_    0.833704 0.101567 0.672705 0.145535
H65   H     H_    0.940925 0.180661 0.671250 0.177985
H66   H     H_    0.931840 0.144140 0.729347 0.130789
H67   H     H_    0.964099 0.790618 0.565376 0.052590
H68   H     H_    0.735515 0.248525 0.731387 0.162950
H69   H     H_    0.629247 0.168807 0.726464 0.121851
H70   H     H_    0.470993 0.808606 0.406625 0.355685
H71   H     H_    0.435778 0.260444 0.140918 0.349230
H72   H     H_    0.631406 0.319864 0.081714 0.191319
H73   H     H_    0.457532 0.305236 0.038477 0.163655
H74   H     H_    0.648113 0.326403 0.016824 0.088499
H75   H     H_    0.547770 0.441845 0.024355 0.087729
H76   H     H_    0.593793 0.443333 0.088148 0.157368
H77   H     H_    0.572044 0.528033 0.976753 0.136767
H78   H     H_    0.115326 0.782242 0.615536 0.125550
H79   H     H_    0.503801 0.579758 0.034403 0.134008
H80   H     H_    0.456381 0.611545 0.975085 0.135318
H81   H     H_    0.682869 0.677985 0.014300 0.114068
H82   H     H_    0.742575 0.616058 0.961257 0.122779
H83   H     H_    0.797769 0.320264 0.316624 0.317926
H84   H     H_    0.407789 0.297008 0.362507 0.122475
N1    N     N_R   0.981371 0.533924 0.205570 -0.427286
N2    N     N_R   0.284224 0.509534 0.798045 -0.425764
N3    N     N_R   0.523966 0.960578 0.522351 -0.243000
N4    N     N_R   0.477318 0.029811 0.527954 -0.244346
N5    N     N_R   0.709126 0.053535 0.489055 -0.252164
N6    N     N_R   0.755866 0.984067 0.483391 -0.234303
O1    O     O_2   0.914730 0.537460 0.618690 -0.469718
O2    O     O_2   0.238879 0.752672 0.472268 -0.476363
O3    O     O_3   0.129672 0.740882 0.379453 -0.531686
O4    O     O_3   0.146720 0.537410 0.558510 -0.495159
O5    O     O_3   0.553920 0.415280 0.473710 -0.446192
O6    O     O_2   0.383540 0.672140 0.526840 -0.462655
O7    O     O_3   0.583163 0.700469 0.606233 -0.643041
O8    O     O_2   0.416056 0.543900 0.323311 -0.366905
O9    O     O_3   0.445999 0.680643 0.342981 -0.603435
O10   O     O_2   0.251623 0.509082 0.219255 -0.503662
O11   O     O_2   0.419292 0.402327 0.803276 -0.598514
O12   O     O_3   0.633711 0.314440 0.393306 -0.612407
O13   O     O_2   0.722662 0.567235 0.179296 -0.580537
O14   O     O_2   0.150648 0.618181 0.799775 -0.596083
O15   O     O_3   0.666360 0.409390 0.586570 -0.488391
O16   O     O_2   0.835413 0.441084 0.673399 -0.507772
O17   O     O_3   0.067491 0.651168 0.626273 -0.625315
O18   O     O_3   0.623079 0.345784 0.675665 -0.606227
O19   O     O_2   0.806150 0.327840 0.473120 -0.487597
O20   O     O_3   0.073640 0.373350 0.561550 -0.479791
O21   O     O_2   0.990424 0.242241 0.528518 -0.495560
O22   O     O_2   0.600063 0.847641 0.296795 -0.290266
O23   O     O_3   0.076464 0.267969 0.624722 -0.616113
O24   O     O_2   0.320978 0.834198 0.318457 -0.278873
O25   O     O_3   0.550622 0.830739 0.388443 -0.511414
O26   O     O_2   0.558146 0.385479 0.167592 -0.238574
O27   O     O_2   0.297923 0.374139 0.204167 -0.256367
O28   O     O_3   0.362030 0.293340 0.122968 -0.555571
O29   O     O_2   0.563581 0.413218 0.340197 -0.289859
O30   O     O_2   0.620660 0.452028 0.261232 -0.153541
O31   O     O_3   0.814450 0.351800 0.291451 -0.543228
O32   O     O_2   0.274960 0.462520 0.381280 -0.381406
O33   O     O_3   0.042980 0.462530 0.441480 -0.505001
O34   O     O_3   0.523340 0.590550 0.413420 -0.446637
O35   O     O_3   0.154804 0.350256 0.376986 -0.647783
O36   O     O_3   0.635780 0.584660 0.526290 -0.475132
O37   O     O_3   0.116060 0.626590 0.438450 -0.498655
P1    P     P_3+3 0.084800 0.558370 0.611580 0.993436
P2    P     P_3+3 0.628800 0.338360 0.458800 1.024092
P3    P     P_3+3 0.115788 0.283048 0.564239 0.933971
P4    P     P_3+3 0.104900 0.441570 0.388420 1.023966
P5    P     P_3+3 0.097213 0.719745 0.439105 0.996212
P6    P     P_3+3 0.661737 0.424626 0.652181 0.966264
P7    P     P_3+3 0.569658 0.674631 0.541394 0.955595
P8    P     P_3+3 0.540501 0.595751 0.349543 1.056315
S1    S     S_3+6 0.496613 0.809824 0.327468 -0.037343
S2    S     S_3+6 0.380717 0.374203 0.156004 -0.042001
S3    S     S_3+6 0.697372 0.426624 0.308189 -0.049888

loop_
_geom_bond_atom_site_label_1
_geom_bond_atom_site_label_2
_ccdc_geom_bond_type
C34   H9    S    
C19   C24   A    
C28   H46   S    
C31   P1    S    
O30   S3    D    
C71   C72   S    
C72   H65   S    
C66   H58   S    
Ba2   O32   S    
O32   P4    D    
C62   H84   S    
C40   H23   S    
C49   H38   S    
O26   S2    D    
C55   C60   A    
C75   C76   S    
C2    N1    Am   
O29   S3    D    
O34   P8    S    
Ba2   P4    S    
C27   O11   D    
O8    P8    D    
C78   O10   D    
C17   C19   A    
C22   C24   A    
O31   S3    S    
C32   C33   S    
C35   C38   A    
O24   S1    D    
C36   C37   A    
C23   O7    S    
C52   C61   S    
O35   P4    S    
C65   H50   S    
C7    H25   S    
O16   P6    D    
C44   C50   D    
C74   H73   S    
C23   H7    S    
C33   N2    S    
C54   C55   A    
Ba1   Ba2   S    
N5    N6    A    
Ba1   P1    S    
C56   H16   S    
C22   C27   A    
C11   C38   A    
C17   C35   A    
Ba2   O6    S    
C77   H21   S    
C9    C13   A    
C73   H76   S    
C51   N3    A    
C70   H59   S    
H83   O31   S    
C6    C7    D    
C56   H18   S    
O17   P1    S    
C68   H53   S    
C21   C22   A    
C40   C64   S    
C44   H41   S    
C14   S3    S    
Ba2   O36   S    
C6    P4    S    
C7    C8    S    
C40   H12   S    
C26   N2    Am   
C37   C43   A    
C62   O12   S    
Ba1   O20   S    
O36   P7    S    
C4    H22   S    
C64   C65   S    
C57   C58   A    
C6    C14   D    
C61   H78   S    
C1    H6    S    
O4    P1    S    
H71   O28   S    
O33   P4    S    
C66   H57   S    
C65   H49   S    
C56   H17   S    
C15   C31   D    
C53   N4    A    
O27   S2    D    
C25   C42   A    
C61   H67   S    
C60   H43   S    
C31   C32   D    
C64   H52   S    
C75   H81   S    
C70   H61   S    
C4    C16   S    
C52   H45   S    
C44   C46   S    
Ba1   O4    S    
C71   H68   S    
Ba1   P2    S    
C49   C50   D    
C77   H20   S    
C17   C20   A    
Ba2   O34   S    
C13   C39   A    
N3    N4    A    
C3    C5    S    
C18   C37   A    
C63   H4    S    
O21   P3    D    
C32   H35   S    
C63   C69   S    
C28   O35   S    
Ba1   O1    S    
C23   H8    S    
C58   C59   A    
C27   N2    Am   
C9    C36   A    
C73   C74   S    
C35   C36   A    
Ba2   O5    S    
C12   O18   S    
C76   H77   S    
C29   C30   S    
C9    C10   A    
C63   C66   S    
C21   H27   S    
C48   C49   S    
C24   C25   A    
C54   C59   A    
C18   C19   A    
Ba1   O36   S    
C62   H2    S    
O25   S1    S    
C45   O3    S    
C1    C12   S    
C51   N6    A    
C16   H42   S    
C69   H62   S    
C67   S1    S    
C30   P6    S    
C67   H19   S    
C34   H11   S    
C76   H80   S    
C46   C47   S    
C46   P3    S    
C42   H33   S    
C52   O17   S    
C41   C42   A    
C1    H3    S    
C68   H55   S    
C54   H39   S    
O6    P7    D    
C77   H24   S    
C67   C77   S    
O3    P5    S    
O12   P2    S    
C51   C59   S    
Ba1   O33   S    
C78   N1    Am   
C18   C41   A    
C57   P5    S    
C69   H63   S    
C64   H51   S    
C53   N5    A    
C34   H10   S    
C75   H82   S    
C16   H13   S    
C72   H64   S    
C28   H47   S    
Ba1   O5    S    
C57   C60   A    
C39   C43   A    
C71   H69   S    
C10   C78   A    
C4    H32   S    
O7    P7    S    
C72   H66   S    
C5    C14   S    
Ba2   O33   S    
O37   P5    S    
C12   H5    S    
O2    P5    D    
O18   P6    S    
Ba1   O15   S    
C41   H31   S    
C48   C53   S    
C45   H15   S    
C38   C73   S    
C39   H30   S    
C62   C63   S    
C2    C13   A    
C26   O14   D    
C3    C8    D    
O19   P2    D    
C65   H48   S    
C67   O9    S    
C45   C56   S    
O23   P3    S    
C50   P2    S    
C3    H29   S    
C8    N1    S    
C20   H28   S    
C52   H34   S    
C74   H74   S    
C29   H26   S    
C45   H14   S    
O15   P6    S    
C58   H40   S    
C29   C33   D    
O5    P2    S    
C2    O13   D    
O20   P3    S    
C1    C71   S    
C5    P8    S    
H70   O25   S    
C23   C34   S    
O28   S2    S    
C55   P7    S    
C73   H75   S    
C76   H79   S    
C70   H60   S    
C69   C70   S    
C10   C11   A    
C66   C68   S    
C47   C48   D    
C47   H37   S    
O9    P8    S    
C25   C26   A    
C68   H54   S    
C15   C30   S    
C74   H72   S    
C20   C21   A    
C28   C40   S    
C61   H56   S    
C43   C75   S    
Ba2   O37   S    
C12   H1    S    
C11   S2    S    
O1    P1    D    
O22   S1    D    
C4    O23   S    
Ba2   O4    S    
C15   H36   S    
C16   H44   S    
Ba1   O19   S    
