data_mof_unit_31875.cif
_audit_creation_date              2012-12-11T14:03:37-0500
_audit_creation_method            fapswitch 2.2
_symmetry_space_group_name_H-M    P1
_symmetry_Int_Tables_number       1
_space_group_crystal_system       triclinic
_cell_length_a                    6.936645
_cell_length_b                    11.41135
_cell_length_c                    18.674653
_cell_angle_alpha                 89.99928
_cell_angle_beta                  92.805473
_cell_angle_gamma                 89.999959
_cell_volume                      1476.44817386

loop_
_atom_site_label
_atom_site_type_symbol
_atom_type_description
_atom_site_fract_x
_atom_site_fract_y
_atom_site_fract_z
_atom_type_partial_charge
O1    O     O_R   0.330540 0.606360 0.598870 -0.538355
O2    O     O_R   0.669460 0.106360 0.401130 -0.538354
O3    O     O_R   0.026770 0.620470 0.750430 -0.540428
O4    O     O_R   0.973230 0.120470 0.249570 -0.540413
O5    O     O_R   0.856460 0.393640 0.750930 -0.538812
O6    O     O_R   0.143540 0.893640 0.249070 -0.538803
C1    C     C_R   0.198546 0.648342 0.774561 0.690261
C2    C     C_R   0.801456 0.148343 0.225439 0.690261
O7    O     O_R   0.000920 0.620350 0.599420 -0.549393
O8    O     O_R   0.999080 0.120350 0.400580 -0.549397
O9    O     O_R   0.830430 0.393520 0.598850 -0.538551
O10   O     O_R   0.169570 0.893520 0.401150 -0.538551
C3    C     C_R   0.166697 0.647854 0.574529 0.764102
C4    C     C_R   0.833303 0.147854 0.425471 0.764095
O11   O     O_R   0.356570 0.606480 0.750960 -0.537956
O12   O     O_R   0.643430 0.106480 0.249040 -0.537976
O13   O     O_3   0.176990 0.425580 0.674890 -0.373943
O14   O     O_3   0.823010 0.925580 0.325110 -0.373941
V1    V     V_3+5 0.902170 0.513810 0.674910 1.420406
V2    V     V_3+5 0.097830 0.013810 0.325090 1.420416
O15   O     O_R   0.500800 0.379530 0.599380 -0.549696
O16   O     O_R   0.499200 0.879530 0.400620 -0.549693
C5    C     C_R   0.666591 0.352026 0.574501 0.763346
C6    C     C_R   0.333409 0.852026 0.425499 0.763354
O17   O     O_R   0.526650 0.379650 0.750390 -0.540708
O18   O     O_R   0.473350 0.879650 0.249610 -0.540714
C7    C     C_R   0.698449 0.351440 0.774328 0.700400
C8    C     C_R   0.301548 0.851442 0.225671 0.700391
V3    V     V_3+5 0.402160 0.486190 0.674900 1.420147
V4    V     V_3+5 0.597840 0.986190 0.325100 1.420141
O19   O     O_3   0.677210 0.574420 0.674910 -0.372873
O20   O     O_3   0.322790 0.074420 0.325090 -0.372875
C9    C     C_R   0.703878 0.070884 0.879222 -0.111695
C10   C     C_R   0.295539 0.570874 0.120791 -0.111720
H1    H     H_    0.677152 0.115344 0.767595 0.107984
H2    H     H_    0.322238 0.615337 0.232416 0.107988
H3    H     H_    0.690988 0.977951 0.868044 0.180899
H4    H     H_    0.308129 0.477935 0.131975 0.180902
C11   C     C_R   0.713576 0.268906 0.834177 -0.037681
C12   C     C_R   0.286393 0.768910 0.165823 -0.037689
C13   C     C_R   0.801249 0.350740 0.180551 -0.181615
C14   C     C_R   0.199148 0.850755 0.819438 -0.181627
C15   C     C_R   0.794447 0.432450 0.125380 -0.120641
C16   C     C_R   0.206099 0.932473 0.874604 -0.120757
C17   C     C_R   0.774403 0.396135 0.054194 -0.027457
C18   C     C_R   0.225969 0.896149 0.945795 -0.027410
C19   C     C_R   0.760193 0.275572 0.036225 0.113904
C20   C     C_R   0.239861 0.775571 0.963773 0.113952
C21   C     C_R   0.765325 0.192273 0.093225 -0.023869
C22   C     C_R   0.234519 0.692261 0.906778 -0.023922
C23   C     C_R   0.741281 0.234963 0.963775 0.025944
C24   C     C_R   0.258665 0.734961 0.036226 0.025965
C25   C     C_R   0.725754 0.112413 0.950048 0.002553
C26   C     C_R   0.273826 0.612402 0.049961 0.002490
C27   C     C_R   0.731388 0.032593 0.007006 0.568733
C28   C     C_R   0.267969 0.532572 0.993009 0.568779
C29   C     C_R   0.751242 0.071919 0.077312 -0.287415
C30   C     C_R   0.248247 0.571895 0.922700 -0.287416
C31   C     C_R   0.736477 0.311768 0.904204 -0.120167
C32   C     C_R   0.263697 0.811773 0.095792 -0.120075
C33   C     C_R   0.696456 0.148752 0.821780 -0.214476
C34   C     C_R   0.303125 0.648748 0.178229 -0.214502
C35   C     C_R   0.786314 0.231133 0.165305 -0.038001
C36   C     C_R   0.213713 0.731128 0.834694 -0.037968
H5    H     H_    0.747666 0.405483 0.910050 0.094825
H6    H     H_    0.252800 0.905490 0.089940 0.094832
H7    H     H_    0.818657 0.380858 0.235519 0.100967
H8    H     H_    0.181923 0.880884 0.764464 0.100966
H9    H     H_    0.770613 0.464980 0.014754 0.105442
H10   H     H_    0.229888 0.965003 0.985230 0.105491
H11   H     H_    0.805652 0.524960 0.137823 0.133312
H12   H     H_    0.195180 0.025000 0.862153 0.133324
H13   H     H_    0.755109 0.006561 0.119382 0.153582
H14   H     H_    0.244194 0.506530 0.880634 0.153561
C37   C     C_2   0.831981 0.233673 0.484686 -0.350718
C38   C     C_2   0.168018 0.733674 0.515314 -0.350725
H15   H     H_    0.969636 0.270437 0.503712 0.149860
H16   H     H_    0.030363 0.770437 0.496287 0.149862
C39   C     C_2   0.667929 0.266197 0.515291 -0.350163
C40   C     C_2   0.332071 0.766197 0.484709 -0.350170
H17   H     H_    0.530275 0.229435 0.496264 0.149799
H18   H     H_    0.469726 0.729434 0.503737 0.149801
F1    F     F_    0.717640 0.915426 0.994762 -0.701876
F2    F     F_    0.281358 0.415397 0.005261 -0.701847

loop_
_geom_bond_atom_site_label_1
_geom_bond_atom_site_label_2
_ccdc_geom_bond_type
C21   C35   A    
C22   C36   A    
O4    C2    A    
V1    O19   S    
C21   C29   A    
C19   C21   A    
O9    V1    S    
C12   C32   A    
C38   H16   S    
O3    C1    A    
C28   F2    S    
C8    C12   S    
O12   V4    S    
C10   C34   A    
C12   C34   A    
O17   V3    S    
O7    V1    S    
C17   C19   A    
C29   H13   S    
O7    C3    A    
C24   C32   A    
O5    C7    A    
C6    C40   S    
O6    C8    A    
C7    C11   S    
O3    V1    S    
O14   V4    S    
C20   C22   A    
C32   H6    S    
C2    O12   A    
C14   H8    S    
C13   C15   A    
C14   C16   A    
H2    C34   S    
C24   C26   A    
O11   V3    S    
C18   C20   A    
C25   C27   A    
C9    C25   A    
C11   C33   A    
C26   C28   A    
C17   H9    S    
C22   C30   A    
C13   H7    S    
C40   H18   S    
O8    C4    A    
O8    V2    S    
C39   H17   S    
C19   C23   A    
C1    O11   A    
C16   C18   A    
O15   V3    S    
C9    H3    S    
C23   C25   A    
C37   H15   S    
C3    C38   S    
C11   C31   A    
O10   V2    S    
O1    V3    S    
H1    C33   S    
C15   C17   A    
C10   C26   A    
C27   C29   A    
O16   C6    A    
O1    C3    A    
C13   C35   A    
C27   F1    S    
C14   C36   A    
C30   H14   S    
V2    O20   S    
C15   H11   S    
O16   V4    S    
C10   H4    S    
C38   C40   D    
O18   V4    S    
O5    V1    S    
O17   C7    A    
O6    V2    S    
O10   C6    A    
O18   C8    A    
O2    V4    S    
C4    C37   S    
O15   C5    A    
V3    O19   S    
O13   V3    S    
C31   H5    S    
V4    O20   S    
O9    C5    A    
O13   V1    S    
C28   C30   A    
C16   H12   S    
O14   V2    S    
O2    C4    A    
C1    C36   S    
C18   H10   S    
C2    C35   S    
O4    V2    S    
C20   C24   A    
C23   C31   A    
C9    C33   A    
C5    C39   S    
C37   C39   D    
