data_mof_unit_7484.cif
_audit_creation_date              2012-12-11T16:51:23-0500
_audit_creation_method            fapswitch 2.2
_symmetry_space_group_name_H-M    P1
_symmetry_Int_Tables_number       1
_space_group_crystal_system       triclinic
_cell_length_a                    24.517918
_cell_length_b                    17.340234
_cell_length_c                    15.615344
_cell_angle_alpha                 89.541276
_cell_angle_beta                  129.377008
_cell_angle_gamma                 89.707335
_cell_volume                      5131.11009347

loop_
_atom_site_label
_atom_site_type_symbol
_atom_type_description
_atom_site_fract_x
_atom_site_fract_y
_atom_site_fract_z
_atom_type_partial_charge
C1    C     C_R   0.832971 0.890364 0.200281 0.764079
C2    C     C_R   0.180750 0.125579 0.497346 -0.206202
C3    C     C_3   0.376858 0.752672 0.710303 -0.044782
C4    C     C_3   0.873404 0.506433 0.696810 -0.002521
C5    C     C_3   0.134482 0.503719 0.322909 -0.044778
C6    C     C_3   0.356788 0.004048 0.673731 -0.077565
C7    C     C_3   0.635765 0.004690 0.320672 -0.043602
C8    C     C_3   0.768492 0.342932 0.240672 -0.107603
C9    C     C_3   0.355683 0.127824 0.065855 -0.071163
C10   C     C_3   0.249142 0.812296 0.227968 -0.065685
C11   C     C_3   0.732171 0.842436 0.763885 -0.103869
C12   C     C_3   0.315577 0.958139 0.150804 -0.112234
C13   C     C_R   0.316682 0.619707 0.500435 -0.250715
C14   C     C_3   0.647300 0.946917 0.868850 -0.035160
C15   C     C_3   0.847218 0.453564 0.131191 -0.053707
C16   C     C_3   0.247689 0.297748 0.833494 -0.130237
C17   C     C_3   0.150100 0.872139 0.339301 -0.198786
C18   C     C_3   0.845562 0.874542 0.655469 -0.211189
C19   C     C_3   0.648320 0.371300 0.338229 -0.195556
C20   C     C_3   0.351293 0.370387 0.660420 -0.160994
C21   C     C_3   0.055221 0.836671 0.916211 -0.050147
C22   C     C_3   0.914906 0.919107 0.043586 -0.229142
C23   C     C_3   0.582491 0.407346 0.956750 -0.233445
C24   C     C_R   0.683972 0.617747 0.500205 -0.250938
C25   C     C_3   0.436131 0.357391 0.068277 -0.123374
C26   C     C_3   0.256459 0.034718 0.850719 0.225670
C27   C     C_3   0.735255 0.100629 0.108170 0.230145
C28   C     C_3   0.766928 0.603526 0.895952 0.210817
C29   C     C_3   0.234705 0.595370 0.110992 0.219358
C30   C     C_3   0.945324 0.039070 0.767920 0.131450
C31   C     C_3   0.053116 0.045452 0.230921 0.107326
C32   C     C_3   0.448983 0.543184 0.771238 0.114264
C33   C     C_3   0.551033 0.547221 0.228770 0.140843
C34   C     C_R   0.879366 0.183917 0.207159 -0.273428
C35   C     C_R   0.141968 0.146735 0.845439 -0.351940
C36   C     C_R   0.377737 0.683896 0.207057 -0.275670
C37   C     C_R   0.621419 0.681424 0.795271 -0.282129
C38   C     C_R   0.858108 0.690793 0.590983 -0.157726
C39   C     C_R   0.142686 0.689314 0.417380 -0.179115
C40   C     C_R   0.357123 0.189382 0.584032 -0.204945
C41   C     C_R   0.163782 0.879771 0.794000 0.684324
C42   C     C_R   0.641736 0.189109 0.414876 -0.138582
C43   C     C_R   0.834615 0.735225 0.497582 -0.092282
C44   C     C_R   0.167373 0.734788 0.509144 -0.096412
C45   C     C_R   0.334764 0.233394 0.491444 -0.053707
C46   C     C_R   0.665180 0.232659 0.507660 -0.086083
C47   C     C_R   0.773816 0.707611 0.396955 0.672982
C48   C     C_R   0.230637 0.708883 0.609463 0.692716
C49   C     C_R   0.270634 0.210139 0.391445 0.688001
C50   C     C_R   0.728561 0.206186 0.607619 0.676411
C51   C     C_R   0.218479 0.179387 0.392623 0.386896
C52   C     C_R   0.333611 0.396857 0.196154 0.824556
C53   C     C_R   0.780233 0.173864 0.606142 0.406530
C54   C     C_R   0.722192 0.672106 0.395612 0.410574
C55   C     C_R   0.281661 0.674857 0.607803 0.406856
C56   C     C_R   0.236736 0.150513 0.493711 -0.057460
C57   C     C_R   0.761311 0.145207 0.505078 -0.058578
C58   C     C_R   0.739923 0.642277 0.496150 -0.053516
C59   C     C_R   0.261833 0.644304 0.506934 -0.055696
C60   C     C_R   0.309169 0.151183 0.586219 -0.326977
C61   C     C_R   0.689005 0.147202 0.413850 -0.363168
C62   C     C_R   0.811658 0.645716 0.589846 -0.366685
C63   C     C_R   0.667704 0.390814 0.801436 0.787958
C64   C     C_R   0.189256 0.645653 0.416527 -0.353758
C65   C     C_3   0.860577 0.640292 0.714766 1.199391
C66   C     C_3   0.137325 0.637942 0.292160 1.189269
C67   C     C_3   0.363565 0.138266 0.710442 1.205420
C68   C     C_3   0.637339 0.139211 0.289656 1.216269
C69   C     C_R   0.092314 0.858450 0.409699 0.578358
C70   C     C_R   0.907545 0.859160 0.592217 0.575247
C71   C     C_R   0.591275 0.357531 0.409674 0.572699
C72   C     C_R   0.409152 0.356531 0.590481 0.564010
C73   C     C_3   0.912988 0.687692 0.714732 0.453169
C74   C     C_R   0.882141 0.094038 0.590565 0.566735
C75   C     C_3   0.084920 0.684019 0.294623 0.485285
C76   C     C_3   0.416858 0.178349 0.705076 0.483968
C77   C     C_3   0.584052 0.183188 0.292147 0.421534
C78   C     C_2   0.192213 0.815334 0.960869 0.633345
C79   C     C_2   0.804456 0.828859 0.031007 0.629978
C80   C     C_2   0.697388 0.329575 0.972422 0.631139
C81   C     C_2   0.337416 0.290927 0.114588 0.550411
C82   C     C_2   0.248467 0.850326 0.051871 0.328833
C83   C     C_2   0.738232 0.854882 0.948572 0.332914
C84   C     C_2   0.761196 0.358511 0.055096 0.330404
C85   C     C_R   0.116779 0.096605 0.408191 0.621265
C86   C     C_2   0.287682 0.273128 0.010475 0.282178
C87   C     C_2   0.848729 0.254481 0.138454 0.685700
C88   C     C_2   0.181715 0.203922 0.930636 0.776316
C89   C     C_2   0.345165 0.755095 0.139771 0.725355
C90   C     C_2   0.652868 0.750060 0.865796 0.673137
C91   C     C_2   0.812522 0.305471 0.150977 0.278454
C92   C     C_2   0.251954 0.200606 0.991874 0.390564
C93   C     C_2   0.303095 0.799333 0.148191 0.261370
C94   C     C_2   0.689241 0.801378 0.854212 0.276991
C95   C     C_R   0.166362 0.859638 0.593316 0.758485
C96   C     C_R   0.382564 0.594017 0.591149 0.612138
C97   C     C_R   0.835833 0.858973 0.408810 0.752626
C98   C     C_R   0.663377 0.357175 0.592965 0.738087
C99   C     C_R   0.337951 0.357738 0.407252 0.763617
C100  C     C_R   0.074932 0.884571 0.798269 0.489574
C101  C     C_R   0.921857 0.891854 0.196549 0.565620
C102  C     C_R   0.578308 0.391329 0.804085 0.557819
C103  C     C_R   0.425485 0.389856 0.201336 0.497963
C104  C     C_R   0.851796 0.868521 0.137944 -0.368378
C105  C     C_R   0.143540 0.855831 0.853727 -0.285595
C106  C     C_R   0.355629 0.369351 0.141093 -0.326658
C107  C     C_R   0.617918 0.593746 0.409239 0.595989
C108  C     C_R   0.648995 0.368601 0.863951 -0.376050
C109  C     C_R   0.140842 0.812684 0.503355 -0.322708
C110  C     C_R   0.860606 0.812726 0.500500 -0.329867
C111  C     C_R   0.638487 0.310537 0.502796 -0.328275
C112  C     C_R   0.362645 0.310302 0.497422 -0.336448
C113  C     C_R   0.811127 0.103154 0.408336 0.777868
C114  C     C_R   0.186326 0.108887 0.588756 0.666842
C115  C     C_R   0.310911 0.602132 0.408926 0.766288
C116  C     C_R   0.689074 0.600421 0.591464 0.788355
C117  C     C_R   0.939891 0.143658 0.243507 0.616283
C118  C     C_R   0.816678 0.120915 0.499572 -0.236357
C119  C     C_R   0.072290 0.125508 0.786420 0.676721
C120  C     C_R   0.439218 0.644540 0.243940 0.630169
C121  C     C_R   0.560489 0.642346 0.757862 0.625026
C122  C     C_R   0.164466 0.113473 0.793227 0.379577
C123  C     C_R   0.847612 0.139098 0.236935 0.431366
C124  C     C_R   0.652599 0.637289 0.763798 0.438206
C125  C     C_R   0.346539 0.637660 0.236034 0.428159
C126  C     C_3   0.121738 0.256476 0.279711 -0.045039
C127  C     C_3   0.876041 0.250300 0.712339 -0.050755
C128  C     C_3   0.624154 0.747302 0.280626 -0.046079
F1    F     F_    0.765389 0.898158 0.159524 -0.581684
F2    F     F_    0.029856 0.639917 0.270408 -0.649137
F3    F     F_    0.467509 0.128369 0.722884 -0.655978
F4    F     F_    0.530283 0.137091 0.268678 -0.698315
F5    F     F_    0.847836 0.260856 0.050601 -0.629227
F6    F     F_    0.148117 0.271770 0.915397 -0.605676
F7    F     F_    0.346562 0.766664 0.054871 -0.616624
F8    F     F_    0.653131 0.754690 0.953046 -0.631842
F9    F     F_    0.185289 0.737579 0.960830 -0.712213
F10   F     F_    0.827349 0.760367 0.021409 -0.702526
F11   F     F_    0.678874 0.258522 0.983180 -0.703737
F12   F     F_    0.231093 0.873974 0.833277 -0.608584
F13   F     F_    0.355556 0.242641 0.199057 -0.667597
F14   F     F_    0.234642 0.861224 0.685858 -0.615863
F15   F     F_    0.770485 0.856252 0.309983 -0.587776
F16   F     F_    0.727185 0.351021 0.693977 -0.582478
F17   F     F_    0.275781 0.352180 0.304447 -0.583305
F18   F     F_    0.750679 0.081409 0.310462 -0.635361
F19   F     F_    0.248400 0.099883 0.689636 -0.659011
F20   F     F_    0.250473 0.579040 0.312129 -0.640612
F21   F     F_    0.748982 0.575300 0.689338 -0.633165
F22   F     F_    0.989417 0.173119 0.240498 -0.733705
F23   F     F_    0.265146 0.403586 0.151524 -0.600072
F24   F     F_    0.026713 0.159881 0.795468 -0.716011
F25   F     F_    0.489004 0.675512 0.242581 -0.734826
F26   F     F_    0.510830 0.671961 0.760872 -0.734384
F27   F     F_    0.760386 0.720357 0.299306 -0.585888
F28   F     F_    0.247357 0.724225 0.708678 -0.568596
F29   F     F_    0.256389 0.219105 0.292649 -0.567352
F30   F     F_    0.743742 0.216423 0.706689 -0.581826
F31   F     F_    0.735287 0.400891 0.843574 -0.583426
F32   F     F_    0.836050 0.682539 0.759450 -0.692974
F33   F     F_    0.156273 0.680344 0.239318 -0.716061
F34   F     F_    0.350740 0.183244 0.769107 -0.708538
F35   F     F_    0.655690 0.183098 0.236996 -0.692172
F36   F     F_    0.971706 0.645483 0.747585 -0.647780
H1    H     H_    0.926585 0.741512 0.760784 0.088458
H2    H     H_    0.932124 0.251301 0.788355 0.223273
H3    H     H_    0.541003 0.602714 0.185183 0.189418
H4    H     H_    0.652183 0.792388 0.271205 0.180368
H5    H     H_    0.623575 0.762157 0.349293 0.090928
H6    H     H_    0.568708 0.747453 0.202723 0.213875
H7    H     H_    0.347389 0.798171 0.716416 0.172258
H8    H     H_    0.375308 0.765085 0.638718 0.086098
H9    H     H_    0.432651 0.755226 0.786898 0.219607
H10   H     H_    0.894533 0.518469 0.652763 0.131648
H11   H     H_    0.815808 0.495392 0.636884 0.126766
H12   H     H_    0.899614 0.452909 0.746875 0.163335
H13   H     H_    0.066671 0.737291 0.244072 0.127896
H14   H     H_    0.116720 0.514643 0.371935 0.128200
H15   H     H_    0.192683 0.495348 0.378195 0.135720
H16   H     H_    0.110227 0.449128 0.277856 0.150594
H17   H     H_    0.372225 0.013305 0.621145 0.133725
H18   H     H_    0.298507 0.001017 0.622188 0.143928
H19   H     H_    0.378961 0.947348 0.716338 0.160622
H20   H     H_    0.616914 0.015231 0.368248 0.129580
H21   H     H_    0.694049 0.996852 0.377386 0.137854
H22   H     H_    0.612312 0.949910 0.275664 0.157871
H23   H     H_    0.716832 0.315258 0.177914 0.182638
H24   H     H_    0.439750 0.230021 0.757051 0.130664
H25   H     H_    0.766318 0.405384 0.221958 0.109246
H26   H     H_    0.779642 0.338102 0.321373 0.155284
H27   H     H_    0.396330 0.148776 0.150713 0.240975
H28   H     H_    0.357923 0.159146 0.005727 0.133506
H29   H     H_    0.371022 0.067032 0.069079 0.147829
H30   H     H_    0.205361 0.775327 0.162226 0.199051
H31   H     H_    0.234043 0.874233 0.207553 0.099883
H32   H     H_    0.257856 0.799203 0.305511 0.166759
H33   H     H_    0.784486 0.814263 0.826210 0.188892
H34   H     H_    0.733008 0.904354 0.782544 0.102532
H35   H     H_    0.564443 0.236303 0.241114 0.107888
H36   H     H_    0.720719 0.839865 0.682896 0.155769
H37   H     H_    0.312358 0.021421 0.152370 0.231445
H38   H     H_    0.359746 0.942492 0.151117 0.143623
H39   H     H_    0.326492 0.938027 0.227987 0.150972
H40   H     H_    0.636265 0.006301 0.880604 0.174027
H41   H     H_    0.612714 0.907445 0.871332 0.170062
H42   H     H_    0.634589 0.945768 0.786715 0.124014
H43   H     H_    0.883046 0.416159 0.128432 0.170555
H44   H     H_    0.860987 0.450529 0.214058 0.129569
H45   H     H_    0.855276 0.513889 0.117633 0.169887
H46   H     H_    0.150435 0.300176 0.269625 0.167235
H47   H     H_    0.244154 0.345720 0.782692 0.161392
H48   H     H_    0.196400 0.267754 0.781283 0.163109
H49   H     H_    0.291316 0.258749 0.855632 0.175769
H50   H     H_    0.183239 0.818999 0.371512 0.117256
H51   H     H_    0.180067 0.919272 0.399898 0.156812
H52   H     H_    0.140338 0.889044 0.261928 0.169980
H53   H     H_    0.814499 0.820888 0.627145 0.128461
H54   H     H_    0.814397 0.919986 0.589979 0.160422
H55   H     H_    0.852707 0.893530 0.729633 0.163150
H56   H     H_    0.681524 0.318282 0.368625 0.127829
H57   H     H_    0.122297 0.272301 0.349236 0.082775
H58   H     H_    0.678700 0.417686 0.400052 0.156910
H59   H     H_    0.637880 0.389751 0.260797 0.167131
H60   H     H_    0.317649 0.318634 0.629215 0.124577
H61   H     H_    0.321547 0.418411 0.598900 0.145338
H62   H     H_    0.361373 0.387482 0.737598 0.176887
H63   H     H_    0.104893 0.847274 0.000901 0.088830
H64   H     H_    0.055533 0.778703 0.886346 0.191441
H65   H     H_    0.012202 0.837128 0.921542 0.158790
H66   H     H_    0.874207 0.963130 0.020757 0.119477
H67   H     H_    0.890763 0.867491 0.990962 0.180332
H68   H     H_    0.066005 0.257682 0.202532 0.217100
H69   H     H_    0.948115 0.945239 0.026002 0.147915
H70   H     H_    0.624790 0.450098 0.986894 0.119192
H71   H     H_    0.604020 0.351635 0.002500 0.194727
H72   H     H_    0.548785 0.430944 0.975005 0.145201
H73   H     H_    0.382479 0.374659 0.993039 0.158803
H74   H     H_    0.438808 0.295419 0.089867 0.122320
H75   H     H_    0.472172 0.364894 0.048837 0.159660
H76   H     H_    0.227546 0.001710 0.773290 0.165069
H77   H     H_    0.253516 0.006707 0.911877 0.136405
H78   H     H_    0.312383 0.033726 0.885597 0.173791
H79   H     H_    0.847408 0.295347 0.721011 0.172009
H80   H     H_    0.747935 0.039182 0.134662 0.151622
H81   H     H_    0.738182 0.112271 0.040913 0.087615
H82   H     H_    0.679988 0.111490 0.073593 0.209274
H83   H     H_    0.756355 0.540975 0.880086 0.154419
H84   H     H_    0.765169 0.621324 0.962546 0.090139
H85   H     H_    0.821236 0.613323 0.926204 0.215868
H86   H     H_    0.242901 0.536127 0.143886 0.175739
H87   H     H_    0.242619 0.597517 0.048145 0.102907
H88   H     H_    0.178989 0.611851 0.068468 0.205317
H89   H     H_    0.989231 0.023526 0.769138 0.141002
H90   H     H_    0.874099 0.264412 0.640743 0.080227
H91   H     H_    0.941622 0.992157 0.812504 0.131743
H92   H     H_    0.954902 0.091862 0.814775 0.198107
H93   H     H_    0.010269 0.028007 0.231400 0.127798
H94   H     H_    0.057706 0.000540 0.185735 0.130902
H95   H     H_    0.040640 0.099742 0.183524 0.199746
H96   H     H_    0.492664 0.527314 0.771909 0.127180
H97   H     H_    0.446238 0.497842 0.818650 0.128285
H98   H     H_    0.458978 0.597412 0.815772 0.200809
H99   H     H_    0.507569 0.531991 0.228439 0.138283
H100  H     H_    0.552965 0.502820 0.180051 0.126339
N1    N     N_R   0.888400 0.921830 0.294620 -0.178312
N2    N     N_R   0.874350 0.922400 0.443380 -0.158249
N3    N     N_R   0.625650 0.422400 0.556620 -0.158065
N4    N     N_R   0.374350 0.422400 0.443380 -0.162704
N5    N     N_R   0.054230 0.922730 0.705400 -0.146723
N6    N     N_R   0.945770 0.922730 0.294600 -0.160947
N7    N     N_R   0.554230 0.422730 0.705400 -0.160866
N8    N     N_R   0.445770 0.422730 0.294600 -0.148839
N9    N     N_R   0.873790 0.077030 0.443380 -0.151798
N10   N     N_R   0.126210 0.077030 0.556620 -0.153993
N11   N     N_R   0.373790 0.577030 0.443380 -0.153769
N12   N     N_R   0.111600 0.921830 0.705380 -0.186823
N13   N     N_R   0.626210 0.577030 0.556620 -0.153880
N14   N     N_R   0.945200 0.076700 0.294600 -0.166030
N15   N     N_R   0.054800 0.076700 0.705400 -0.154786
N16   N     N_R   0.445200 0.576700 0.294600 -0.165642
N17   N     N_R   0.554800 0.576700 0.705400 -0.168046
N18   N     N_R   0.111030 0.077600 0.705380 -0.137096
N19   N     N_R   0.888970 0.077600 0.294620 -0.147218
N20   N     N_R   0.611030 0.577600 0.705380 -0.143482
N21   N     N_R   0.388970 0.577600 0.294620 -0.152243
N22   N     N_R   0.919490 0.077280 0.556590 -0.157501
N23   N     N_R   0.388400 0.421830 0.294620 -0.172181
N24   N     N_R   0.080510 0.077280 0.443410 -0.152819
N25   N     N_R   0.419490 0.577280 0.556590 -0.157743
N26   N     N_R   0.580510 0.577280 0.443410 -0.156986
N27   N     N_R   0.611600 0.421830 0.705380 -0.178005
N28   N     N_R   0.079940 0.922160 0.443410 -0.140502
N29   N     N_R   0.920060 0.922160 0.556590 -0.140066
N30   N     N_R   0.579940 0.422160 0.443410 -0.140957
N31   N     N_R   0.420060 0.422160 0.556590 -0.141280
N32   N     N_R   0.125650 0.922400 0.556620 -0.172948
Ni1   Ni    Ni4+2 0.882160 0.999430 0.370180 0.275927
Ni2   Ni    Ni4+2 0.117840 0.999430 0.629820 0.223414
Ni3   Ni    Ni4+2 0.382160 0.499430 0.370180 0.270504
Ni4   Ni    Ni4+2 0.617840 0.499430 0.629820 0.283452
Ni5   Ni    Ni4+2 0.012460 0.999430 0.370180 0.204981
Ni6   Ni    Ni4+2 0.987540 0.999430 0.629820 0.215578
Ni7   Ni    Ni4+2 0.512460 0.499430 0.370180 0.216022
Ni8   Ni    Ni4+2 0.487540 0.499430 0.629820 0.207377
O1    O     O_3   0.149681 0.181541 0.295039 -0.572089
O2    O     O_3   0.287397 0.129476 0.035486 -0.644251
O3    O     O_3   0.312328 0.796010 0.246239 -0.636843
O4    O     O_3   0.678949 0.802478 0.755210 -0.614999
O5    O     O_3   0.250799 0.930827 0.054554 -0.654256
O6    O     O_3   0.719168 0.929436 0.955143 -0.645223
O7    O     O_3   0.775971 0.434674 0.046588 -0.649185
O8    O     O_3   0.260245 0.329293 0.927503 -0.600906
O9    O     O_3   0.084380 0.858663 0.314031 -0.572393
O10   O     O_3   0.912947 0.861332 0.685624 -0.593973
O11   O     O_3   0.582994 0.356656 0.313787 -0.588309
O12   O     O_3   0.849313 0.176095 0.702678 -0.581271
O13   O     O_3   0.416772 0.353751 0.685791 -0.574637
O14   O     O_3   0.042067 0.896783 0.843730 -0.626030
O15   O     O_3   0.958686 0.897446 0.156687 -0.559880
O16   O     O_3   0.540036 0.395378 0.841689 -0.564724
O17   O     O_3   0.458723 0.405685 0.157254 -0.607075
O18   O     O_3   0.232272 0.111915 0.829244 -0.617995
O19   O     O_3   0.779748 0.149554 0.198890 -0.558414
O20   O     O_3   0.719439 0.647295 0.798030 -0.555520
O21   O     O_3   0.278702 0.646512 0.198666 -0.585055
O22   O     O_3   0.881114 0.044093 0.659788 -0.645730
O23   O     O_3   0.653929 0.673236 0.296872 -0.578885
O24   O     O_3   0.118266 0.049504 0.337975 -0.645191
O25   O     O_3   0.383828 0.545588 0.663888 -0.644504
O26   O     O_3   0.616356 0.546488 0.336102 -0.644802
O27   O     O_3   0.351075 0.678333 0.703247 -0.576082
O28   O     O_3   0.888475 0.566926 0.768863 -0.552973
O29   O     O_3   0.112062 0.563547 0.244505 -0.548568
O30   O     O_3   0.384592 0.061578 0.754875 -0.567930
O31   O     O_3   0.613803 0.064460 0.242344 -0.557328
O32   O     O_3   0.822874 0.304364 0.250030 -0.618701

loop_
_geom_bond_atom_site_label_1
_geom_bond_atom_site_label_2
_ccdc_geom_bond_type
C36   C89   S    
C72   C112  A    
C87   C91   D    
C127  H90   S    
C7    H22   S    
C27   H80   S    
C52   N23   A    
N17   N20   A    
C123  O19   S    
C41   C105  A    
N4    Ni3   S    
C1    F1    S    
C119  N15   A    
N5    Ni6   S    
C76   F3    S    
C9    H29   S    
C120  N16   A    
C74   N22   A    
C12   H39   S    
N16   N21   A    
C5    H15   S    
C51   O1    S    
C23   H70   S    
C8    H26   S    
C49   C51   A    
C43   C110  S    
C15   H44   S    
C76   H24   S    
C93   O3    S    
C94   O4    S    
N7    N27   A    
N11   Ni3   S    
C100  N5    A    
C8    H23   S    
C21   H63   S    
C125  N21   A    
C126  H57   S    
C50   C53   A    
C121  F26   S    
C29   H88   S    
C33   O26   S    
C95   C109  A    
C115  F20   S    
C40   C76   S    
C66   F33   S    
C17   O9    S    
C28   H83   S    
C64   C66   S    
C113  F18   S    
N3    N30   A    
N1    N6    A    
C78   C82   D    
C22   H66   S    
C25   H73   S    
C20   H60   S    
C30   H89   S    
C24   C107  A    
N30   Ni7   S    
C13   C115  A    
C65   O28   S    
C37   C121  A    
C14   H42   S    
N11   N25   A    
N10   N24   A    
C68   C77   S    
C98   F16   S    
C35   C122  A    
C54   O23   S    
C57   C61   A    
C80   F11   S    
C95   N32   A    
C38   C43   A    
C2    C114  A    
C67   F34   S    
C67   O30   S    
C52   F23   S    
C30   O22   S    
C34   C87   S    
C75   H13   S    
C25   O17   S    
C95   F14   S    
N25   Ni8   S    
N26   Ni7   S    
C9    H27   S    
C43   C47   A    
C71   N30   A    
C44   C48   A    
C57   C118  S    
C38   C62   A    
C72   O13   S    
C40   C60   A    
N24   Ni5   S    
C63   F31   S    
C50   F30   S    
C33   H100  S    
C37   C90   S    
C2    C85   A    
N2    N29   A    
C114  F19   S    
C27   H81   S    
C42   C46   A    
C25   H75   S    
C123  N19   A    
C20   H62   S    
C11   H36   S    
C41   F12   S    
C70   C110  A    
C28   H85   S    
C9    O2    S    
C60   C67   S    
C4    H11   S    
C14   H40   S    
C39   C75   S    
C23   H71   S    
C99   F17   S    
C128  H5    S    
N15   Ni6   S    
C49   F29   S    
C19   H58   S    
C121  N17   A    
C65   F32   S    
C116  F21   S    
N6    Ni5   S    
C124  N20   A    
C74   C118  A    
C99   N4    A    
C13   C96   A    
C69   O9    S    
N28   N32   A    
C127  H79   S    
C126  O1    S    
C73   H1    S    
C113  N9    A    
C8    O32   S    
C117  N14   A    
C10   H32   S    
N19   Ni1   S    
C42   C61   A    
C128  O23   S    
C125  O21   S    
N28   Ni5   S    
N27   Ni4   S    
C84   C91   S    
C24   C116  A    
N14   N19   A    
C30   H92   S    
C17   H50   S    
C18   H54   S    
C78   F9    S    
C119  F24   S    
N5    N12   A    
N16   Ni7   S    
C18   O10   S    
C16   H47   S    
C81   C86   D    
N12   Ni2   S    
C107  N26   A    
C39   C44   A    
C13   C59   S    
C80   C108  S    
C91   O32   S    
C11   H34   S    
C88   F6    S    
C2    C56   S    
C82   O5    S    
C92   O2    S    
C10   O3    S    
C31   H94   S    
C89   C93   D    
C32   H97   S    
N9    Ni1   S    
C5    H14   S    
C26   H76   S    
N14   Ni5   S    
C42   C77   S    
C32   O25   S    
C19   H56   S    
C63   C108  A    
C84   O7    S    
C15   H43   S    
C58   C62   A    
C48   C55   A    
C89   F7    S    
C85   N24   A    
C80   C84   D    
C26   H77   S    
N8    N23   A    
C39   C64   A    
N23   Ni3   S    
C29   H87   S    
C31   O24   S    
C14   O6    S    
C10   H30   S    
C3    H8    S    
C107  O26   S    
C28   H84   S    
C70   N29   A    
C22   H67   S    
C11   O4    S    
C17   H52   S    
C85   O24   S    
C75   F2    S    
C44   C109  S    
N32   Ni2   S    
C48   F28   S    
C96   O25   S    
C82   C93   S    
C4    H10   S    
C46   C111  S    
N2    Ni1   S    
N9    N22   A    
C33   H3    S    
N7    Ni8   S    
C7    H21   S    
C90   C94   D    
C40   C45   A    
C4    O28   S    
C19   H59   S    
C96   N25   A    
C102  N7    A    
C53   C57   A    
C83   C94   S    
N20   Ni4   S    
C56   C60   A    
C126  H68   S    
C5    H16   S    
N13   Ni4   S    
C45   C49   A    
C8    H25   S    
C21   H65   S    
C100  C105  A    
C122  N18   A    
N17   Ni8   S    
C47   C54   A    
C28   O20   S    
C6    H18   S    
C101  C104  A    
C70   O10   S    
C114  N10   A    
C68   F35   S    
C21   H64   S    
C23   O16   S    
N22   Ni6   S    
C3    O27   S    
C33   H99   S    
N1    Ni1   S    
C69   N28   A    
C6    H19   S    
C68   O31   S    
C29   H86   S    
C79   C83   D    
C25   H74   S    
C127  H2    S    
C66   C75   S    
C53   O12   S    
C29   O21   S    
C36   C120  A    
C72   N31   A    
C26   O18   S    
C97   N2    A    
C79   F10   S    
C24   C58   S    
C4    H12   S    
C14   H41   S    
C31   H95   S    
C19   O11   S    
C100  O14   S    
C74   O22   S    
C101  O15   S    
C102  O16   S    
C16   O8    S    
C128  H6    S    
C34   C123  A    
C87   F5    S    
C35   C119  A    
C36   C125  A    
C45   C112  S    
C86   O8    S    
C21   O14   S    
C7    H20   S    
C78   C105  S    
C116  N13   A    
C73   F36   S    
N10   Ni2   S    
C5    O29   S    
C22   H69   S    
C65   C73   S    
C7    O31   S    
C51   C56   A    
N15   N18   A    
C66   O29   S    
C97   F15   S    
C69   C109  A    
C3    H9    S    
C88   C92   D    
C71   C111  A    
C102  C108  A    
C117  F22   S    
C9    H28   S    
C124  O20   S    
C34   C117  A    
C81   F13   S    
C127  O12   S    
C52   C106  A    
N21   Ni3   S    
C63   N27   A    
C18   H55   S    
N8    Ni7   S    
C27   O19   S    
C6    H17   S    
C16   H48   S    
C83   O6    S    
C126  H46   S    
C27   H82   S    
N13   N26   A    
C20   H61   S    
C77   F4    S    
C11   H33   S    
C115  N11   A    
C37   C124  A    
C90   F8    S    
C35   C88   S    
C98   N3    A    
N3    Ni4   S    
C31   H93   S    
C12   H37   S    
C32   H98   S    
C77   H35   S    
C1    C104  A    
C41   N12   A    
C122  O18   S    
C23   H72   S    
C12   H38   S    
C79   C104  S    
C6    O30   S    
C55   C59   A    
N18   Ni2   S    
C54   C58   A    
C20   O13   S    
C81   C106  S    
C98   C111  A    
C103  O17   S    
C62   C65   S    
C22   O15   S    
C26   H78   S    
C101  N6    A    
C46   C50   A    
C12   O5    S    
C55   O27   S    
C103  N8    A    
N4    N31   A    
C15   H45   S    
C86   C92   S    
C10   H31   S    
C97   C110  A    
C61   C68   S    
C3    H7    S    
C47   F27   S    
C99   C112  A    
C120  F25   S    
C103  C106  A    
C16   H49   S    
C32   H96   S    
C113  C118  A    
C59   C64   A    
C1    N1    A    
C128  H4    S    
C30   H91   S    
C67   C76   S    
N29   Ni6   S    
C17   H51   S    
C18   H53   S    
C71   O11   S    
N31   Ni8   S    
C38   C73   S    
C15   O7    S    
