data_mof_unit_7323.cif
_audit_creation_date              2013-03-05T16:04:54-0500
_audit_creation_method            fapswitch 2.2
_symmetry_space_group_name_H-M    P1
_symmetry_Int_Tables_number       1
_space_group_crystal_system       triclinic
_cell_length_a                    8.612412
_cell_length_b                    14.482563
_cell_length_c                    18.989669
_cell_angle_alpha                 97.740511
_cell_angle_beta                  92.045096
_cell_angle_gamma                 91.734098
_cell_volume                      2344.02956944

loop_
_atom_site_label
_atom_site_type_symbol
_atom_site_description
_atom_site_fract_x
_atom_site_fract_y
_atom_site_fract_z
_atom_type_partial_charge
P1    P     P_3+3 0.061800 0.409390 0.339760 0.520244
O1    O     O_2   0.887710 0.436190 0.327560 -0.324559
O2    O     O_3   0.135370 0.443490 0.416520 -0.386561
O3    O     O_3   0.634420 0.609440 0.364670 -0.367841
O4    O     O_2   0.722713 0.560245 0.236910 -0.329551
O5    O     O_3   0.043316 0.289118 0.309383 -0.520144
O6    O     O_3   0.632868 0.729340 0.258820 -0.601469
H1    H     H_    0.492109 0.775825 0.341841 0.067165
C1    C     C_3   0.574560 0.890533 0.290573 -0.108735
H2    H     H_    0.618281 0.903800 0.238196 0.115113
P2    P     P_3+3 0.622760 0.718740 0.547830 0.542570
P3    P     P_3+3 0.075216 0.779620 0.401934 0.483322
O7    O     O_2   0.795290 0.730930 0.525800 -0.291894
O8    O     O_3   0.044470 0.660110 0.398750 -0.418336
O9    O     O_2   0.945891 0.828536 0.445874 -0.311333
O10   O     O_3   0.636802 0.753644 0.640606 -0.568405
O11   O     O_3   0.044406 0.810562 0.316611 -0.572634
C2    C     C_3   0.015925 0.729695 0.267694 0.411342
H3    H     H_    0.916377 0.688518 0.283892 0.170045
H4    H     H_    0.120096 0.686324 0.264184 0.076117
C3    C     C_3   0.976305 0.757252 0.194665 -0.030684
H5    H     H_    0.880382 0.807155 0.198985 0.135116
C4    C     C_3   0.260243 0.755692 0.654203 0.950194
H6    H     H_    0.319948 0.711904 0.611671 0.019779
C5    C     C_3   0.221485 0.846868 0.626709 -0.848215
H7    H     H_    0.164473 0.894192 0.668142 0.263996
H8    H     H_    0.329289 0.882312 0.612303 0.245908
H9    H     H_    0.141308 0.832587 0.579152 0.247148
Ba1   Ba    Ba6+2 0.843240 0.541620 0.463500 1.652308
C6    C     C_3   0.148957 0.236760 0.342856 0.258842
H10   H     H_    0.257066 0.279013 0.359019 0.114590
C7    C     C_3   0.200940 0.154125 0.289438 -0.727975
H11   H     H_    0.252988 0.184962 0.245306 0.228168
H12   H     H_    0.291839 0.115401 0.314067 0.227292
C8    C     C_3   0.659010 0.677708 0.678551 0.832214
H13   H     H_    0.550998 0.634568 0.674973 0.114959
C9    C     C_3   0.697090 0.713030 0.757994 -0.062712
H14   H     H_    0.600382 0.755674 0.779651 0.103757
P4    P     P_3+3 0.127890 0.590690 0.660240 0.497316
O12   O     O_2   0.301980 0.563840 0.672490 -0.395439
O13   O     O_3   0.054330 0.556590 0.583490 -0.365621
O14   O     O_3   0.555270 0.390630 0.635330 -0.274990
O15   O     O_3   0.121723 0.712921 0.671639 -0.617499
P5    P     P_3+3 0.101165 0.223380 0.609911 0.540632
O16   O     O_3   0.637720 0.384870 0.467990 -0.390540
O17   O     O_3   0.145220 0.339960 0.601250 -0.279555
O18   O     O_2   0.220554 0.173915 0.561560 -0.363632
O19   O     O_3   0.157703 0.199503 0.697068 -0.560092
Ba2   Ba    Ba6+2 0.346570 0.458460 0.536510 1.664228
P6    P     P_3+3 0.591427 0.614818 0.274986 0.483000
C10   C     C_3   0.517121 0.788579 0.287095 0.768024
H15   H     H_    0.476076 0.937084 0.302663 0.175728
O20   O     O_3   0.551980 0.615210 0.532020 -0.403934
C11   C     C_3   0.619602 0.234507 0.310557 0.734028
C12   C     C_3   0.606213 0.153748 0.247918 -0.725339
H16   H     H_    0.637519 0.088281 0.268689 0.206556
H17   H     H_    0.485710 0.142933 0.226294 0.145919
P7    P     P_3+3 0.567521 0.264971 0.450185 0.501231
O21   O     O_2   0.394410 0.269100 0.474240 -0.283519
O22   O     O_3   0.529106 0.207275 0.363416 -0.605557
H18   H     H_    0.080345 0.791339 0.174694 0.151948
C13   C     C_3   0.103500 0.267756 0.751373 0.209860
H19   H     H_    0.004981 0.303471 0.731929 0.072037
C14   C     C_3   0.049464 0.227740 0.818623 -0.693893
H20   H     H_    0.017665 0.286697 0.858483 0.202829
H21   H     H_    0.943416 0.185392 0.806565 0.252313
P8    P     P_3+3 0.604582 0.384242 0.724736 0.576700
C15   C     C_3   0.549918 0.188306 0.725682 0.241752
O23   O     O_2   0.508510 0.464850 0.760401 -0.339469
O24   O     O_3   0.508733 0.282895 0.751219 -0.529705
H22   H     H_    0.487323 0.160986 0.832336 0.241628
C16   C     C_3   0.479049 0.124381 0.777908 -0.744935
H23   H     H_    0.353778 0.114077 0.764424 0.213696
C17   C     C_R   0.987251 0.486760 0.053673 0.071219
C18   C     C_R   0.893130 0.446496 0.101808 0.025072
C19   C     C_R   0.737402 0.419061 0.079321 -0.252546
C20   C     C_R   0.680299 0.434091 0.011942 0.463160
C21   C     C_R   0.785664 0.450887 0.960312 -0.032856
C22   C     C_R   0.933780 0.486606 0.981837 -0.079877
C23   C     C_R   0.752761 0.417993 0.888166 -0.074636
C24   C     C_R   0.843543 0.450863 0.834431 -0.145835
C25   C     C_R   0.978911 0.508277 0.857378 0.043248
C26   C     C_R   0.027814 0.520141 0.931176 0.050817
C27   C     C_R   0.802574 0.432069 0.759969 0.202476
C28   C     C_R   0.896578 0.471303 0.711271 -0.323761
C29   C     C_R   0.023713 0.534157 0.732617 0.314500
C30   C     C_R   0.068922 0.550389 0.807392 -0.021629
C31   C     C_R   0.135598 0.524141 0.076159 0.050325
C32   C     C_R   0.192442 0.521366 0.147661 0.026663
C33   C     C_R   0.101886 0.475971 0.196217 -0.054379
C34   C     C_R   0.954932 0.437078 0.170635 -0.066157
H24   H     H_    0.863749 0.456735 0.655245 0.175113
H25   H     H_    0.883969 0.403166 0.205149 0.213807
C35   C     C_R   0.204784 0.603713 0.834183 -0.136564
C36   C     C_R   0.257425 0.608956 0.906511 0.083159
C37   C     C_R   0.169656 0.565672 0.954945 0.040116
C38   C     C_R   0.224305 0.567193 0.027247 0.026664
C39   C     C_R   0.399122 0.654774 0.931138 -0.128882
C40   C     C_R   0.455043 0.654570 0.001638 -0.145084
C41   C     C_R   0.368955 0.610305 0.050036 0.123227
C42   C     C_R   0.339901 0.563861 0.169811 0.018640
C43   C     C_R   0.426709 0.607032 0.120122 -0.269701
C44   C     C_R   0.393825 0.565010 0.241587 0.316076
C45   C     C_R   0.296643 0.527895 0.290253 -0.482679
C46   C     C_R   0.157890 0.476010 0.269217 0.267111
H26   H     H_    0.274902 0.637931 0.798668 0.177281
H27   H     H_    0.467912 0.689830 0.895499 0.124106
H28   H     H_    0.566591 0.688693 0.018210 0.123727
H29   H     H_    0.539895 0.639234 0.135336 0.195184
H30   H     H_    0.330981 0.538321 0.346073 0.138604
C47   C     C_R   0.690682 0.939338 0.538930 0.624258
C48   C     C_R   0.510789 0.799338 0.501470 0.298763
C49   C     C_R   0.366767 0.764259 0.470600 -0.566018
C50   C     C_R   0.268242 0.821419 0.438347 0.296334
C51   C     C_R   0.317754 0.911039 0.431295 -0.226427
C52   C     C_R   0.459107 0.949946 0.463819 -0.153537
C53   C     C_R   0.556781 0.895126 0.501186 -0.125598
H31   H     H_    0.328737 0.692984 0.473446 0.171984
C54   C     C_R   0.637605 0.087232 0.495080 -0.177121
C55   C     C_R   0.738821 0.031782 0.530606 -0.225085
C56   C     C_R   0.676892 0.184341 0.498532 0.348479
C57   C     C_R   0.810893 0.222824 0.536655 -0.365485
C58   C     C_R   0.917243 0.167200 0.566535 0.215416
C59   C     C_R   0.885186 0.069776 0.560173 0.447994
C60   C     C_R   0.496843 0.044863 0.462328 0.563928
H32   H     H_    0.242500 0.949568 0.399970 0.209281
H33   H     H_    0.836775 0.297012 0.540633 0.166950
C61   C     C_2   0.078279 0.211151 0.408938 1.001752
O25   O     O_2   0.083770 0.270240 0.460892 -0.569788
O26   O     O_R   0.996813 0.127194 0.412302 -0.798878
H34   H     H_    0.928363 0.106293 0.368573 0.338571
C62   C     C_2   0.079932 0.084445 0.254910 1.124182
O27   O     O_2   0.017849 0.095609 0.198084 -0.603611
O28   O     O_R   0.054574 0.000912 0.282438 -0.782178
H35   H     H_    0.972698 0.959251 0.253255 0.316233
O29   O     O_3   0.776227 0.621807 0.650287 -0.765902
H36   H     H_    0.856832 0.665518 0.637341 0.350432
O30   O     O_3   0.690588 0.912790 0.344228 -0.712141
H37   H     H_    0.787077 0.885733 0.325190 0.381529
C63   C     C_2   0.843299 0.774651 0.769169 1.021303
O31   O     O_2   0.954111 0.752732 0.804614 -0.633097
O32   O     O_R   0.849305 0.858798 0.740957 -0.750161
H38   H     H_    0.951086 0.895293 0.753457 0.346359
O33   O     O_3   0.709536 0.636153 0.795341 -0.736949
H39   H     H_    0.712762 0.660416 0.846840 0.326928
O34   O     O_3   0.379555 0.774182 0.244634 -0.836500
H40   H     H_    0.405183 0.786346 0.196085 0.311130
C64   C     C_2   0.550200 0.322397 0.292952 0.939601
O35   O     O_2   0.428686 0.319217 0.257392 -0.710699
O36   O     O_R   0.604274 0.406398 0.330459 -0.692797
H41   H     H_    0.516962 0.446556 0.347494 0.315532
O37   O     O_3   0.775769 0.244349 0.333242 -0.754212
H42   H     H_    0.791551 0.298392 0.370605 0.341404
C65   C     C_2   0.707639 0.163688 0.186608 1.199534
O38   O     O_2   0.695041 0.105238 0.133700 -0.588141
O39   O     O_R   0.816833 0.237261 0.189655 -0.761135
H43   H     H_    0.877208 0.235052 0.144606 0.335672
C66   C     C_2   0.215097 0.347497 0.771621 1.029738
O40   O     O_2   0.250727 0.394872 0.726275 -0.551771
O41   O     O_R   0.262307 0.374979 0.842719 -0.739912
H44   H     H_    0.329867 0.433897 0.850425 0.368124
C67   C     C_2   0.158938 0.169465 0.854911 1.203354
O42   O     O_2   0.251931 0.206351 0.901096 -0.550414
O43   O     O_R   0.143021 0.072246 0.840886 -0.799389
H45   H     H_    0.219643 0.039972 0.870272 0.318094
C68   C     C_2   0.719289 0.174775 0.715811 0.761971
O44   O     O_2   0.790386 0.232117 0.688097 -0.730901
O45   O     O_R   0.787459 0.089924 0.723035 -0.800035
H46   H     H_    0.898101 0.086488 0.706859 0.345365
C69   C     C_2   0.477752 0.158301 0.653665 1.038964
O46   O     O_2   0.486624 0.210944 0.609201 -0.570740
O47   O     O_R   0.410916 0.068363 0.636312 -0.805907
H47   H     H_    0.375999 0.051507 0.585001 0.319665
C70   C     C_2   0.540031 0.028221 0.781321 1.222618
O48   O     O_2   0.521341 0.966798 0.730631 -0.564357
O49   O     O_R   0.614840 0.009190 0.844052 -0.773272
H48   H     H_    0.648005 0.942252 0.840918 0.327871
C71   C     C_2   0.630900 0.370788 0.121366 0.995544
O50   O     O_2   0.591147 0.410222 0.177692 -0.611622
O51   O     O_R   0.558051 0.286285 0.091353 -0.750876
H49   H     H_    0.473972 0.264363 0.121861 0.339015
O52   O     O_3   0.522854 0.430609 0.993499 -0.692856
H50   H     H_    0.459543 0.429251 0.035714 0.332675
C72   C     C_2   0.673376 0.325277 0.879461 1.059020
O53   O     O_2   0.532532 0.319601 0.881295 -0.491214
O54   O     O_R   0.759797 0.248363 0.890585 -0.848196
H51   H     H_    0.695014 0.193358 0.902110 0.365357
O55   O     O_3   0.995121 0.008838 0.579157 -0.725764
H52   H     H_    0.079185 0.042487 0.609664 0.347400
O56   O     O_3   0.763981 0.896510 0.590398 -0.636567
H53   H     H_    0.775848 0.942418 0.633966 0.382799
O57   O     O_3   0.389890 0.097014 0.432316 -0.724440
H54   H     H_    0.288069 0.085782 0.452551 0.338478
O58   O     O_3   0.928960 0.677989 0.147473 -0.731913
H55   H     H_    0.905566 0.699902 0.101054 0.328310
O59   O     O_3   0.358536 0.774799 0.715061 -0.787706
H56   H     H_    0.297266 0.807364 0.753640 0.334848

loop_
_geom_bond_atom_site_label_1
_geom_bond_atom_site_label_2
_geom_bond_distance
_ccdc_geom_bond_type
C12   C65   1.499797 S    
C68   O45   1.398901 S    
C12   H16   1.111680 S    
O56   H53   0.989277 S    
C9    O33   1.403062 S    
C2    C3    1.523968 S    
C36   C37   1.409439 A    
C1    C10   1.535084 S    
C52   C60   1.407183 A    
C61   O25   1.214381 D    
C24   C27   1.432802 A    
C71   O50   1.208663 D    
O2    Ba2   2.845116 S    
C36   C39   1.405324 A    
C58   C59   1.417655 A    
P4    O13   1.578196 S    
C11   O22   1.383629 S    
C20   C21   1.399370 A    
C72   O53   1.215366 D    
C5    H9    1.109818 S    
C40   H28   1.083503 S    
O17   Ba2   2.829170 S    
C42   C43   1.421670 A    
C51   H32   1.081215 S    
Ba1   O20   3.023648 S    
O1    Ba1   2.861153 S    
O7    Ba1   2.883871 S    
O39   H43   1.014199 S    
C8    C9    1.546542 S    
C64   O36   1.383032 S    
C49   C50   1.386522 A    
C19   C71   1.459929 S    
O10   C8    1.407693 S    
C6    H10   1.109102 S    
C23   C24   1.429833 A    
C21   C23   1.404468 A    
C71   O51   1.398691 S    
C69   O46   1.214298 D    
P7    O22   1.759573 S    
O12   Ba2   2.861674 S    
C30   C35   1.421739 A    
C4    O15   1.398318 S    
C52   C53   1.411046 A    
P1    O1    1.577016 D    
C1    O30   1.399988 S    
C57   H33   1.082694 S    
O2    Ba1   3.029963 S    
C70   O48   1.222059 D    
C45   C46   1.408172 A    
C13   C14   1.552016 S    
O52   H50   0.987484 S    
C15   C69   1.486037 S    
C8    H13   1.099642 S    
C62   O27   1.219636 D    
C22   C26   1.405313 A    
C9    C63   1.512940 S    
P3    O11   1.751725 S    
C4    H6    1.109182 S    
C13   C66   1.480578 S    
O49   H48   1.013596 S    
C20   O52   1.386036 S    
C16   C70   1.511831 S    
C3    O58   1.398426 S    
C6    C7    1.549033 S    
C1    H2    1.114347 S    
C65   O39   1.393531 S    
O3    Ba1   2.843218 S    
P2    O20   1.587524 S    
P5    O18   1.532411 D    
C18   C34   1.418786 A    
C32   C42   1.418932 A    
C23   C72   1.474564 S    
O58   H55   0.992394 S    
P8    C27   1.886091 S    
C42   C44   1.421974 A    
C3    H5    1.112006 S    
C66   O41   1.397446 S    
O43   H45   1.013880 S    
C68   O44   1.204794 D    
C1    H15   1.110622 S    
O13   Ba2   3.030775 S    
C48   C49   1.403572 A    
C28   H24   1.082061 S    
P5    O17   1.749896 S    
C50   C51   1.379060 A    
P3    C50   1.830981 S    
C19   C20   1.401066 A    
C54   C56   1.428804 A    
C6    C61   1.499676 S    
O16   P7    1.805211 S    
C17   C18   1.414384 A    
P1    O5    1.760148 S    
C63   O31   1.222559 D    
O6    P6    1.755458 S    
C14   C67   1.494841 S    
P4    O12   1.577367 D    
C59   O55   1.384619 S    
C21   C22   1.388459 A    
O59   H56   0.993561 S    
P4    O15   1.756881 S    
C10   O34   1.403180 S    
C5    H7    1.110211 S    
C28   C29   1.414367 A    
C24   C25   1.431057 A    
C39   H27   1.081551 S    
Ba1   O16   2.848423 S    
O55   H52   0.984848 S    
P1    O2    1.578394 S    
C7    H12   1.103272 S    
C4    O59   1.399512 S    
C18   C19   1.421325 A    
C9    H14   1.109693 S    
C34   H25   1.068372 S    
P2    O10   1.765006 S    
O19   C13   1.430426 S    
C40   C41   1.408518 A    
P3    O9    1.547104 D    
O16   Ba2   3.022839 S    
C15   C16   1.571479 S    
C37   C38   1.432545 A    
C13   H19   1.086031 S    
P1    Ba1   3.471838 S    
O11   C2    1.402838 S    
C65   O38   1.222837 D    
C27   C28   1.414437 A    
H1    C10   1.107529 S    
C14   H21   1.084472 S    
C56   C57   1.399765 A    
O54   H51   1.011218 S    
C54   C60   1.425264 A    
C62   O28   1.395354 S    
O45   H46   1.012166 S    
O5    C6    1.391804 S    
C41   C43   1.411434 A    
P3    O8    1.735629 S    
C25   C26   1.435098 A    
C17   C22   1.423815 A    
C12   H17   1.101198 S    
O14   P8    1.750609 S    
O4    P6    1.544155 D    
C5    H8    1.107910 S    
O8    Ba1   2.828551 S    
C7    C62   1.497913 S    
C38   C41   1.403839 A    
O47   H47   1.004996 S    
C11   C64   1.495212 S    
O34   H40   0.992786 S    
C11   C12   1.550296 S    
C35   H26   1.079870 S    
P7    C56   1.840494 S    
Ba1   O13   2.844540 S    
P2    C48   1.830802 S    
C29   C30   1.445070 A    
C3    H18   1.112788 S    
C31   C38   1.418792 A    
C33   C46   1.451339 A    
C63   O32   1.396011 S    
C16   H23   1.100944 S    
C61   O26   1.395448 S    
C8    O29   1.390581 S    
C11   O37   1.394769 S    
C54   C55   1.416416 A    
P4    Ba2   3.472322 S    
O28   H35   1.012264 S    
C47   C55   1.420360 A    
C67   O42   1.222199 D    
P5    C58   1.870264 S    
Ba2   O21   2.884180 S    
C51   C52   1.411407 A    
C47   C53   1.423470 A    
C48   C53   1.431897 A    
O33   H39   0.992734 S    
P8    O24   1.801063 S    
C17   C31   1.401662 A    
O57   H54   0.987616 S    
O26   H34   1.007618 S    
P7    O21   1.575336 D    
O6    C10   1.408518 S    
H22   C16   1.095103 S    
C67   O43   1.398875 S    
C7    H11   1.103746 S    
C45   H30   1.079668 S    
P2    O7    1.569221 D    
C33   C34   1.412220 A    
C66   O40   1.213137 D    
C69   O47   1.400710 S    
Ba2   O20   2.847857 S    
C26   C37   1.400924 A    
C14   H20   1.109880 S    
C55   C59   1.425242 A    
C72   O54   1.393458 S    
C60   O57   1.365399 S    
C2    H4    1.109496 S    
C64   O35   1.221314 D    
C4    C5    1.525645 S    
C35   C36   1.422378 A    
O41   H44   1.009114 S    
C70   O49   1.398054 S    
O30   H37   0.988842 S    
O14   Ba2   2.842512 S    
C49   H31   1.082380 S    
P5    O19   1.789644 S    
P6    C44   1.882622 S    
C31   C32   1.432957 A    
P2    Ba1   3.486466 S    
C47   O56   1.371660 S    
C15   O24   1.449249 S    
C39   C40   1.406916 A    
O3    P6    1.742430 S    
C44   C45   1.416075 A    
C57   C58   1.393034 A    
C2    H3    1.105706 S    
O32   H38   1.013614 S    
O29   H36   0.985199 S    
C43   H29   1.080420 S    
O37   H42   0.985683 S    
Ba1   Ba2   4.715000 S    
P4    C29   1.926397 S    
P8    O23   1.546495 D    
C32   C33   1.440230 A    
O51   H49   1.013098 S    
C25   C30   1.433094 A    
P1    C46   1.946588 S    
O36   H41   1.000747 S    
C15   C68   1.492727 S    
