data_mof_unit_65665.cif
_audit_creation_date              2013-03-05T15:58:40-0500
_audit_creation_method            fapswitch 2.2
_symmetry_space_group_name_H-M    P1
_symmetry_Int_Tables_number       1
_space_group_crystal_system       triclinic
_cell_length_a                    38.416345
_cell_length_b                    21.634616
_cell_length_c                    21.673948
_cell_angle_alpha                 90.001357
_cell_angle_beta                  56.168443
_cell_angle_gamma                 90.00165
_cell_volume                      14963.5949449

loop_
_atom_site_label
_atom_site_type_symbol
_atom_site_description
_atom_site_fract_x
_atom_site_fract_y
_atom_site_fract_z
_atom_type_partial_charge
O1    O     O_R   0.000010 0.448280 0.408380 -0.574404
O2    O     O_R   0.999990 0.448280 0.591620 -0.574274
O3    O     O_R   0.500010 0.948280 0.408380 -0.574342
O4    O     O_R   0.499990 0.948280 0.591620 -0.574389
O5    O     O_R   0.000010 0.551730 0.408430 -0.623868
O6    O     O_R   0.999990 0.551730 0.591570 -0.623924
O7    O     O_R   0.500010 0.051730 0.408430 -0.623873
O8    O     O_R   0.499990 0.051730 0.591570 -0.623871
C1    C     C_R   0.000236 0.499976 0.379632 0.930918
C2    C     C_R   0.999765 0.499977 0.620367 0.931016
C3    C     C_R   0.500236 0.999976 0.379632 0.930928
C4    C     C_R   0.499764 0.999977 0.620368 0.930895
O9    O     O_R   0.938390 0.448280 0.561610 -0.587999
O10   O     O_R   0.061610 0.448280 0.438390 -0.588269
O11   O     O_R   0.438390 0.948280 0.561610 -0.588273
O12   O     O_R   0.561610 0.948280 0.438390 -0.588148
O13   O     O_R   0.938400 0.551730 0.561660 -0.618831
O14   O     O_R   0.061600 0.551730 0.438340 -0.618478
O15   O     O_R   0.438400 0.051730 0.561660 -0.618458
O16   O     O_R   0.561600 0.051730 0.438340 -0.618625
C5    C     C_R   0.918841 0.500024 0.581213 0.903364
C6    C     C_R   0.081160 0.500025 0.418787 0.903214
C7    C     C_R   0.418840 0.000024 0.581213 0.903220
C8    C     C_R   0.581160 0.000025 0.418787 0.903272
Zn1   Zn    Zn3+2 0.000000 0.430930 0.500000 1.139508
Zn2   Zn    Zn3+2 0.500000 0.930930 0.500000 1.139378
Zn3   Zn    Zn3+2 0.000000 0.569080 0.500000 1.026481
Zn4   Zn    Zn3+2 0.500000 0.069080 0.500000 1.026654
C9    C     C_3   0.736176 0.484337 0.710404 0.291849
C10   C     C_3   0.263822 0.483039 0.289191 0.291883
C11   C     C_3   0.236177 0.982977 0.710829 0.291895
C12   C     C_3   0.763822 0.983532 0.289348 0.291894
C13   C     C_3   0.764195 0.541667 0.694552 -0.301300
C14   C     C_3   0.235813 0.540643 0.306401 -0.300995
C15   C     C_3   0.264188 0.040593 0.693555 -0.300983
C16   C     C_3   0.735810 0.041036 0.306042 -0.301177
H1    H     H_    0.775329 0.575016 0.648263 0.215278
H2    H     H_    0.224686 0.573145 0.353468 0.215345
H3    H     H_    0.275316 0.073054 0.646454 0.215348
H4    H     H_    0.724680 0.073861 0.352816 0.215272
C17   C     C_1   0.874553 0.500156 0.625962 -0.096672
C18   C     C_1   0.125447 0.500159 0.374039 -0.096676
C19   C     C_1   0.374553 0.000156 0.625960 -0.096668
C20   C     C_1   0.625447 0.000159 0.374038 -0.096685
C21   C     C_1   0.625445 0.500304 0.875494 -0.074979
C22   C     C_1   0.374555 0.500309 0.124504 -0.075007
C23   C     C_1   0.125445 0.000309 0.875497 -0.075007
C24   C     C_1   0.874555 0.000307 0.124505 -0.075012
C25   C     C_3   0.764241 0.443610 0.723896 -0.016200
C26   C     C_3   0.235749 0.443314 0.274751 -0.016070
C27   C     C_3   0.264249 0.943298 0.725310 -0.016065
C28   C     C_3   0.735752 0.943424 0.275265 -0.016128
C29   C     C_3   0.791901 0.500741 0.709789 -0.051336
C30   C     C_3   0.208099 0.500751 0.290212 -0.051367
C31   C     C_3   0.291901 0.000749 0.709786 -0.051368
C32   C     C_3   0.708099 0.000749 0.290211 -0.051330
C33   C     C_3   0.736624 0.460688 0.807060 0.183647
C34   C     C_3   0.263369 0.461710 0.192006 0.183544
C35   C     C_3   0.236630 0.961756 0.808036 0.183541
C36   C     C_3   0.763372 0.961321 0.192357 0.183587
C37   C     C_3   0.708160 0.500534 0.793686 -0.186395
C38   C     C_3   0.291840 0.500548 0.206306 -0.186436
C39   C     C_3   0.208160 0.000548 0.793694 -0.186440
C40   C     C_3   0.791840 0.000544 0.206309 -0.186410
C41   C     C_3   0.764377 0.517046 0.792859 0.195447
C42   C     C_3   0.235625 0.518374 0.207543 0.195446
C43   C     C_3   0.264376 0.018433 0.792436 0.195444
C44   C     C_3   0.735624 0.017873 0.207386 0.195428
C45   C     C_3   0.736440 0.556765 0.778737 0.192341
C46   C     C_3   0.263570 0.557081 0.222588 0.192281
C47   C     C_3   0.236432 0.057092 0.777350 0.192273
C48   C     C_3   0.763567 0.056966 0.222085 0.192305
C49   C     C_1   0.837181 0.500460 0.663863 0.133535
C50   C     C_1   0.162819 0.500464 0.336139 0.133632
C51   C     C_1   0.337181 0.000461 0.663859 0.133640
C52   C     C_1   0.662819 0.000464 0.336137 0.133579
C53   C     C_1   0.662830 0.500456 0.838603 0.213834
C54   C     C_1   0.337171 0.500465 0.161392 0.213837
C55   C     C_1   0.162829 0.000464 0.838609 0.213838
C56   C     C_1   0.837170 0.000462 0.161394 0.213833
C57   C     C_R   0.027521 0.540995 0.254460 0.121819
C58   C     C_R   0.972484 0.541001 0.745537 0.122331
C59   C     C_R   0.527521 0.040994 0.254460 0.122010
C60   C     C_R   0.472482 0.040999 0.745539 0.121799
C61   C     C_R   0.024260 0.544330 0.193414 0.137100
C62   C     C_R   0.975745 0.544336 0.806583 0.137124
C63   C     C_R   0.524261 0.044330 0.193414 0.136999
C64   C     C_R   0.475742 0.044333 0.806586 0.137093
C65   C     C_R   0.000804 0.498542 0.185434 -0.090143
C66   C     C_R   0.999195 0.498542 0.814567 -0.090170
C67   C     C_R   0.500803 0.998542 0.185434 -0.090120
C68   C     C_R   0.499196 0.998543 0.814566 -0.090148
C69   C     C_R   0.977876 0.452851 0.240008 0.013726
C70   C     C_R   0.022115 0.452845 0.760000 0.013646
C71   C     C_R   0.477876 0.952852 0.240008 0.013692
C72   C     C_R   0.522122 0.952852 0.759992 0.013730
C73   C     C_R   0.975730 0.456600 0.306126 0.284620
C74   C     C_R   0.024264 0.456595 0.693879 0.284526
C75   C     C_R   0.475732 0.956598 0.306124 0.284498
C76   C     C_R   0.524269 0.956601 0.693873 0.284547
C77   C     C_R   0.001024 0.499666 0.312497 -0.221687
C78   C     C_R   0.998977 0.499668 0.687503 -0.221663
C79   C     C_R   0.501025 0.999665 0.312495 -0.221650
C80   C     C_R   0.498977 0.999669 0.687503 -0.221698
O17   O     O_R   0.500010 0.408260 0.948350 -0.612370
O18   O     O_R   0.499990 0.408260 0.051650 -0.612244
O19   O     O_R   0.000010 0.908260 0.948350 -0.612278
O20   O     O_R   0.999990 0.908260 0.051650 -0.612326
C81   C     C_R   0.500000 0.379622 1.000000 0.859544
C82   C     C_R   1.000000 0.879622 1.000000 0.859521
O21   O     O_R   0.561620 0.499890 0.886700 -0.597318
O22   O     O_R   0.438380 0.499890 0.113300 -0.597315
O23   O     O_R   0.061620 0.999890 0.886700 -0.597315
O24   O     O_R   0.938380 0.999890 0.113300 -0.597335
O25   O     O_R   0.561610 0.499990 0.990150 -0.600318
O26   O     O_R   0.438390 0.499990 0.009850 -0.600345
O27   O     O_R   0.061610 0.999990 0.990150 -0.600354
O28   O     O_R   0.938390 0.999990 0.009850 -0.600317
C83   C     C_R   0.581151 0.500073 0.919153 0.869201
C84   C     C_R   0.418849 0.500073 0.080846 0.869197
C85   C     C_R   0.081151 0.000073 0.919153 0.869191
C86   C     C_R   0.918849 0.000073 0.080846 0.869191
Zn5   Zn    Zn3+2 0.500010 0.499860 0.930960 1.051890
Zn6   Zn    Zn3+2 0.499990 0.499860 0.069040 1.051937
Zn7   Zn    Zn3+2 0.000010 0.999860 0.930960 1.051959
Zn8   Zn    Zn3+2 0.999990 0.999860 0.069040 1.051842
O29   O     O_R   0.500010 0.591500 0.948260 -0.618999
O30   O     O_R   0.499990 0.591500 0.051740 -0.618977
O31   O     O_R   0.000010 0.091500 0.948260 -0.618939
O32   O     O_R   0.999990 0.091500 0.051740 -0.619020
C87   C     C_R   0.500002 0.619793 0.999999 0.909801
C88   C     C_R   0.000006 0.119792 0.999996 0.909818
O33   O     O_R   0.034760 0.408280 0.965230 -0.578306
O34   O     O_R   0.965240 0.408280 0.034770 -0.578419
O35   O     O_R   0.534760 0.908280 0.965230 -0.578388
O36   O     O_R   0.465240 0.908280 0.034770 -0.578372
C89   C     C_R   0.999999 0.379517 0.000003 0.945708
C90   C     C_R   0.499999 0.879518 0.000002 0.945926
O37   O     O_R   0.034780 0.499900 0.056880 -0.586677
O38   O     O_R   0.965220 0.499900 0.943120 -0.586726
O39   O     O_R   0.534780 0.999900 0.056880 -0.586642
O40   O     O_R   0.465220 0.999900 0.943120 -0.586707
O41   O     O_R   0.965220 0.499940 0.126430 -0.631378
O42   O     O_R   0.034780 0.499940 0.873570 -0.631373
O43   O     O_R   0.465220 0.999940 0.126430 -0.631418
O44   O     O_R   0.534780 0.999940 0.873570 -0.631426
C91   C     C_R   0.000197 0.499085 0.119972 0.914535
C92   C     C_R   0.999803 0.499086 0.880029 0.914339
C93   C     C_R   0.500197 0.999085 0.119972 0.914528
C94   C     C_R   0.499803 0.999086 0.880028 0.914490
Zn9   Zn    Zn3+2 0.046450 0.499890 0.953590 1.074484
Zn10  Zn    Zn3+2 0.953550 0.499890 0.046410 1.074563
Zn11  Zn    Zn3+2 0.546450 0.999890 0.953590 1.074489
Zn12  Zn    Zn3+2 0.453550 0.999890 0.046410 1.074450
O45   O     O_R   0.034810 0.591520 0.965270 -0.619846
O46   O     O_R   0.965190 0.591520 0.034730 -0.619789
O47   O     O_R   0.534810 0.091520 0.965270 -0.619781
O48   O     O_R   0.465190 0.091520 0.034730 -0.619850
C95   C     C_R   0.000000 0.620219 1.000000 0.822971
C96   C     C_R   0.500000 0.120219 1.000000 0.822971
C97   C     C_R   0.474780 0.281738 0.067072 -0.147689
C98   C     C_R   0.525220 0.281737 0.932926 -0.147608
C99   C     C_R   0.974780 0.781738 0.067072 -0.147677
C100  C     C_R   0.025220 0.781737 0.932925 -0.147715
H5    H     H_    0.455111 0.306400 0.118968 0.163615
H6    H     H_    0.544889 0.306399 0.881030 0.163442
H7    H     H_    0.955111 0.806400 0.118968 0.163550
H8    H     H_    0.044888 0.806399 0.881029 0.163626
C101  C     C_R   0.974310 0.717843 0.066903 -0.164298
C102  C     C_R   0.025691 0.717842 0.933095 -0.164341
C103  C     C_R   0.474309 0.217843 0.066903 -0.164318
C104  C     C_R   0.525692 0.217842 0.933095 -0.164254
H9    H     H_    0.954577 0.693075 0.118704 0.154817
H10   H     H_    0.045425 0.693074 0.881294 0.154832
H11   H     H_    0.454576 0.193075 0.118704 0.154830
H12   H     H_    0.545425 0.193074 0.881294 0.154766
C105  C     C_R   0.000001 0.686251 0.999999 -0.012365
C106  C     C_R   0.500001 0.186251 0.999999 -0.012343
C107  C     C_R   0.500000 0.313434 0.999999 -0.019185
C108  C     C_R   1.000000 0.813434 0.999999 -0.019246
C109  C     C_R   0.531970 0.717206 0.000776 0.001805
C110  C     C_R   0.468027 0.717201 0.999246 0.002232
C111  C     C_R   0.031983 0.217203 0.000744 0.002199
C112  C     C_R   0.968015 0.217197 0.999298 0.002016
C113  C     C_R   0.031214 0.281528 0.002541 0.295655
C114  C     C_R   0.968778 0.281519 0.997518 0.295545
C115  C     C_R   0.531203 0.781530 0.002563 0.295519
C116  C     C_R   0.468792 0.781525 0.997463 0.295577
C117  C     C_R   0.999996 0.313112 0.000025 -0.346178
C118  C     C_R   0.499998 0.813114 0.000011 -0.346120
C119  C     C_R   0.500000 0.685849 0.000005 -0.111794
C120  C     C_R   0.000004 0.185846 0.000006 -0.111802
N1    N     N_R   0.947101 0.417611 0.367655 0.220143
O49   O     O_R   0.915856 0.442040 0.428361 -0.385581
O50   O     O_R   0.954633 0.358793 0.365916 -0.345003
N2    N     N_R   0.052889 0.417600 0.632355 0.220189
O51   O     O_R   0.084137 0.442024 0.571646 -0.385286
O52   O     O_R   0.045352 0.358783 0.634097 -0.344749
N3    N     N_R   0.447106 0.917605 0.367650 0.220185
O53   O     O_R   0.415857 0.942029 0.428356 -0.385260
O54   O     O_R   0.454645 0.858790 0.365911 -0.344812
N4    N     N_R   0.552896 0.917611 0.632346 0.220172
O55   O     O_R   0.584143 0.942038 0.571640 -0.385415
O56   O     O_R   0.545360 0.858793 0.634083 -0.344899
C121  C     C_3   0.566496 0.681836 0.999724 -0.656967
H13   H     H_    0.591953 0.711668 0.992345 0.286343
H14   H     H_    0.553322 0.656770 0.052937 0.244771
H15   H     H_    0.581232 0.648286 0.953023 0.222283
C122  C     C_3   0.433496 0.681829 0.000314 -0.657274
H16   H     H_    0.408032 0.711660 0.007722 0.286223
H17   H     H_    0.446663 0.656771 0.947097 0.244671
H18   H     H_    0.418770 0.648272 0.047006 0.222492
C123  C     C_3   0.066523 0.181831 0.999647 -0.657379
H19   H     H_    0.091982 0.211664 0.992259 0.286243
H20   H     H_    0.053363 0.156750 0.052846 0.244639
H21   H     H_    0.081252 0.148294 0.952933 0.222535
C124  C     C_3   0.933465 0.181826 0.000427 -0.656948
H22   H     H_    0.907988 0.211661 0.007892 0.286314
H23   H     H_    0.946608 0.156773 0.947214 0.244761
H24   H     H_    0.918760 0.148263 0.047114 0.222300
N5    N     N_R   0.060959 0.314911 0.010040 0.222023
O57   O     O_R   0.099028 0.322994 0.952538 -0.320702
O58   O     O_R   0.048753 0.342816 0.072123 -0.382499
N6    N     N_R   0.939039 0.314887 0.989998 0.221998
O59   O     O_R   0.951210 0.342505 0.927773 -0.382140
O60   O     O_R   0.901000 0.323130 0.047526 -0.320753
N7    N     N_R   0.560937 0.814913 0.010094 0.222051
O61   O     O_R   0.599011 0.823001 0.952611 -0.321032
O62   O     O_R   0.548716 0.842810 0.072189 -0.382412
N8    N     N_R   0.439059 0.814900 0.989927 0.221982
O63   O     O_R   0.451269 0.842709 0.927790 -0.382506
O64   O     O_R   0.400995 0.823038 0.047420 -0.320705
N9    N     N_R   0.721756 0.466029 0.663500 0.239902
O65   O     O_R   0.748909 0.454790 0.593408 -0.328985
O66   O     O_R   0.681951 0.461118 0.690957 -0.358438
N10   N     N_R   0.278240 0.463275 0.335645 0.239908
O67   O     O_R   0.251085 0.451018 0.405461 -0.328688
O68   O     O_R   0.318044 0.458066 0.308067 -0.358724
N11   N     N_R   0.221758 0.963146 0.664397 0.239907
O69   O     O_R   0.248912 0.950840 0.594595 -0.328687
O70   O     O_R   0.181954 0.957924 0.691983 -0.358746
N12   N     N_R   0.778241 0.964319 0.335978 0.239884
O71   O     O_R   0.751086 0.952448 0.405901 -0.328905
O72   O     O_R   0.818045 0.959222 0.308447 -0.358674
N13   N     N_R   0.722537 0.618919 0.808332 0.262804
O73   O     O_R   0.750058 0.662146 0.790917 -0.294389
O74   O     O_R   0.682829 0.631624 0.852021 -0.355482
N14   N     N_R   0.277482 0.619590 0.194462 0.262796
O75   O     O_R   0.249967 0.663048 0.212916 -0.294286
O76   O     O_R   0.317191 0.632380 0.151038 -0.355438
N15   N     N_R   0.222521 0.119618 0.805410 0.262799
O77   O     O_R   0.250037 0.163085 0.786909 -0.294271
O78   O     O_R   0.182813 0.132413 0.848821 -0.355432
N16   N     N_R   0.777476 0.119345 0.193401 0.262800
O79   O     O_R   0.749959 0.162718 0.211460 -0.294291
O80   O     O_R   0.817185 0.132103 0.149876 -0.355483
N17   N     N_R   0.778667 0.535412 0.839927 0.263648
O81   O     O_R   0.751424 0.547988 0.909616 -0.274450
O82   O     O_R   0.818471 0.539313 0.812866 -0.358166
N18   N     N_R   0.221337 0.538194 0.160925 0.263635
O83   O     O_R   0.248581 0.551788 0.091548 -0.274606
O84   O     O_R   0.181533 0.542370 0.188076 -0.358412
N19   N     N_R   0.278666 0.038319 0.839031 0.263635
O85   O     O_R   0.251422 0.051961 0.908393 -0.274607
O86   O     O_R   0.318469 0.042506 0.811876 -0.358417
N20   N     N_R   0.721336 0.037142 0.160593 0.263658
O87   O     O_R   0.748580 0.050350 0.091094 -0.274402
O88   O     O_R   0.681533 0.041215 0.187708 -0.358275
N21   N     N_R   0.723036 0.416895 0.867486 0.254078
O89   O     O_R   0.750754 0.387114 0.872528 -0.302946
O90   O     O_R   0.683381 0.407487 0.916683 -0.344113
N22   N     N_R   0.276949 0.419046 0.130558 0.254086
O91   O     O_R   0.249226 0.390054 0.124821 -0.303088
O92   O     O_R   0.316602 0.409873 0.081137 -0.343789
N23   N     N_R   0.223049 0.919146 0.869530 0.254084
O93   O     O_R   0.250772 0.890190 0.875297 -0.303093
O94   O     O_R   0.183396 0.909984 0.918961 -0.343776
N24   N     N_R   0.776954 0.918225 0.131293 0.254081
O95   O     O_R   0.749233 0.888932 0.125817 -0.303044
O96   O     O_R   0.816608 0.908963 0.081957 -0.343918
C125  C     C_3   0.779828 0.379131 0.692598 -0.660005
H25   H     H_    0.752689 0.347900 0.712128 0.251822
H26   H     H_    0.798917 0.380955 0.631009 0.263168
H27   H     H_    0.799389 0.361148 0.711624 0.254873
C126  C     C_3   0.220153 0.378478 0.304520 -0.660529
H28   H     H_    0.247287 0.347075 0.284246 0.251964
H29   H     H_    0.201066 0.379288 0.366141 0.263010
H30   H     H_    0.200587 0.361421 0.285084 0.254776
C127  C     C_3   0.279844 0.878446 0.695612 -0.660550
H31   H     H_    0.252708 0.847037 0.715921 0.251970
H32   H     H_    0.298930 0.879208 0.633990 0.263001
H33   H     H_    0.299410 0.861433 0.715066 0.254775
C128  C     C_3   0.720158 0.878719 0.305615 -0.660290
H34   H     H_    0.747295 0.847380 0.285623 0.251918
H35   H     H_    0.701071 0.879914 0.367226 0.263066
H36   H     H_    0.700594 0.861309 0.286331 0.254815
C129  C     C_3   0.060286 0.579034 0.255966 -0.723030
H37   H     H_    0.088405 0.586808 0.199084 0.261923
H38   H     H_    0.046792 0.624246 0.283124 0.243575
H39   H     H_    0.072164 0.554458 0.285660 0.232438
C130  C     C_3   0.939722 0.579044 0.744030 -0.723455
H40   H     H_    0.911606 0.586828 0.800912 0.261874
H41   H     H_    0.953221 0.624251 0.716861 0.243464
H42   H     H_    0.927838 0.554464 0.714346 0.232498
C131  C     C_3   0.560287 0.079034 0.255965 -0.723106
H43   H     H_    0.588407 0.086804 0.199082 0.261942
H44   H     H_    0.546794 0.124247 0.283119 0.243540
H45   H     H_    0.572163 0.054458 0.285662 0.232446
C132  C     C_3   0.439719 0.079040 0.744032 -0.723003
H46   H     H_    0.411601 0.086820 0.800915 0.261923
H47   H     H_    0.453216 0.124248 0.716868 0.243582
H48   H     H_    0.427837 0.054460 0.714344 0.232438
C133  C     C_3   0.044638 0.597125 0.138007 -0.799446
H49   H     H_    0.050185 0.638188 0.162057 0.246363
H50   H     H_    0.074907 0.581601 0.088234 0.269425
H51   H     H_    0.023776 0.613568 0.121006 0.211800
C134  C     C_3   0.955374 0.597136 0.861986 -0.799336
H52   H     H_    0.949831 0.638199 0.837933 0.246322
H53   H     H_    0.925103 0.581617 0.911761 0.269490
H54   H     H_    0.976238 0.613575 0.878984 0.211787
C135  C     C_3   0.544639 0.097125 0.138006 -0.799168
H55   H     H_    0.550188 0.138187 0.162055 0.246379
H56   H     H_    0.574908 0.081599 0.088233 0.269487
H57   H     H_    0.523777 0.113569 0.121005 0.211777
C136  C     C_3   0.455367 0.097129 0.861992 -0.799460
H58   H     H_    0.449824 0.138193 0.837941 0.246363
H59   H     H_    0.425096 0.081607 0.911764 0.269429
H60   H     H_    0.476229 0.113569 0.878996 0.211795
C137  C     C_3   0.955260 0.400267 0.229919 -0.658081
H61   H     H_    0.962079 0.396804 0.173276 0.225141
H62   H     H_    0.965416 0.355417 0.239676 0.270810
H63   H     H_    0.920901 0.405384 0.270040 0.250959
C138  C     C_3   0.044719 0.400252 0.770101 -0.657844
H64   H     H_    0.037895 0.396791 0.826748 0.225034
H65   H     H_    0.034557 0.355406 0.760344 0.270899
H66   H     H_    0.079080 0.405358 0.729985 0.250994
C139  C     C_3   0.455258 0.900270 0.229921 -0.657854
H67   H     H_    0.462077 0.896805 0.173278 0.225128
H68   H     H_    0.465410 0.855418 0.239684 0.270846
H69   H     H_    0.420898 0.905392 0.270041 0.250977
C140  C     C_3   0.544735 0.900267 0.770081 -0.658091
H70   H     H_    0.537914 0.896803 0.826726 0.225111
H71   H     H_    0.534579 0.855417 0.760320 0.270858
H72   H     H_    0.579095 0.905385 0.729963 0.250933

loop_
_geom_bond_atom_site_label_1
_geom_bond_atom_site_label_2
_geom_bond_distance
_ccdc_geom_bond_type
C75   C79   1.407366 A    
O33   C89   1.271923 A    
C63   C67   1.413062 A    
C129  H38   1.110035 S    
O33   Zn9   2.016743 S    
C139  H67   1.106041 S    
C109  C115  1.392026 A    
C138  H64   1.106044 S    
C125  H27   1.109574 S    
C70   C138  1.519334 S    
O22   Zn6   1.998480 S    
O42   Zn9   2.018602 S    
C71   C75   1.391187 A    
C138  H66   1.110245 S    
C59   C131  1.519341 S    
C34   N22   1.457455 S    
C76   C80   1.407372 A    
C7    C19   1.413463 S    
C38   C46   1.540507 S    
C73   N1    1.437477 S    
C12   C28   1.541223 S    
N16   O80   1.300274 A    
C30   C50   1.445235 S    
Zn10  O46   2.016876 S    
N22   O91   1.300208 A    
N12   O72   1.300166 A    
C103  C106  1.396534 A    
Zn9   O45   2.016889 S    
O4    C4    1.277957 A    
O27   Zn8   2.005068 S    
O38   Zn10  2.023663 S    
C58   C130  1.519341 S    
C13   C45   1.551285 S    
C132  H47   1.110034 S    
C15   C47   1.551283 S    
N3    O53   1.301041 A    
C113  N5    1.435481 S    
N13   O73   1.300187 A    
C111  C120  1.411243 A    
C47   N15   1.457190 S    
N14   O76   1.300276 A    
C123  H20   1.109248 S    
C19   C51   1.192821 T    
N4    O55   1.301043 A    
C100  H8    1.083697 S    
C62   C66   1.413054 A    
C67   C93   1.431989 S    
C62   C134  1.520778 S    
O16   Zn4   2.001365 S    
C130  H40   1.110047 S    
O13   C5    1.280993 A    
O7    Zn4   2.019651 S    
C134  H54   1.110618 S    
O15   C7    1.280998 A    
N7    O61   1.301177 A    
C33   N21   1.457453 S    
C44   C48   1.532907 S    
O9    C5    1.281588 A    
C132  H46   1.110049 S    
N8    O64   1.301177 A    
C9    N9    1.457515 S    
C45   N13   1.457192 S    
C39   C47   1.540504 S    
C14   C30   1.554778 S    
O47   C96   1.272616 A    
N21   O90   1.300133 A    
O8    Zn4   2.019664 S    
O19   C82   1.279291 A    
C139  H69   1.110250 S    
C63   C135  1.520781 S    
C102  H10   1.083811 S    
C130  H42   1.110026 S    
N19   O86   1.300247 A    
C12   N12   1.457542 S    
O3    Zn2   2.020733 S    
C60   C64   1.398596 A    
N2    O51   1.301043 A    
O11   Zn2   2.001670 S    
C43   N19   1.457252 S    
C33   C37   1.541371 S    
C35   C39   1.541358 S    
C112  C114  1.391971 A    
C36   C40   1.541355 S    
C126  H29   1.109608 S    
C42   C46   1.532909 S    
C25   C29   1.545464 S    
C27   C31   1.545462 S    
O29   C87   1.277408 A    
O3    C3    1.277958 A    
Zn7   O31   2.017733 S    
C135  H55   1.109044 S    
O18   Zn6   2.017246 S    
Zn12  O48   2.016876 S    
Zn8   O32   2.017751 S    
O20   Zn8   2.017246 S    
C97   H5    1.083697 S    
C111  C123  1.520443 S    
O26   Zn5   2.005071 S    
C9    C13   1.550221 S    
C100  C102  1.382493 A    
C109  C121  1.520440 S    
C122  H18   1.110755 S    
C9    C25   1.541238 S    
O17   Zn5   2.017264 S    
N5    O57   1.301178 A    
C59   C79   1.411427 A    
C12   C16   1.550218 S    
C27   C127  1.520658 S    
C42   N18   1.457258 S    
O24   Zn8   1.998480 S    
C23   C85   1.413512 S    
C68   C72   1.411347 A    
C25   C33   1.543264 S    
N10   O67   1.300218 A    
C116  C118  1.407448 A    
N17   O81   1.300207 A    
O28   C86   1.282617 A    
C136  H59   1.109928 S    
C28   C36   1.543269 S    
C35   C43   1.533844 S    
O5    Zn3   2.019651 S    
C37   C53   1.446576 S    
C131  H44   1.110036 S    
C97   C107  1.397839 A    
C29   C41   1.537609 S    
N9    O65   1.300212 A    
C88   C120  1.429066 S    
C31   C51   1.445229 S    
O44   C94   1.271204 A    
C137  H62   1.109219 S    
N8    O63   1.300909 A    
C101  C105  1.396534 A    
C60   C132  1.519341 S    
C127  H31   1.109625 S    
C140  H71   1.109218 S    
C9    C37   1.541461 S    
C10   C14   1.550221 S    
O45   C95   1.272616 A    
O13   Zn3   2.001355 S    
C11   C39   1.541468 S    
C12   C40   1.541467 S    
C124  H22   1.106516 S    
C32   C44   1.537615 S    
O26   C84   1.282615 A    
O5    C1    1.279553 A    
C128  H34   1.109623 S    
C115  N7    1.435480 S    
Zn5   O29   2.017733 S    
O8    C4    1.279559 A    
C135  H57   1.110621 S    
C122  H16   1.106500 S    
C58   C78   1.411427 A    
C74   N2    1.437475 S    
N11   O70   1.300166 A    
C110  C116  1.392004 A    
O40   Zn12  2.023663 S    
O15   Zn4   2.001355 S    
N20   O88   1.300245 A    
C132  H48   1.110028 S    
O43   Zn12  2.018600 S    
N7    O62   1.300904 A    
N1    O49   1.301041 A    
O25   C83   1.282623 A    
C26   C126  1.520659 S    
C60   C80   1.411426 A    
O30   C87   1.277391 A    
C69   C73   1.391188 A    
C104  C106  1.396537 A    
C65   C91   1.431993 S    
O17   C81   1.279292 A    
O14   C6    1.281001 A    
C38   C54   1.446589 S    
C72   C140  1.519334 S    
C11   C27   1.541233 S    
N18   O83   1.300211 A    
C113  C117  1.407480 A    
C30   C42   1.537615 S    
C125  H26   1.109610 S    
O10   C6    1.281584 A    
O39   Zn11  2.023662 S    
C72   C76   1.391190 A    
O37   Zn9   2.023662 S    
C129  H39   1.110026 S    
O20   C82   1.279291 A    
C65   C69   1.411352 A    
C17   C49   1.192821 T    
C97   C103  1.382491 A    
O23   C85   1.282742 A    
N22   O92   1.300137 A    
C101  H9    1.083812 S    
N24   O95   1.300212 A    
C21   C53   1.193001 T    
C10   N10   1.457538 S    
C57   C61   1.398593 A    
C16   C48   1.551285 S    
C46   N14   1.457187 S    
O18   C81   1.279289 A    
C34   C38   1.541351 S    
C59   C63   1.398593 A    
N11   O69   1.300216 A    
N6    O59   1.300904 A    
O34   C89   1.271893 A    
N15   O77   1.300188 A    
C123  H19   1.106482 S    
C124  H24   1.110759 S    
C26   C30   1.545463 S    
N4    O56   1.300887 A    
C128  H36   1.109580 S    
C61   C133  1.520782 S    
C140  H72   1.110248 S    
C70   C74   1.391193 A    
C127  H33   1.109578 S    
C129  H37   1.110048 S    
C134  H53   1.109927 S    
C115  C118  1.407463 A    
C114  N6    1.435398 S    
C98   H6    1.083697 S    
C76   N4    1.437474 S    
C112  C120  1.411203 A    
O28   Zn7   2.005071 S    
C28   C128  1.520661 S    
C14   C46   1.551283 S    
C44   N20   1.457262 S    
C100  C108  1.397839 A    
Zn6   O30   2.017751 S    
O31   C88   1.277408 A    
C21   C83   1.413512 S    
C138  H65   1.109219 S    
C10   C26   1.541224 S    
C36   N24   1.457455 S    
N21   O89   1.300231 A    
O48   C96   1.272612 A    
C40   C56   1.446585 S    
C116  N8    1.435452 S    
C139  H68   1.109217 S    
C66   C70   1.411339 A    
C130  H41   1.110035 S    
O12   Zn2   2.001656 S    
C18   C50   1.192821 T    
C102  C105  1.396536 A    
O21   Zn5   1.998480 S    
C26   C34   1.543271 S    
O1    C1    1.277962 A    
N2    O52   1.300888 A    
C48   N16   1.457188 S    
C22   C54   1.192985 T    
C61   C65   1.413059 A    
C57   C77   1.411426 A    
C121  H13   1.106488 S    
C13   H1    1.110047 S    
O19   Zn7   2.017264 S    
C15   H3    1.110051 S    
C126  H28   1.109622 S    
C16   C32   1.554781 S    
O36   Zn12  2.016758 S    
C2    C78   1.438494 S    
O34   Zn10  2.016758 S    
N12   O71   1.300217 A    
C4    C80   1.438485 S    
C5    C17   1.413464 S    
C112  C124  1.520426 S    
N13   O74   1.300277 A    
C68   C94   1.431990 S    
C8    C20   1.413460 S    
C11   C15   1.550221 S    
C110  C119  1.411247 A    
N14   O75   1.300191 A    
O22   C84   1.282744 A    
C123  H21   1.110757 S    
C11   N11   1.457525 S    
O25   Zn6   2.005068 S    
C33   C41   1.533838 S    
O6    C2    1.279562 A    
O4    Zn2   2.020714 S    
O40   C94   1.269784 A    
C114  C117  1.407447 A    
C74   C78   1.407375 A    
C58   C62   1.398591 A    
C109  C119  1.411260 A    
C133  H49   1.109050 S    
O44   Zn11  2.018602 S    
C41   C45   1.532916 S    
N10   O68   1.300170 A    
O2    Zn1   2.020714 S    
C43   C47   1.532911 S    
O10   Zn1   2.001656 S    
Zn11  O47   2.016889 S    
C136  H58   1.109048 S    
C99   C101  1.382491 A    
C133  H50   1.109927 S    
C36   C44   1.533847 S    
C128  H35   1.109608 S    
C131  H43   1.110049 S    
C75   N3    1.437471 S    
N3    O54   1.300889 A    
O43   C93   1.271207 A    
O35   C90   1.271902 A    
C32   C52   1.445231 S    
C137  H61   1.106039 S    
O32   C88   1.277370 A    
C23   C55   1.192992 T    
O42   C92   1.271207 A    
O38   C92   1.269776 A    
O39   C93   1.269787 A    
C39   C55   1.446585 S    
C140  H70   1.106041 S    
O41   C91   1.271207 A    
O37   C91   1.269788 A    
N16   O79   1.300190 A    
O21   C83   1.282733 A    
N23   O94   1.300134 A    
C126  H30   1.109583 S    
C111  C113  1.392038 A    
C24   C86   1.413515 S    
N15   O78   1.300277 A    
O23   Zn7   1.998480 S    
C71   C139  1.519334 S    
C69   C137  1.519335 S    
C20   C52   1.192821 T    
C25   C125  1.520664 S    
O27   C85   1.282617 A    
C66   C92   1.431984 S    
C122  H17   1.109254 S    
C34   C42   1.533848 S    
C64   C68   1.413056 A    
C135  H56   1.109927 S    
C35   N23   1.457451 S    
O11   C7    1.281585 A    
O12   C8    1.281586 A    
O1    Zn1   2.020733 S    
O9    Zn1   2.001670 S    
C90   C118  1.436627 S    
C95   C105  1.428579 S    
C13   C29   1.554805 S    
C15   C31   1.554791 S    
O16   C8    1.280999 A    
C16   H4    1.110057 S    
N18   O84   1.300250 A    
C133  H51   1.110621 S    
N1    O50   1.300887 A    
C125  H25   1.109626 S    
C103  H11   1.083811 S    
C110  C122  1.520434 S    
N17   O82   1.300239 A    
C136  H60   1.110617 S    
C99   H7    1.083696 S    
C57   C129  1.519344 S    
C81   C107  1.431952 S    
O7    C3    1.279557 A    
O6    Zn3   2.019664 S    
C82   C108  1.431950 S    
C131  H45   1.110024 S    
C96   C106  1.428579 S    
C98   C104  1.382493 A    
N9    O66   1.300160 A    
C98   C107  1.397838 A    
C89   C117  1.436662 S    
N23   O93   1.300219 A    
C137  H63   1.110246 S    
N24   O96   1.300137 A    
C27   C35   1.543271 S    
O2    C2    1.277957 A    
O36   C90   1.271893 A    
C121  H15   1.110754 S    
C37   C45   1.540506 S    
C41   N17   1.457247 S    
O41   Zn10  2.018600 S    
C14   H2    1.110056 S    
O46   C95   1.272612 A    
C29   C49   1.445219 S    
O14   Zn3   2.001365 S    
C22   C84   1.413512 S    
N6    O60   1.301181 A    
C64   C136  1.520778 S    
C31   C43   1.537613 S    
C87   C119  1.429105 S    
C124  H23   1.109257 S    
O35   Zn11  2.016743 S    
C24   C56   1.192988 T    
C10   C38   1.541469 S    
N5    O58   1.300902 A    
C6    C18   1.413460 S    
N19   O85   1.300209 A    
C127  H32   1.109607 S    
C40   C48   1.540507 S    
C134  H52   1.109049 S    
N20   O87   1.300209 A    
O24   C86   1.282739 A    
C104  H12   1.083809 S    
C67   C71   1.411349 A    
C1    C77   1.438481 S    
C99   C108  1.397839 A    
C3    C79   1.438484 S    
C121  H14   1.109249 S    
C73   C77   1.407368 A    
C28   C32   1.545462 S    
