data_mof_unit_54341.cif
_audit_creation_date              2012-12-10T17:31:55-0500
_audit_creation_method            fapswitch 2.2
_symmetry_space_group_name_H-M    P1
_symmetry_Int_Tables_number       1
_space_group_crystal_system       triclinic
_cell_length_a                    12.101286
_cell_length_b                    11.520703
_cell_length_c                    12.830849
_cell_angle_alpha                 91.177315
_cell_angle_beta                  93.203365
_cell_angle_gamma                 87.377987
_cell_volume                      1783.8617901

loop_
_atom_site_label
_atom_site_type_symbol
_atom_type_description
_atom_site_fract_x
_atom_site_fract_y
_atom_site_fract_z
_atom_type_partial_charge
C1    C     C_R   0.478414 0.502671 0.300259 0.955520
C2    C     C_R   0.521606 0.497456 0.699678 0.959071
C3    C     C_R   0.048428 0.608694 0.598227 -0.365724
C4    C     C_R   0.951329 0.391811 0.401226 -0.377411
C5    C     C_R   0.164235 0.595762 0.591444 0.592121
C6    C     C_R   0.835731 0.400173 0.412025 0.594328
C7    C     C_R   0.140220 0.451300 0.457888 0.320132
C8    C     C_R   0.859687 0.549318 0.541543 0.314265
C9    C     C_R   0.023149 0.459984 0.464389 -0.051328
C10   C     C_R   0.976706 0.540094 0.535477 -0.055587
C11   C     C_R   0.499061 0.282222 0.499790 0.920859
C12   C     C_R   0.500944 0.717781 0.500091 0.917035
C13   C     C_1   0.497655 0.161763 0.499749 -0.129483
C14   C     C_1   0.502417 0.838239 0.499773 -0.106072
C15   C     C_1   0.498866 0.059423 0.499650 0.025586
C16   C     C_1   0.501335 0.940575 0.499633 0.034348
C17   C     C_R   0.534841 0.500096 0.810585 -0.192469
C18   C     C_R   0.465910 0.497768 0.189293 -0.211527
C19   C     C_R   0.390860 0.399213 0.037000 0.570328
C20   C     C_R   0.619140 0.588127 0.964995 0.571209
C21   C     C_R   0.397296 0.416002 0.143741 -0.331646
C22   C     C_R   0.605935 0.579104 0.856877 -0.373915
C23   C     C_R   0.531994 0.564247 0.130616 0.274567
C24   C     C_R   0.472062 0.429662 0.868847 0.217877
C25   C     C_R   0.539617 0.536978 0.024183 -0.105230
C26   C     C_R   0.466759 0.453858 0.976050 -0.144972
H1    H     H_    0.652076 0.631911 0.807859 0.205969
H2    H     H_    0.348108 0.364555 0.191498 0.220657
H3    H     H_    0.016486 0.672299 0.653138 0.204718
H4    H     H_    0.983324 0.332883 0.342604 0.199743
N1    N     N_R   0.792200 0.479100 0.480660 -0.146668
N2    N     N_R   0.207800 0.520900 0.519340 -0.150932
O1    O     O_R   0.578300 0.494420 0.341180 -0.547402
O2    O     O_R   0.421700 0.505580 0.658820 -0.589801
O3    O     O_R   0.390690 0.507830 0.353590 -0.604715
O4    O     O_R   0.609310 0.492170 0.646410 -0.595647
O5    O     O_R   0.593810 0.327740 0.493800 -0.618873
O6    O     O_R   0.406190 0.672260 0.506200 -0.585178
O7    O     O_R   0.406190 0.341150 0.506220 -0.556289
O8    O     O_R   0.593810 0.658850 0.493780 -0.564515
Zn1   Zn    Zn3+2 0.625270 0.491050 0.491710 1.046431
Zn2   Zn    Zn3+2 0.374730 0.508950 0.508290 1.043958
Br1   Br    Br    0.404738 0.297187 0.798605 -0.469998
Br2   Br    Br    0.597024 0.700089 0.197314 -0.445159
O9    O     O_3   0.312911 0.325148 0.994930 -0.587488
C27   C     C_3   0.209742 0.387105 0.978198 0.121861
H5    H     H_    0.168849 0.349565 0.906395 0.166617
H6    H     H_    0.217842 0.480815 0.960460 0.113205
C28   C     C_3   0.134224 0.370715 0.069179 -0.373371
H7    H     H_    0.053707 0.338025 0.038310 0.196406
H8    H     H_    0.171189 0.303626 0.123175 0.269872
C29   C     C_3   0.111630 0.483871 0.130332 -0.858393
H9    H     H_    0.189571 0.517239 0.166451 0.287598
H10   H     H_    0.054836 0.468149 0.193055 0.275487
H11   H     H_    0.071743 0.551166 0.078395 0.245131
O10   O     O_3   0.708252 0.643724 0.014822 -0.596149
C30   C     C_3   0.809294 0.626947 0.963866 0.132813
H12   H     H_    0.874042 0.671859 0.012078 0.163240
H13   H     H_    0.805516 0.671842 0.888007 0.163644
C31   C     C_3   0.848471 0.497898 0.953846 -0.383431
H14   H     H_    0.882061 0.467033 0.031197 0.228463
H15   H     H_    0.779524 0.441730 0.928693 0.236871
C32   C     C_3   0.936774 0.481427 0.873809 -0.948596
H16   H     H_    0.902168 0.507116 0.795381 0.299156
H17   H     H_    0.964792 0.388516 0.869217 0.261210
H18   H     H_    0.008764 0.534595 0.895765 0.249310
Br3   Br    Br    0.794455 0.663163 0.633799 -0.565244
Br4   Br    Br    0.205535 0.337182 0.366111 -0.555289
O11   O     O_3   0.763569 0.338772 0.346349 -0.606955
C33   C     C_3   0.790120 0.217674 0.346237 0.073254
H19   H     H_    0.716088 0.173233 0.369761 0.177830
H20   H     H_    0.859444 0.190022 0.402674 0.127880
C34   C     C_3   0.815424 0.176445 0.235619 -0.373820
H21   H     H_    0.743211 0.199170 0.181310 0.245829
H22   H     H_    0.888215 0.221080 0.209511 0.220475
C35   C     C_3   0.839459 0.045311 0.230564 -0.857272
H23   H     H_    0.912824 0.020847 0.282727 0.267262
H24   H     H_    0.856992 0.018203 0.149375 0.268917
H25   H     H_    0.766815 0.998707 0.254385 0.282610
O12   O     O_3   0.234759 0.664398 0.651981 -0.607160
C36   C     C_3   0.223308 0.648045 0.760155 0.069577
H26   H     H_    0.303556 0.612186 0.794459 0.183689
H27   H     H_    0.159802 0.585414 0.778767 0.108098
C37   C     C_3   0.197781 0.765347 0.813402 -0.338072
H28   H     H_    0.263120 0.826221 0.797106 0.252994
H29   H     H_    0.116879 0.802495 0.781373 0.228064
C38   C     C_3   0.193417 0.753378 0.931354 -0.935595
H30   H     H_    0.125090 0.697443 0.949657 0.247708
H31   H     H_    0.178198 0.840405 0.967910 0.284093
H32   H     H_    0.273141 0.715035 0.965074 0.269499

loop_
_geom_bond_atom_site_label_1
_geom_bond_atom_site_label_2
_ccdc_geom_bond_type
C6    O11   S    
C38   H30   S    
C32   H17   S    
C18   C21   A    
C34   H21   S    
O2    Zn2   S    
C37   C38   S    
C20   O10   S    
C36   H26   S    
C1    O1    A    
O9    C27   S    
C27   C28   S    
C1    C18   S    
C31   C32   S    
C19   C21   A    
C35   H24   S    
O6    Zn2   S    
C30   H13   S    
C20   C25   A    
C15   C16   S    
O10   C30   S    
C19   C26   A    
C31   H15   S    
C3    H3    S    
O3    Zn2   S    
C7    Br4   S    
C28   H8    S    
C35   H25   S    
C33   H19   S    
C9    C10   A    
C29   H11   S    
C5    N2    A    
C2    O2    A    
C6    N1    A    
C32   H18   S    
C2    C17   S    
C12   O6    A    
C34   H22   S    
O4    Zn1   S    
C36   H27   S    
C29   H10   S    
O7    Zn2   S    
C27   H6    S    
C17   C24   A    
C18   C23   A    
C35   H23   S    
C4    C6    A    
C30   C31   S    
C25   C26   A    
C23   Br2   S    
C31   H14   S    
C12   O8    A    
C28   C29   S    
C33   C34   S    
C37   H28   S    
C5    O12   S    
C11   O7    A    
O8    Zn1   S    
C21   H2    S    
C12   C14   S    
C22   H1    S    
C13   C15   T    
C34   C35   S    
C14   C16   T    
C20   C22   A    
C36   C37   S    
C29   H9    S    
C1    O3    A    
C11   O5    A    
C2    O4    A    
C7    C9    A    
C27   H5    S    
C7    N2    A    
N1    Zn1   S    
C8    N1    A    
C24   C26   A    
O12   C36   S    
C3    C5    A    
C19   O9    S    
C17   C22   A    
O1    Zn1   S    
C38   H31   S    
C3    C10   A    
C11   C13   S    
C30   H12   S    
C23   C25   A    
O5    Zn1   S    
O11   C33   S    
C32   H16   S    
C8    Br3   S    
C8    C10   A    
C28   H7    S    
C38   H32   S    
C24   Br1   S    
N2    Zn2   S    
C37   H29   S    
C33   H20   S    
C4    C9    A    
C4    H4    S    
