data_mof_unit_43607.cif
_audit_creation_date              2012-12-10T18:45:32-0500
_audit_creation_method            fapswitch 2.2
_symmetry_space_group_name_H-M    P1
_symmetry_Int_Tables_number       1
_space_group_crystal_system       triclinic
_cell_length_a                    18.119823
_cell_length_b                    18.087384
_cell_length_c                    42.993766
_cell_angle_alpha                 89.958476
_cell_angle_beta                  89.846038
_cell_angle_gamma                 89.958581
_cell_volume                      14090.7270866

loop_
_atom_site_label
_atom_site_type_symbol
_atom_type_description
_atom_site_fract_x
_atom_site_fract_y
_atom_site_fract_z
_atom_type_partial_charge
C1    C     C_R   0.499883 0.999879 0.334206 0.511689
C2    C     C_R   0.500522 0.999872 0.868489 0.033337
C3    C     C_3   0.770880 0.262628 0.220707 0.247561
C4    C     C_3   0.296754 0.264927 0.772639 0.247675
C5    C     C_3   0.696910 0.728896 0.230404 0.253477
C6    C     C_3   0.782731 0.252429 0.778445 0.259990
C7    C     C_3   0.226010 0.742499 0.221603 0.245493
C8    C     C_R   0.499305 0.066966 0.114934 -0.130237
C9    C     C_R   0.499688 0.932886 0.885018 -0.133542
C10   C     C_R   0.933271 0.506608 0.115116 -0.134021
C11   C     C_R   0.066276 0.499028 0.885024 -0.124888
C12   C     C_R   0.501803 0.933071 0.114994 -0.129637
C13   C     C_R   0.999791 0.498856 0.131505 0.035622
C14   C     C_R   0.501863 0.066789 0.885003 -0.134050
C15   C     C_R   0.065842 0.489699 0.114831 -0.136334
C16   C     C_R   0.932587 0.498143 0.885001 -0.133315
C17   C     C_R   0.999922 0.566972 0.614935 -0.128015
C18   C     C_R   0.998551 0.432901 0.385017 -0.135627
C19   C     C_R   0.433844 0.010537 0.615121 -0.131213
C20   C     C_R   0.566291 0.998522 0.385027 -0.126049
C21   C     C_R   0.000784 0.433058 0.614994 -0.129503
C22   C     C_R   0.002114 0.566773 0.385003 -0.135253
C23   C     C_R   0.565184 0.985780 0.614851 -0.136482
C24   C     C_R   0.999570 0.499085 0.868487 0.039761
C25   C     C_R   0.432598 0.999253 0.385015 -0.131650
C26   C     C_R   0.499672 0.066940 0.082488 -0.125040
C27   C     C_R   0.500080 0.932837 0.917464 -0.127110
C28   C     C_R   0.932955 0.505815 0.082669 -0.126840
C29   C     C_R   0.066045 0.498162 0.917460 -0.124758
C30   C     C_R   0.502165 0.933029 0.082552 -0.124725
C31   C     C_R   0.502233 0.066756 0.917441 -0.126854
C32   C     C_R   0.065602 0.489098 0.082397 -0.126158
C33   C     C_R   0.932346 0.497392 0.917451 -0.125917
C34   C     C_R   0.000136 0.566943 0.582488 -0.123994
C35   C     C_R   0.000227 0.500029 0.631492 0.035926
C36   C     C_R   0.998737 0.432850 0.417463 -0.127676
C37   C     C_R   0.433522 0.009892 0.582672 -0.125501
C38   C     C_R   0.566067 0.997786 0.417465 -0.125513
C39   C     C_R   0.000971 0.433013 0.582552 -0.124437
C40   C     C_R   0.002300 0.566738 0.417441 -0.127288
C41   C     C_R   0.564965 0.985396 0.582414 -0.125903
C42   C     C_R   0.432370 0.998710 0.417467 -0.125405
C43   C     C_R   0.501083 0.999963 0.065940 0.032147
C44   C     C_R   0.501304 0.999785 0.934032 0.032402
C45   C     C_R   0.999164 0.497252 0.065951 0.033157
C46   C     C_R   0.000211 0.499872 0.368489 0.032394
C47   C     C_R   0.999089 0.497442 0.934035 0.032795
C48   C     C_R   0.000634 0.499955 0.565940 0.031607
C49   C     C_R   0.000600 0.499781 0.434031 0.032444
C50   C     C_R   0.499146 0.997557 0.565961 0.032555
C51   C     C_R   0.499116 0.997976 0.434045 0.032676
C52   C     C_3   0.198230 0.201794 0.174036 0.018648
C53   C     C_3   0.163698 0.215851 0.142209 -0.256422
C54   C     C_3   0.180208 0.152715 0.119713 -0.480954
C55   C     C_3   0.811920 0.802357 0.825169 0.020655
C56   C     C_3   0.868459 0.864924 0.826591 -0.278640
C57   C     C_R   0.499781 0.998865 0.631513 0.035503
C58   C     C_3   0.854900 0.915304 0.854478 -0.486719
C59   C     C_3   0.872789 0.104211 0.227903 0.014423
C60   C     C_3   0.924909 0.152774 0.208442 -0.245043
C61   C     C_3   0.005326 0.130943 0.213275 -0.495793
C62   C     C_3   0.136146 0.872307 0.792000 0.025059
C63   C     C_3   0.098098 0.933565 0.773420 -0.270856
C64   C     C_3   0.015794 0.936821 0.780785 -0.500860
C65   C     C_3   0.788950 0.787526 0.171771 0.020536
C66   C     C_3   0.815023 0.767651 0.139018 -0.254117
C67   C     C_3   0.794291 0.827643 0.115636 -0.481437
C68   C     C_R   0.499580 0.999283 0.368493 0.039773
C69   C     C_3   0.188142 0.192000 0.824903 0.021460
C70   C     C_3   0.118906 0.143447 0.824204 -0.266514
C71   C     C_3   0.130090 0.072126 0.842574 -0.488306
C72   C     C_3   0.119099 0.890373 0.237777 0.017036
C73   C     C_3   0.070471 0.845785 0.215357 -0.244382
C74   C     C_3   0.988639 0.860689 0.220869 -0.497184
C75   C     C_3   0.791736 0.059115 0.772295 0.009803
C76   C     C_3   0.750291 0.062873 0.803516 -0.261931
C77   C     C_3   0.696400 0.998565 0.806846 -0.444974
C78   C     C_3   0.673552 0.682526 0.680620 0.024017
C79   C     C_R   0.000703 0.499799 0.468395 0.344605
C80   C     C_3   0.633833 0.689921 0.649490 -0.254171
C81   C     C_3   0.638193 0.618287 0.630835 -0.485277
C82   C     C_3   0.296792 0.292474 0.327914 0.020859
C83   C     C_3   0.356030 0.351780 0.332234 -0.275846
C84   C     C_3   0.338103 0.402494 0.359576 -0.486021
C85   C     C_3   0.361270 0.633288 0.703208 0.028364
C86   C     C_3   0.377245 0.564760 0.683494 -0.260486
C87   C     C_3   0.451211 0.571119 0.666593 -0.494623
C88   C     C_3   0.626226 0.374609 0.285060 0.020139
C89   C     C_3   0.597567 0.452460 0.291679 -0.268856
C90   C     C_R   0.000727 0.499896 0.531575 0.345550
C91   C     C_3   0.517273 0.451433 0.302408 -0.498473
C92   C     C_3   0.306311 0.304499 0.676045 0.023931
C93   C     C_3   0.338331 0.292483 0.643549 -0.251188
C94   C     C_3   0.327571 0.360685 0.623120 -0.484957
C95   C     C_3   0.708873 0.710658 0.328893 0.021003
C96   C     C_3   0.643136 0.659234 0.334607 -0.268251
C97   C     C_3   0.662801 0.597564 0.357355 -0.488427
C98   C     C_3   0.621036 0.391743 0.743443 0.032185
C99   C     C_3   0.593534 0.466692 0.731886 -0.253916
C100  C     C_3   0.514583 0.481428 0.742542 -0.499783
C101  C     C_R   0.499000 0.997569 0.468412 0.345139
C102  C     C_3   0.290628 0.560167 0.274290 0.006429
C103  C     C_3   0.246302 0.561821 0.304796 -0.260968
C104  C     C_3   0.193446 0.496399 0.306835 -0.442447
C105  C     C_3   0.159004 0.150448 0.309303 0.025381
C106  C     C_3   0.099386 0.096271 0.298601 -0.270201
C107  C     C_3   0.107622 0.021263 0.314401 -0.495480
C108  C     C_3   0.904775 0.799815 0.703291 0.039020
C109  C     C_3   0.908652 0.876288 0.688167 -0.268654
C110  C     C_3   0.988355 0.901252 0.683894 -0.505068
C111  C     C_3   0.747710 0.253350 0.332049 0.019086
C112  C     C_R   0.500026 0.999763 0.665796 0.506186
C113  C     C_R   0.499018 0.997370 0.531596 0.344919
C114  C     C_3   0.792757 0.192879 0.348169 -0.261568
C115  C     C_3   0.845330 0.225562 0.372169 -0.484491
C116  C     C_3   0.251874 0.860891 0.681467 0.034012
C117  C     C_3   0.191847 0.854354 0.656776 -0.274605
C118  C     C_3   0.163440 0.930404 0.647063 -0.490086
C119  C     C_3   0.843007 0.856854 0.305986 0.027990
C120  C     C_3   0.896206 0.916569 0.294380 -0.278997
C121  C     C_3   0.884271 0.989664 0.311408 -0.490863
C122  C     C_3   0.080877 0.197089 0.714810 0.042059
C123  C     C_3   0.064630 0.115234 0.709312 -0.291763
C124  C     C_R   0.501451 0.999807 0.968395 0.344927
C125  C     C_3   0.985668 0.096839 0.719101 -0.480790
C126  C     C_3   0.272807 0.781386 0.331993 0.007401
C127  C     C_3   0.264913 0.865729 0.332970 -0.261074
C128  C     C_3   0.220323 0.890539 0.361234 -0.499677
C129  C     C_3   0.681655 0.188692 0.675714 0.022289
C130  C     C_3   0.751712 0.141624 0.671070 -0.276965
C131  C     C_3   0.737429 0.076109 0.649665 -0.473614
C132  C     C_3   0.668985 0.662124 0.815196 0.022339
C133  C     C_3   0.602436 0.612018 0.809231 -0.265219
C134  C     C_3   0.613761 0.535496 0.823425 -0.496673
C135  C     C_R   0.501326 0.999906 0.031576 0.345515
C136  C     C_3   0.416681 0.307703 0.212398 0.033459
C137  C     C_3   0.433459 0.381631 0.196619 -0.271101
C138  C     C_3   0.515158 0.401222 0.198900 -0.500720
C139  C     C_3   0.272555 0.732358 0.830637 0.030096
C140  C     C_3   0.322372 0.668634 0.841053 -0.269686
C141  C     C_3   0.382362 0.695305 0.863200 -0.488568
C142  C     C_3   0.769667 0.338476 0.176829 0.026863
C143  C     C_3   0.712383 0.319548 0.152029 -0.270911
C144  C     C_3   0.682032 0.389267 0.136662 -0.487430
C145  C     C_3   0.333920 0.344452 0.812084 0.031010
C146  C     C_R   0.998977 0.496990 0.968402 0.345317
C147  C     C_3   0.392134 0.401996 0.803276 -0.274027
C148  C     C_3   0.377892 0.475672 0.819511 -0.493594
C149  C     C_3   0.575423 0.691246 0.222589 0.040452
C150  C     C_3   0.560274 0.608415 0.219998 -0.293669
C151  C     C_3   0.488107 0.588163 0.236322 -0.473125
C152  C     C_3   0.780557 0.277704 0.831839 0.003272
C153  C     C_3   0.774558 0.362301 0.832729 -0.260225
C154  C     C_3   0.734497 0.388527 0.861948 -0.499117
C155  C     C_3   0.190484 0.680370 0.175429 0.016427
C156  C     C_3   0.259581 0.630763 0.174004 -0.271585
C157  C     C_R   0.999018 0.496914 0.031586 0.344967
C158  C     C_3   0.246550 0.562461 0.154033 -0.469573
C159  C     C_R   0.641368 0.141732 0.250036 0.563980
C160  C     C_R   0.359194 0.857737 0.749573 0.549685
C161  C     C_R   0.858649 0.641742 0.250026 0.546449
C162  C     C_R   0.141011 0.357948 0.750117 0.534587
C163  C     C_R   0.358775 0.858456 0.250150 0.568762
C164  C     C_R   0.999961 0.499965 0.334216 0.489605
C165  C     C_R   0.641798 0.141353 0.749929 0.488752
C166  C     C_R   0.141560 0.358427 0.250087 0.542629
C167  C     C_R   0.858004 0.641156 0.749668 0.547940
C168  C     C_R   0.141214 0.641926 0.750105 0.563377
C169  C     C_R   0.858722 0.358126 0.249880 0.544215
C170  C     C_R   0.358365 0.141393 0.750167 0.551137
C171  C     C_R   0.641144 0.858133 0.250044 0.532524
C172  C     C_R   0.859001 0.358275 0.750249 0.570715
C173  C     C_R   0.141917 0.641200 0.249949 0.481361
C174  C     C_R   0.641835 0.858710 0.750273 0.545074
C175  C     C_R   0.000035 0.500020 0.665778 0.507665
C176  C     C_R   0.358451 0.141580 0.249840 0.542749
C177  C     C_3   0.218571 0.183180 0.243592 -0.203137
C178  C     C_3   0.783003 0.818095 0.752335 -0.194858
C179  C     C_3   0.808950 0.225348 0.267039 -0.196600
C180  C     C_3   0.186872 0.778590 0.736857 -0.188379
C181  C     C_3   0.779360 0.815665 0.241029 -0.203615
C182  C     C_3   0.217872 0.180642 0.755918 -0.193047
C183  C     C_3   0.197244 0.766341 0.270803 -0.221710
C184  C     C_3   0.805782 0.233702 0.729043 -0.142480
C185  C     C_3   0.716574 0.682039 0.747679 -0.201142
C186  C     C_R   0.999881 0.499844 0.834204 0.510554
C187  C     C_3   0.281651 0.317898 0.256119 -0.193687
C188  C     C_3   0.313492 0.720285 0.761854 -0.189443
C189  C     C_3   0.691140 0.273849 0.232629 -0.184151
C190  C     C_3   0.280270 0.316182 0.744741 -0.203517
C191  C     C_3   0.719936 0.682959 0.259088 -0.192127
C192  C     C_3   0.699302 0.264833 0.772077 -0.226668
C193  C     C_3   0.308112 0.731783 0.230294 -0.139984
C194  C     C_3   0.217391 0.252564 0.222538 0.260503
C195  C     C_3   0.789103 0.753431 0.775982 0.217697
C196  C     C_3   0.777075 0.188072 0.237533 0.267570
C197  C     C_R   0.000026 0.499784 0.165793 0.504363
C198  C     C_3   0.228284 0.807433 0.765961 0.218899
C199  C     C_3   0.777787 0.743244 0.221824 0.255815
C200  C     C_3   0.214628 0.248996 0.777711 0.216514
C201  C     C_3   0.221629 0.811891 0.242019 0.264639
C202  C     C_3   0.784280 0.184421 0.757196 0.243189
C203  C     C_3   0.710602 0.746628 0.724224 0.261541
C204  C     C_3   0.283287 0.248476 0.277389 0.218369
C205  C     C_3   0.272150 0.692070 0.732740 0.252963
C206  C     C_3   0.722853 0.311411 0.262093 0.215094
C207  C     C_3   0.282567 0.247867 0.723026 0.256783
C208  C     C_R   0.500060 0.999964 0.834216 0.492190
C209  C     C_3   0.720777 0.755332 0.278437 0.215641
C210  C     C_3   0.721575 0.313001 0.743761 0.252232
C211  C     C_3   0.283971 0.685127 0.258816 0.240388
C212  C     C_3   0.198820 0.301694 0.250493 0.032745
C213  C     C_3   0.800627 0.697868 0.749240 -0.002633
C214  C     C_3   0.698181 0.198962 0.249891 0.029918
C215  C     C_3   0.302912 0.799981 0.749053 -0.006082
C216  C     C_3   0.801499 0.698676 0.250468 0.029308
C217  C     C_3   0.197077 0.299961 0.749972 -0.012496
C218  C     C_3   0.302860 0.801080 0.250536 0.037352
C219  C     C_R   0.500045 0.000020 0.165777 0.507202
C220  C     C_3   0.700746 0.196412 0.750086 -0.050473
C221  C     C_3   0.699064 0.801932 0.750774 0.030550
C222  C     C_3   0.301666 0.198788 0.249302 -0.005307
C223  C     C_3   0.197959 0.699312 0.749831 0.033859
C224  C     C_3   0.802076 0.300614 0.249799 -0.004804
C225  C     C_3   0.300702 0.197683 0.750718 0.030103
C226  C     C_3   0.697576 0.800616 0.249753 -0.009239
C227  C     C_3   0.803269 0.300777 0.750655 0.039448
C228  C     C_3   0.201204 0.695851 0.250082 -0.055688
C229  C     C_3   0.201237 0.233142 0.271802 0.240057
C230  C     C_R   0.500345 0.000031 0.131491 0.036323
C231  C     C_3   0.793701 0.761534 0.725700 0.254885
C232  C     C_3   0.729221 0.237186 0.279041 0.227430
C233  C     C_3   0.262189 0.770899 0.720158 0.235244
C234  C     C_3   0.801586 0.770261 0.269960 0.243202
C235  C     C_3   0.200382 0.232160 0.728239 0.253692
C236  C     C_3   0.280079 0.755134 0.278770 0.260327
C237  C     C_3   0.722837 0.245819 0.722092 0.249259
C238  C     C_3   0.706031 0.738096 0.774397 0.237606
C239  C     C_3   0.299572 0.267428 0.228082 0.253033
C240  C     C_3   0.238384 0.728988 0.778629 0.239937
H1    H     H_    0.195062 0.128067 0.238234 0.098598
H2    H     H_    0.305538 0.373214 0.260810 0.080879
H3    H     H_    0.790976 0.061004 0.822793 0.164282
H4    H     H_    0.718897 0.115222 0.805800 0.173327
H5    H     H_    0.650992 0.003995 0.789708 0.164158
H6    H     H_    0.672181 0.998557 0.830593 0.139056
H7    H     H_    0.725137 0.945257 0.802906 0.125805
H8    H     H_    0.646681 0.637271 0.694064 0.114506
H9    H     H_    0.732477 0.668189 0.676131 0.171109
H10   H     H_    0.574897 0.703952 0.653697 0.169958
H11   H     H_    0.659340 0.735366 0.635764 0.185103
H12   H     H_    0.696619 0.604512 0.625490 0.160350
H13   H     H_    0.365845 0.698056 0.771371 0.107158
H14   H     H_    0.607829 0.625039 0.608615 0.154521
H15   H     H_    0.612927 0.572026 0.644109 0.148558
H16   H     H_    0.288765 0.262913 0.350327 0.153265
H17   H     H_    0.242820 0.318871 0.322254 0.146483
H18   H     H_    0.410200 0.324774 0.336483 0.181815
H19   H     H_    0.360552 0.385545 0.310758 0.145563
H20   H     H_    0.283323 0.428851 0.356403 0.150731
H21   H     H_    0.380582 0.446536 0.361190 0.149753
H22   H     H_    0.337898 0.370540 0.381647 0.154914
H23   H     H_    0.402145 0.635660 0.722461 0.115616
H24   H     H_    0.642560 0.292483 0.219095 0.102303
H25   H     H_    0.367596 0.683062 0.688243 0.189176
H26   H     H_    0.377743 0.515014 0.698689 0.156596
H27   H     H_    0.332851 0.557689 0.665946 0.182997
H28   H     H_    0.449544 0.617240 0.649536 0.155644
H29   H     H_    0.462860 0.518936 0.653903 0.147661
H30   H     H_    0.496611 0.581316 0.683320 0.145015
H31   H     H_    0.623279 0.341743 0.306875 0.171055
H32   H     H_    0.590034 0.348605 0.267269 0.123240
H33   H     H_    0.632042 0.478473 0.309970 0.170012
H34   H     H_    0.602076 0.486319 0.270241 0.167535
H35   H     H_    0.303791 0.371770 0.740212 0.095637
H36   H     H_    0.481617 0.426833 0.284158 0.138331
H37   H     H_    0.498335 0.508821 0.306955 0.157314
H38   H     H_    0.511835 0.418968 0.324219 0.147718
H39   H     H_    0.333973 0.353390 0.686545 0.116311
H40   H     H_    0.245975 0.315488 0.673884 0.168460
H41   H     H_    0.398315 0.280294 0.645372 0.174862
H42   H     H_    0.310748 0.244343 0.632505 0.181858
H43   H     H_    0.267870 0.373253 0.620561 0.156385
H44   H     H_    0.351319 0.350257 0.599696 0.155790
H45   H     H_    0.355924 0.409203 0.633479 0.144802
H46   H     H_    0.698083 0.628255 0.266244 0.098705
H47   H     H_    0.723967 0.737348 0.351251 0.150287
H48   H     H_    0.758204 0.678042 0.321433 0.143186
H49   H     H_    0.596292 0.691761 0.344233 0.184391
H50   H     H_    0.625001 0.634252 0.312316 0.155479
H51   H     H_    0.708686 0.563464 0.347914 0.149149
H52   H     H_    0.614019 0.561437 0.361034 0.149193
H53   H     H_    0.679509 0.621207 0.380107 0.155854
H54   H     H_    0.615151 0.390597 0.769223 0.117156
H55   H     H_    0.586866 0.347185 0.732848 0.161497
H56   H     H_    0.629838 0.510797 0.741198 0.162908
H57   H     H_    0.654997 0.277085 0.789183 0.103960
H58   H     H_    0.596106 0.468537 0.706059 0.172429
H59   H     H_    0.476299 0.440938 0.731803 0.149539
H60   H     H_    0.497903 0.538073 0.735661 0.142675
H61   H     H_    0.510695 0.477537 0.768225 0.145004
H62   H     H_    0.332201 0.515255 0.276381 0.128377
H63   H     H_    0.257665 0.544650 0.253775 0.161805
H64   H     H_    0.285203 0.559835 0.324724 0.162945
H65   H     H_    0.213886 0.613643 0.306839 0.174427
H66   H     H_    0.223657 0.443741 0.303243 0.122992
H67   H     H_    0.149733 0.501455 0.288916 0.166194
H68   H     H_    0.354057 0.718612 0.214101 0.114500
H69   H     H_    0.166862 0.495310 0.330122 0.138720
H70   H     H_    0.153878 0.158049 0.334855 0.142734
H71   H     H_    0.214858 0.126245 0.305119 0.164591
H72   H     H_    0.043929 0.119348 0.303985 0.169944
H73   H     H_    0.103647 0.088055 0.273124 0.151708
H74   H     H_    0.162242 0.996979 0.308670 0.157598
H75   H     H_    0.064045 0.983226 0.305954 0.137637
H76   H     H_    0.102147 0.027048 0.340018 0.148335
H77   H     H_    0.945978 0.762932 0.692014 0.174743
H78   H     H_    0.920691 0.803708 0.728303 0.124280
H79   H     H_    0.498170 0.119464 0.127029 0.135551
H80   H     H_    0.881843 0.874568 0.664944 0.191543
H81   H     H_    0.878521 0.916938 0.702854 0.151332
H82   H     H_    0.016627 0.904386 0.706712 0.141983
H83   H     H_    0.989552 0.956493 0.672644 0.149326
H84   H     H_    0.018223 0.861825 0.668622 0.150056
H85   H     H_    0.711409 0.279999 0.349636 0.142135
H86   H     H_    0.784936 0.297783 0.323091 0.149462
H87   H     H_    0.754645 0.153585 0.359925 0.174230
H88   H     H_    0.825323 0.161485 0.330697 0.162174
H89   H     H_    0.885229 0.263529 0.360723 0.154344
H90   H     H_    0.498638 0.880407 0.872907 0.135012
H91   H     H_    0.876613 0.180346 0.383622 0.148748
H92   H     H_    0.813931 0.256377 0.390212 0.152713
H93   H     H_    0.298534 0.893327 0.671662 0.173761
H94   H     H_    0.229964 0.892939 0.701662 0.145568
H95   H     H_    0.214437 0.825465 0.636017 0.182562
H96   H     H_    0.145422 0.821034 0.666193 0.164310
H97   H     H_    0.140412 0.960293 0.667471 0.148182
H98   H     H_    0.119232 0.923933 0.629445 0.151590
H99   H     H_    0.208871 0.963632 0.636740 0.156357
H100  H     H_    0.851669 0.848815 0.331334 0.146691
H101  H     H_    0.881382 0.513541 0.127342 0.132253
H102  H     H_    0.785145 0.876848 0.303184 0.174690
H103  H     H_    0.953985 0.897852 0.297987 0.164997
H104  H     H_    0.887509 0.925976 0.269153 0.152748
H105  H     H_    0.827293 0.010327 0.307457 0.167294
H106  H     H_    0.923824 0.031516 0.302489 0.133443
H107  H     H_    0.893536 0.982493 0.336757 0.147683
H108  H     H_    0.040027 0.230383 0.701578 0.175741
H109  H     H_    0.071939 0.209942 0.739944 0.140937
H110  H     H_    0.071987 0.101908 0.684260 0.176786
H111  H     H_    0.103608 0.080778 0.722981 0.156845
H112  H     H_    0.808411 0.873700 0.754239 0.083140
H113  H     H_    0.118776 0.499687 0.872922 0.136735
H114  H     H_    0.976402 0.112084 0.743829 0.192103
H115  H     H_    0.975558 0.036845 0.716528 0.145358
H116  H     H_    0.945685 0.127017 0.704244 0.151410
H117  H     H_    0.299798 0.763191 0.353870 0.156560
H118  H     H_    0.218267 0.753161 0.331620 0.114015
H119  H     H_    0.320635 0.891253 0.334001 0.198868
H120  H     H_    0.237083 0.885467 0.311547 0.171702
H121  H     H_    0.163294 0.868257 0.359990 0.150377
H122  H     H_    0.217573 0.951840 0.361776 0.144683
H123  H     H_    0.246962 0.871180 0.383011 0.152660
H124  H     H_    0.502717 0.880590 0.127132 0.137816
H125  H     H_    0.661057 0.204080 0.652273 0.152487
H126  H     H_    0.635889 0.157194 0.686337 0.166531
H127  H     H_    0.796086 0.176476 0.660860 0.166012
H128  H     H_    0.770805 0.118963 0.693637 0.169631
H129  H     H_    0.697332 0.038011 0.660777 0.185699
H130  H     H_    0.789750 0.045502 0.645667 0.143057
H131  H     H_    0.715691 0.095040 0.626874 0.146868
H132  H     H_    0.672917 0.672559 0.840597 0.140465
H133  H     H_    0.721105 0.633193 0.808458 0.159805
H134  H     H_    0.552175 0.637599 0.819507 0.170319
H135  H     H_    0.502622 0.119294 0.872881 0.137416
H136  H     H_    0.593499 0.606106 0.783816 0.165924
H137  H     H_    0.661421 0.507424 0.812190 0.157568
H138  H     H_    0.563708 0.501311 0.819785 0.139990
H139  H     H_    0.623789 0.540074 0.848823 0.146510
H140  H     H_    0.458146 0.266413 0.204553 0.182575
H141  H     H_    0.423042 0.313772 0.238082 0.116488
H142  H     H_    0.418273 0.378528 0.171614 0.187786
H143  H     H_    0.399815 0.425864 0.207675 0.153941
H144  H     H_    0.532079 0.405452 0.223596 0.145007
H145  H     H_    0.525284 0.455109 0.187302 0.148912
H146  H     H_    0.117713 0.482345 0.126803 0.127660
H147  H     H_    0.549190 0.358527 0.187094 0.145838
H148  H     H_    0.242151 0.753564 0.851256 0.149200
H149  H     H_    0.306639 0.779434 0.821862 0.156591
H150  H     H_    0.288418 0.625805 0.852884 0.173292
H151  H     H_    0.349001 0.642792 0.820494 0.163456
H152  H     H_    0.418186 0.736719 0.851481 0.157661
H153  H     H_    0.417080 0.647706 0.870421 0.147091
H154  H     H_    0.357207 0.720498 0.884267 0.152400
H155  H     H_    0.816437 0.367834 0.165512 0.164035
H156  H     H_    0.745409 0.377909 0.193998 0.153381
H157  H     H_    0.880268 0.497998 0.872877 0.128360
H158  H     H_    0.738215 0.283936 0.133964 0.183596
H159  H     H_    0.666097 0.288367 0.162790 0.165708
H160  H     H_    0.655334 0.425443 0.154277 0.150498
H161  H     H_    0.640265 0.373802 0.118979 0.153660
H162  H     H_    0.727196 0.420281 0.124987 0.152596
H163  H     H_    0.337433 0.333754 0.837483 0.147731
H164  H     H_    0.277639 0.367350 0.807767 0.170454
H165  H     H_    0.447781 0.381325 0.809798 0.168087
H166  H     H_    0.391218 0.410955 0.777763 0.164224
H167  H     H_    0.323115 0.498009 0.812717 0.169417
H168  H     H_    0.999495 0.619479 0.627029 0.136234
H169  H     H_    0.420939 0.516174 0.812597 0.138964
H170  H     H_    0.379658 0.468572 0.845161 0.146326
H171  H     H_    0.531039 0.721409 0.210079 0.173226
H172  H     H_    0.571641 0.708498 0.247483 0.139145
H173  H     H_    0.556808 0.592636 0.195069 0.170669
H174  H     H_    0.606372 0.577085 0.230664 0.166256
H175  H     H_    0.489526 0.605616 0.261080 0.183043
H176  H     H_    0.479607 0.527575 0.235609 0.146000
H177  H     H_    0.440903 0.615294 0.224513 0.172440
H178  H     H_    0.809137 0.259224 0.853311 0.156988
H179  H     H_    0.997001 0.380440 0.372905 0.134000
H180  H     H_    0.725398 0.250750 0.832462 0.113732
H181  H     H_    0.830864 0.386602 0.832344 0.202047
H182  H     H_    0.744070 0.382555 0.812032 0.174313
H183  H     H_    0.677108 0.366979 0.862319 0.149523
H184  H     H_    0.732585 0.449870 0.862193 0.143990
H185  H     H_    0.764054 0.369490 0.883096 0.152579
H186  H     H_    0.174607 0.693320 0.151089 0.151313
H187  H     H_    0.141801 0.651842 0.185190 0.165552
H188  H     H_    0.306424 0.662753 0.164101 0.164953
H189  H     H_    0.274711 0.611242 0.197595 0.168818
H190  H     H_    0.382464 0.020547 0.627353 0.132835
H191  H     H_    0.203453 0.527275 0.164876 0.190572
H192  H     H_    0.298329 0.529784 0.152418 0.144725
H193  H     H_    0.229299 0.578506 0.130191 0.141790
H194  H     H_    0.618789 0.998488 0.372921 0.136079
H195  H     H_    0.001085 0.380569 0.627132 0.137329
H196  H     H_    0.857678 0.209142 0.281036 0.106654
H197  H     H_    0.003494 0.619265 0.372880 0.136119
H198  H     H_    0.616445 0.974958 0.626834 0.129273
H199  H     H_    0.380266 0.999668 0.372896 0.128883
H200  H     H_    0.498788 0.119487 0.070415 0.135598
H201  H     H_    0.499312 0.880264 0.929519 0.134457
H202  H     H_    0.880797 0.512185 0.070728 0.133837
H203  H     H_    0.118443 0.498287 0.929506 0.134657
H204  H     H_    0.503316 0.880455 0.070533 0.136471
H205  H     H_    0.503239 0.119309 0.929475 0.135117
H206  H     H_    0.117544 0.481952 0.070254 0.134789
H207  H     H_    0.134872 0.800605 0.726868 0.101934
H208  H     H_    0.879797 0.496677 0.929497 0.133045
H209  H     H_    0.999848 0.619497 0.570415 0.136373
H210  H     H_    0.997340 0.380288 0.429517 0.134465
H211  H     H_    0.381852 0.019406 0.570722 0.134792
H212  H     H_    0.618464 0.997333 0.429511 0.134255
H213  H     H_    0.001401 0.380430 0.570533 0.136800
H214  H     H_    0.003796 0.619277 0.429475 0.134848
H215  H     H_    0.616390 0.975146 0.570274 0.135584
H216  H     H_    0.379827 0.998685 0.429521 0.133354
H217  H     H_    0.175518 0.149217 0.183503 0.116757
H218  H     H_    0.801991 0.869908 0.233659 0.096869
H219  H     H_    0.259065 0.196298 0.171040 0.180875
H220  H     H_    0.102910 0.221659 0.144834 0.171210
H221  H     H_    0.185869 0.268246 0.132409 0.183364
H222  H     H_    0.240722 0.146683 0.116337 0.157189
H223  H     H_    0.154471 0.164644 0.096843 0.156137
H224  H     H_    0.157259 0.099991 0.128802 0.152775
H225  H     H_    0.810432 0.773770 0.848042 0.154237
H226  H     H_    0.755726 0.825715 0.821448 0.150852
H227  H     H_    0.924882 0.841149 0.828380 0.181569
H228  H     H_    0.865233 0.898155 0.804932 0.145618
H229  H     H_    0.195203 0.124608 0.760201 0.095888
H230  H     H_    0.797904 0.937749 0.854018 0.151053
H231  H     H_    0.894455 0.962150 0.853828 0.148272
H232  H     H_    0.863068 0.884181 0.876482 0.154815
H233  H     H_    0.881136 0.045766 0.220763 0.141776
H234  H     H_    0.886887 0.106086 0.253028 0.112850
H235  H     H_    0.910826 0.147162 0.183412 0.195071
H236  H     H_    0.918775 0.211661 0.215186 0.191931
H237  H     H_    0.021113 0.140730 0.237826 0.158107
H238  H     H_    0.041136 0.165426 0.198140 0.174358
H239  H     H_    0.014131 0.071820 0.207335 0.132477
H240  H     H_    0.151782 0.779006 0.287294 0.108299
H241  H     H_    0.131693 0.885698 0.817151 0.148647
H242  H     H_    0.106782 0.818608 0.788706 0.141716
H243  H     H_    0.123674 0.987693 0.779129 0.167911
H244  H     H_    0.105801 0.923632 0.748145 0.152565
H245  H     H_    0.988647 0.884308 0.773875 0.145857
H246  H     H_    0.989830 0.982840 0.767783 0.153091
H247  H     H_    0.007051 0.946536 0.806024 0.146815
H248  H     H_    0.815584 0.840394 0.178748 0.116570
H249  H     H_    0.727872 0.794862 0.171369 0.176683
H250  H     H_    0.875977 0.760536 0.139005 0.170754
H251  H     H_    0.850098 0.222035 0.711883 0.116251
H252  H     H_    0.789425 0.714523 0.131824 0.183449
H253  H     H_    0.733416 0.834763 0.114862 0.156459
H254  H     H_    0.813994 0.811565 0.092117 0.155801
H255  H     H_    0.820368 0.881016 0.122097 0.151875
H256  H     H_    0.197274 0.210589 0.849209 0.152311
H257  H     H_    0.238067 0.159230 0.818331 0.140485
H258  H     H_    0.071748 0.174605 0.834347 0.185440
H259  H     H_    0.104630 0.129285 0.799828 0.158699
H260  H     H_    0.175764 0.039145 0.832281 0.157687
H261  H     H_    0.078789 0.038647 0.841863 0.147596
H262  H     H_    0.691904 0.626221 0.745864 0.088874
H263  H     H_    0.143176 0.084828 0.867221 0.153514
H264  H     H_    0.106247 0.949951 0.234510 0.141826
H265  H     H_    0.105231 0.878225 0.262434 0.109948
H266  H     H_    0.084830 0.860588 0.190991 0.196297
H267  H     H_    0.079884 0.785718 0.218695 0.189034
H268  H     H_    0.972313 0.839774 0.244152 0.184249
H269  H     H_    0.955481 0.831145 0.203106 0.168144
H270  H     H_    0.976559 0.920787 0.219226 0.124043
H271  H     H_    0.833125 0.014026 0.774191 0.126240
H272  H     H_    0.756899 0.042370 0.752550 0.164969
N1    N     N_R   0.501493 0.935331 0.015495 -0.233808
N2    N     N_R   0.001375 0.564365 0.484476 -0.234454
N3    N     N_R   0.563147 0.991242 0.515401 -0.234281
N4    N     N_R   0.434841 0.003591 0.484602 -0.234450
N5    N     N_R   0.001376 0.564414 0.515424 -0.233690
N6    N     N_R   0.000062 0.435276 0.484545 -0.234678
N7    N     N_R   0.434856 0.003551 0.515558 -0.234073
N8    N     N_R   0.563142 0.991393 0.484455 -0.234125
N9    N     N_R   0.501333 0.064377 0.984477 -0.234410
N10   N     N_R   0.063315 0.493023 0.015388 -0.234341
N11   N     N_R   0.934651 0.500769 0.984595 -0.234765
N12   N     N_R   0.501263 0.064427 0.015425 -0.234050
N13   N     N_R   0.501541 0.935281 0.984545 -0.234452
N14   N     N_R   0.934674 0.500773 0.015551 -0.234584
N15   N     N_R   0.063296 0.493100 0.984443 -0.234023
N16   N     N_R   0.000083 0.435326 0.515495 -0.233821
O1    O     O_3   0.500000 0.000000 0.250000 -0.446155
O2    O     O_R   0.438450 0.000020 0.680680 -0.547094
O3    O     O_R   0.000020 0.561550 0.319320 -0.548372
O4    O     O_R   0.999980 0.438450 0.680680 -0.547566
O5    O     O_R   0.938450 0.500020 0.819320 -0.557345
O6    O     O_R   0.061550 0.499980 0.180680 -0.557783
O7    O     O_R   0.499980 0.938450 0.819320 -0.547319
O8    O     O_R   0.500020 0.061550 0.180680 -0.547441
O9    O     O_R   0.061550 0.499980 0.819320 -0.537547
O10   O     O_R   0.938450 0.500020 0.180680 -0.546273
O11   O     O_R   0.500020 0.061550 0.819320 -0.547686
O12   O     O_3   0.500000 0.000000 0.750000 -0.446270
O13   O     O_R   0.499980 0.938450 0.180680 -0.545648
O14   O     O_R   0.648010 0.086580 0.268180 -0.507795
O15   O     O_R   0.351990 0.913420 0.731820 -0.545331
O16   O     O_R   0.913420 0.648010 0.268180 -0.510855
O17   O     O_R   0.086580 0.351990 0.731820 -0.551679
O18   O     O_R   0.351990 0.913420 0.268180 -0.535551
O19   O     O_R   0.648010 0.086580 0.731820 -0.585355
O20   O     O_R   0.086580 0.351990 0.268180 -0.508557
O21   O     O_R   0.913420 0.648010 0.731820 -0.545345
O22   O     O_R   0.148010 0.586580 0.768180 -0.504855
O23   O     O_3   0.000000 0.500000 0.250000 -0.446228
O24   O     O_R   0.851990 0.413420 0.231820 -0.535868
O25   O     O_R   0.413420 0.148010 0.768180 -0.504563
O26   O     O_R   0.586580 0.851990 0.231820 -0.548615
O27   O     O_R   0.851990 0.413420 0.768180 -0.536458
O28   O     O_R   0.148010 0.586580 0.231820 -0.585093
O29   O     O_R   0.586580 0.851990 0.768180 -0.507296
O30   O     O_R   0.413420 0.148010 0.231820 -0.550191
O31   O     O_R   0.413460 0.851950 0.231830 -0.558308
O32   O     O_R   0.586540 0.148050 0.768170 -0.542513
O33   O     O_R   0.148050 0.413460 0.231830 -0.538004
O34   O     O_3   0.000000 0.500000 0.750000 -0.446190
O35   O     O_R   0.851950 0.586540 0.768170 -0.536051
O36   O     O_R   0.586540 0.148050 0.231830 -0.567566
O37   O     O_R   0.413460 0.851950 0.768170 -0.547792
O38   O     O_R   0.851950 0.586540 0.231830 -0.518718
O39   O     O_R   0.148050 0.413460 0.768170 -0.532857
O40   O     O_R   0.913460 0.351950 0.731830 -0.558584
O41   O     O_R   0.086540 0.648050 0.268170 -0.543330
O42   O     O_R   0.648050 0.913460 0.731830 -0.543092
O43   O     O_R   0.351950 0.086540 0.268170 -0.531384
O44   O     O_R   0.086540 0.648050 0.731830 -0.561341
O45   O     O_R   0.438450 0.000020 0.319320 -0.554561
O46   O     O_R   0.913460 0.351950 0.268170 -0.551550
O47   O     O_R   0.351950 0.086540 0.731830 -0.528004
O48   O     O_R   0.648050 0.913460 0.268170 -0.530180
O49   O     O_3   0.180522 0.261256 0.193899 -0.547898
O50   O     O_3   0.834108 0.749858 0.802684 -0.570947
O51   O     O_3   0.797897 0.121736 0.222400 -0.547026
O52   O     O_3   0.211911 0.870251 0.784187 -0.574467
O53   O     O_3   0.809679 0.730491 0.192344 -0.547847
O54   O     O_3   0.176987 0.255625 0.806378 -0.568528
O55   O     O_3   0.195196 0.881069 0.231296 -0.544049
O56   O     O_R   0.561550 0.999980 0.680680 -0.556599
O57   O     O_3   0.830697 0.124591 0.765744 -0.561537
O58   O     O_3   0.667565 0.749870 0.696933 -0.544205
O59   O     O_3   0.321093 0.239942 0.305818 -0.569507
O60   O     O_3   0.288816 0.628337 0.715117 -0.556299
O61   O     O_3   0.700079 0.379615 0.274808 -0.572702
O62   O     O_3   0.319715 0.241064 0.694276 -0.544019
O63   O     O_3   0.688293 0.767166 0.307893 -0.569946
O64   O     O_3   0.695794 0.383741 0.735065 -0.542883
O65   O     O_3   0.329491 0.626475 0.269403 -0.562156
O66   O     O_3   0.147760 0.220173 0.295123 -0.554902
O67   O     O_R   0.999980 0.438450 0.319320 -0.548623
O68   O     O_3   0.834466 0.768837 0.697882 -0.554274
O69   O     O_3   0.701982 0.221329 0.309103 -0.570318
O70   O     O_3   0.278689 0.789630 0.689007 -0.574636
O71   O     O_3   0.858322 0.788668 0.291046 -0.555162
O72   O     O_3   0.152026 0.215541 0.703474 -0.550291
O73   O     O_3   0.319062 0.759673 0.307196 -0.539048
O74   O     O_3   0.694012 0.255721 0.691763 -0.551873
O75   O     O_3   0.658269 0.730982 0.800234 -0.558094
O76   O     O_3   0.346505 0.282870 0.202633 -0.558679
O77   O     O_3   0.219933 0.706087 0.809063 -0.558334
O78   O     O_R   0.000020 0.561550 0.680680 -0.546484
O79   O     O_3   0.797664 0.272628 0.190103 -0.565022
O80   O     O_3   0.348792 0.277178 0.796466 -0.547723
O81   O     O_3   0.643489 0.708729 0.208071 -0.552130
O82   O     O_3   0.823909 0.254211 0.806374 -0.541507
O83   O     O_3   0.202187 0.748968 0.190331 -0.564513
O84   O     O_R   0.561550 0.999980 0.319320 -0.537530
Zn1   Zn    Zn3+2 0.499980 0.087890 0.224030 0.931609
Zn2   Zn    Zn3+2 0.000020 0.412110 0.275970 0.939264
Zn3   Zn    Zn3+2 0.412110 0.999980 0.724030 0.949327
Zn4   Zn    Zn3+2 0.587890 0.000020 0.275970 0.970567
Zn5   Zn    Zn3+2 0.000020 0.412110 0.724030 0.937256
Zn6   Zn    Zn3+2 0.999980 0.587890 0.275970 0.932525
Zn7   Zn    Zn3+2 0.587890 0.000020 0.724030 0.903026
Zn8   Zn    Zn3+2 0.412110 0.999980 0.275970 0.950233
Zn9   Zn    Zn3+2 0.500020 0.912110 0.775970 0.943834
Zn10  Zn    Zn3+2 0.912110 0.499980 0.224030 0.955958
Zn11  Zn    Zn3+2 0.087890 0.500020 0.775970 0.971647
Zn12  Zn    Zn3+2 0.500020 0.912110 0.224030 0.939418
Zn13  Zn    Zn3+2 0.499980 0.087890 0.775970 0.940211
Zn14  Zn    Zn3+2 0.087890 0.500020 0.224030 0.901137
Zn15  Zn    Zn3+2 0.912110 0.499980 0.775970 0.946965
Zn16  Zn    Zn3+2 0.999980 0.587890 0.724030 0.937208

loop_
_geom_bond_atom_site_label_1
_geom_bond_atom_site_label_2
_ccdc_geom_bond_type
O23   Zn6   S    
C205  O60   S    
C102  O65   S    
C126  C127  S    
O67   Zn2   S    
C8    C26   A    
C32   C45   A    
C41   C50   A    
C195  C238  S    
C137  H142  S    
C215  C233  S    
O5    Zn15  S    
C132  O75   S    
C114  C115  S    
C174  O29   A    
C32   H206  S    
C15   C32   A    
C98   H54   S    
C3    C224  S    
C34   H209  S    
C170  O25   A    
C96   H50   S    
C54   H224  S    
C3    C189  S    
C128  H122  S    
C219  O8    A    
C193  C211  S    
C17   H168  S    
C106  C107  S    
C95   H48   S    
C169  O24   A    
C1    C68   S    
C108  C109  S    
O34   Zn15  S    
C73   C74   S    
O16   Zn6   S    
C19   C37   A    
C165  C220  S    
C59   O51   S    
C105  O66   S    
C103  H65   S    
C59   H234  S    
C141  H153  S    
C193  H68   S    
C177  C222  S    
C87   H28   S    
C160  O15   A    
C12   C30   A    
C115  H92   S    
C127  H119  S    
C162  C217  S    
O28   Zn14  S    
C59   C60   S    
C159  C214  S    
C10   C13   A    
C165  O32   A    
C64   H246  S    
C155  H186  S    
C84   H22   S    
C193  C218  S    
C40   H214  S    
C85   H23   S    
C118  H97   S    
C143  H159  S    
C188  C215  S    
C142  H156  S    
C196  O51   S    
C82   O59   S    
O7    Zn9   S    
C69   H256  S    
C61   H237  S    
C188  C205  S    
C109  H80   S    
C183  C201  S    
C140  C141  S    
C176  O43   A    
N3    N8    A    
O24   Zn10  S    
C160  C215  S    
C187  C204  S    
C205  C223  S    
C19   C57   A    
C185  H262  S    
C73   H267  S    
C25   C42   A    
C91   H38   S    
C75   C76   S    
C188  C240  S    
C4    C190  S    
C191  C216  S    
C102  H62   S    
C158  H191  S    
C164  O3    A    
C181  H218  S    
C189  C206  S    
C41   H215  S    
C6    C227  S    
C62   H241  S    
O22   Zn11  S    
C114  H88   S    
C4    C225  S    
C111  H85   S    
C157  N10   A    
C192  C210  S    
C211  O65   S    
C33   H208  S    
C138  H144  S    
C236  O73   S    
C65   H249  S    
C146  N15   A    
C149  H172  S    
C5    O81   S    
C95   O63   S    
C33   C47   A    
C30   C43   A    
C2    C208  S    
C209  C226  S    
C86   H26   S    
C219  C230  S    
C190  C217  S    
C124  N9    A    
C194  O49   S    
O37   Zn9   S    
C204  C222  S    
C112  O56   A    
C72   C73   S    
C54   H222  S    
C53   H221  S    
C139  C140  S    
C161  O16   A    
C182  C225  S    
C171  O26   A    
C21   C35   A    
C202  O57   S    
C129  H126  S    
C113  N7    A    
C197  O10   A    
C23   C41   A    
C186  O5    A    
C159  O36   A    
C165  O19   A    
C35   C175  S    
C156  C158  S    
C130  C131  S    
C39   H213  S    
C206  O61   S    
C163  O31   A    
C7    C201  S    
C166  O33   A    
C37   C50   A    
C154  H184  S    
C119  H100  S    
C135  N12   A    
C152  O82   S    
C145  H163  S    
C199  O53   S    
O2    Zn3   S    
C139  H149  S    
C110  H84   S    
C69   C70   S    
C2    C14   A    
C132  H133  S    
C135  N1    A    
C53   H220  S    
C180  C198  S    
C164  O67   A    
C194  C212  S    
O3    Zn6   S    
C107  H75   S    
C88   C89   S    
C144  H162  S    
C75   H272  S    
C155  C156  S    
C20   H194  S    
C62   H242  S    
C121  H105  S    
C29   H203  S    
C154  H185  S    
C58   H232  S    
O32   Zn13  S    
C117  H95   S    
C131  H130  S    
C30   H204  S    
C177  H1    S    
C61   H239  S    
C110  H82   S    
C136  O76   S    
C147  C148  S    
C126  O73   S    
C149  C150  S    
C14   C31   A    
C155  O83   S    
C217  C235  S    
C207  C235  S    
C162  O39   A    
C85   C86   S    
C178  H112  S    
C13   C197  S    
C169  O46   A    
C29   C47   A    
C197  O6    A    
C158  H192  S    
C91   H36   S    
C171  O48   A    
C73   H266  S    
C173  O28   A    
C105  H70   S    
N11   N14   A    
C78   C80   S    
C40   C49   A    
C222  C239  S    
C204  C229  S    
O38   Zn10  S    
C83   H18   S    
O20   Zn2   S    
O8    Zn1   S    
C240  O77   S    
C202  C220  S    
O45   Zn8   S    
O26   Zn12  S    
C150  H174  S    
O27   Zn15  S    
C4    O80   S    
C181  C234  S    
O23   Zn10  S    
C235  O72   S    
C185  C238  S    
C206  C224  S    
C78   H8    S    
C148  H167  S    
C63   H244  S    
C229  O66   S    
C89   C91   S    
C149  O81   S    
C31   H205  S    
C213  C231  S    
C137  C138  S    
C166  C212  S    
C42   H216  S    
C66   C67   S    
C145  O80   S    
C80   H10   S    
C70   H258  S    
C55   H226  S    
C130  H128  S    
C187  H2    S    
C93   H42   S    
C126  H118  S    
C94   H45   S    
C108  H77   S    
C104  H67   S    
C219  O13   A    
C8    H79   S    
C179  H196  S    
C155  H187  S    
C76   H3    S    
C45   C157  S    
C5    C191  S    
C101  N8    A    
C38   C51   A    
C113  N3    A    
C85   O60   S    
N6    N16   A    
C80   H11   S    
C152  H178  S    
C25   H199  S    
C189  H24   S    
C97   H51   S    
C26   H200  S    
C100  H60   S    
C92   H40   S    
C10   H101  S    
C196  C214  S    
C88   H31   S    
C83   C84   S    
C171  C226  S    
O23   Zn14  S    
C81   H15   S    
C100  H59   S    
C121  H107  S    
C198  C240  S    
C134  H139  S    
C191  C209  S    
C103  H64   S    
C108  O68   S    
C74   H269  S    
C56   H228  S    
C211  C228  S    
O44   Zn16  S    
C239  O76   S    
C167  C213  S    
C168  C223  S    
C181  C199  S    
C37   H211  S    
C55   O50   S    
C52   C53   S    
C116  O70   S    
C129  C130  S    
C23   C57   A    
C136  C137  S    
C232  O69   S    
C168  O44   A    
C183  C236  S    
C34   C48   A    
O43   Zn8   S    
C131  H129  S    
C179  C224  S    
O18   Zn8   S    
C13   C15   A    
C75   O57   S    
C117  C118  S    
C105  H71   S    
C212  C229  S    
C106  H72   S    
C95   H47   S    
C201  O55   S    
C144  H160  S    
C56   C58   S    
O34   Zn16  S    
C69   O54   S    
C124  N13   A    
C47   C146  S    
O12   Zn13  S    
C63   C64   S    
C190  C207  S    
O6    Zn14  S    
C147  H166  S    
C152  C153  S    
C59   H233  S    
C60   H235  S    
O14   Zn4   S    
C150  C151  S    
C3    O79   S    
C133  H136  S    
C2    C9    A    
C132  H132  S    
C106  H73   S    
C66   H252  S    
C94   H43   S    
C115  H91   S    
C89   H33   S    
C55   C56   S    
C186  O9    A    
C216  C234  S    
C18   H179  S    
C118  H98   S    
C214  C232  S    
C133  C134  S    
C5    C199  S    
C140  H150  S    
C174  O42   A    
C174  C221  S    
C152  H180  S    
C97   H53   S    
C58   H230  S    
O1    Zn4   S    
C201  C218  S    
C52   H217  S    
C87   H30   S    
O29   Zn9   S    
C123  C125  S    
C169  C224  S    
C148  H169  S    
C98   C99   S    
O84   Zn4   S    
C24   C186  S    
C77   H6    S    
C100  H61   S    
C91   H37   S    
C209  C234  S    
C134  H137  S    
C102  H63   S    
C79   N2    A    
C123  H111  S    
C90   N16   A    
C116  H93   S    
C38   H212  S    
C178  C221  S    
C83   H19   S    
C70   C71   S    
C133  H134  S    
C67   H254  S    
C140  H151  S    
C52   H219  S    
C151  H176  S    
O33   Zn14  S    
C149  H171  S    
C19   H190  S    
C200  C217  S    
C82   H16   S    
C137  H143  S    
C25   C68   A    
C122  H108  S    
C86   H27   S    
C198  C215  S    
C18   C46   A    
C93   H41   S    
C145  C147  S    
C84   H20   S    
C179  C196  S    
C36   H210  S    
O36   Zn1   S    
C177  C194  S    
C206  C232  S    
C210  C237  S    
O17   Zn5   S    
C96   H49   S    
O47   Zn3   S    
C54   H223  S    
O1    Zn8   S    
C161  O38   A    
O78   Zn16  S    
C86   C87   S    
C183  H240  S    
C129  H125  S    
C53   C54   S    
C200  O54   S    
C44   C124  S    
O35   Zn15  S    
C141  H152  S    
C49   C79   S    
C60   C61   S    
C122  H109  S    
C167  O21   A    
C62   C63   S    
C153  H182  S    
C71   H263  S    
C141  H154  S    
C138  H145  S    
C182  C200  S    
C234  O71   S    
C98   O64   S    
C176  C222  S    
C182  C235  S    
C66   H250  S    
C115  H89   S    
C127  H120  S    
C22   C46   A    
C161  C216  S    
C112  O2    A    
C180  C233  S    
C99   H56   S    
C22   H197  S    
C75   H271  S    
C64   H245  S    
C72   H265  S    
C220  C237  S    
N4    N7    A    
C81   H12   S    
C127  C128  S    
C101  N4    A    
C184  C237  S    
C128  H121  S    
C142  H155  S    
C9    C27   A    
C119  H102  S    
O4    Zn5   S    
C27   H201  S    
C10   C28   A    
C90   N5    A    
C61   H238  S    
C136  H140  S    
O39   Zn11  S    
C116  H94   S    
C131  H131  S    
O25   Zn13  S    
C151  H177  S    
C183  C228  S    
C187  C239  S    
C119  C120  S    
C12   C230  A    
C129  O74   S    
C181  C226  S    
C51   C101  S    
C105  C106  S    
C3    C196  S    
O19   Zn7   S    
C221  C238  S    
N10   N15   A    
C50   C113  S    
C185  C203  S    
C166  O20   A    
C143  C144  S    
C172  O27   A    
C218  C236  S    
C178  C231  S    
C109  C110  S    
C139  H148  S    
C120  H103  S    
C203  C231  S    
O12   Zn3   S    
C173  O41   A    
C92   C93   S    
C172  C227  S    
C116  C117  S    
C111  C114  S    
C114  H87   S    
C111  H86   S    
C104  H66   S    
O40   Zn5   S    
C195  C213  S    
C159  O14   A    
C125  H114  S    
C187  C212  S    
C23   H198  S    
C82   C83   S    
C7    C228  S    
C170  C225  S    
C6    C192  S    
C103  C104  S    
C12   H124  S    
C78   H9    S    
C142  C143  S    
C63   H243  S    
C17   C35   A    
C184  C227  S    
C77   H7    S    
C179  C232  S    
C18   C36   A    
C156  H188  S    
C36   C49   A    
C111  O69   S    
C39   C48   A    
C184  H251  S    
C93   C94   S    
C28   H202  S    
C70   H259  S    
C55   H225  S    
C210  C227  S    
C11   C24   A    
O13   Zn12  S    
C95   C96   S    
C139  O77   S    
C128  H123  S    
C210  O64   S    
O21   Zn16  S    
C5    C226  S    
C238  O75   S    
C108  H78   S    
C74   H270  S    
C7    O83   S    
C180  C223  S    
C6    O82   S    
C188  H13   S    
C76   H4    S    
C6    C202  S    
C223  C240  S    
C177  C229  S    
C154  H183  S    
C57   C112  S    
C120  H104  S    
C9    H90   S    
C71   H261  S    
O12   Zn7   S    
O31   Zn12  S    
C136  H141  S    
C145  H164  S    
C211  C236  S    
C203  C221  S    
C208  O11   A    
C110  H83   S    
O1    Zn1   S    
C233  O70   S    
C65   H248  S    
C8    C230  A    
C107  H76   S    
C88   H32   S    
C185  C213  S    
C144  H161  S    
C180  H207  S    
C64   H247  S    
C123  H110  S    
C119  O71   S    
C81   H14   S    
C7    C193  S    
C143  H158  S    
C121  H106  S    
C172  O40   A    
O42   Zn7   S    
C168  O22   A    
C42   C51   A    
C11   H113  S    
C117  H96   S    
C72   H264  S    
O41   Zn6   S    
C16   C24   A    
C125  H115  S    
C82   H17   S    
C98   H55   S    
C69   H257  S    
C102  C103  S    
C15   H146  S    
C118  H99   S    
C157  N14   A    
C27   C44   A    
C1    O84   A    
C67   H255  S    
C207  C225  S    
C26   C43   A    
C176  O30   A    
C146  N11   A    
C156  H189  S    
O30   Zn1   S    
C153  H181  S    
C28   C45   A    
C163  O18   A    
C184  C202  S    
C31   C44   A    
C199  C216  S    
C85   H25   S    
C160  O37   A    
C21   H195  S    
C76   C77   S    
C14   H135  S    
C79   N6    A    
C134  H138  S    
C132  C133  S    
O15   Zn3   S    
C208  O7    A    
C109  H81   S    
C20   C68   A    
C150  H173  S    
C16   C33   A    
O34   Zn5   S    
C125  H116  S    
C20   C38   A    
C142  O79   S    
C74   H268  S    
C99   C100  S    
C21   C39   A    
O56   Zn7   S    
C4    C200  S    
C162  O17   A    
C22   C40   A    
C96   C97   S    
C104  H69   S    
C204  O59   S    
C72   O55   S    
C43   C135  S    
O11   Zn13  S    
C147  H165  S    
C175  O78   A    
C122  O72   S    
C71   H260  S    
C190  H35   S    
C60   H236  S    
C194  C239  S    
C130  H127  S    
N2    N5    A    
N1    N13   A    
C192  C220  S    
C207  O62   S    
O1    Zn12  S    
C126  H117  S    
O23   Zn2   S    
C94   H44   S    
C192  H57   S    
O48   Zn4   S    
O10   Zn10  S    
C175  O4    A    
C237  O74   S    
C48   C90   S    
C138  H147  S    
C170  O47   A    
C158  H193  S    
C80   C81   S    
C173  C228  S    
C1    O45   A    
C231  O68   S    
C182  H229  S    
C167  O35   A    
O12   Zn9   S    
C195  O50   S    
C178  C195  S    
C62   O52   S    
C88   O61   S    
C209  O63   S    
C97   H52   S    
C58   H231  S    
C92   H39   S    
C205  C233  S    
C122  C123  S    
C99   H58   S    
C87   H29   S    
C107  H74   S    
C89   H34   S    
C148  H170  S    
C65   O53   S    
O34   Zn11  S    
C203  O58   S    
C16   H157  S    
C77   H5    S    
C84   H21   S    
N9    N12   A    
C189  C214  S    
O9    Zn11  S    
C163  C218  S    
C92   O62   S    
C11   C29   A    
C56   H227  S    
C198  O52   S    
C65   C66   S    
C17   C34   A    
C120  C121  S    
C46   C164  S    
C191  H46   S    
C153  C154  S    
C67   H253  S    
C52   O49   S    
C78   O58   S    
O46   Zn2   S    
C151  H175  S    
