data_mof_unit_63718.cif
_audit_creation_date              2012-12-10T19:56:34-0500
_audit_creation_method            fapswitch 2.2
_symmetry_space_group_name_H-M    P1
_symmetry_Int_Tables_number       1
_space_group_crystal_system       triclinic
_cell_length_a                    28.52599
_cell_length_b                    18.260073
_cell_length_c                    18.270754
_cell_angle_alpha                 89.826736
_cell_angle_beta                  130.60245
_cell_angle_gamma                 90.418156
_cell_volume                      7225.50303736

loop_
_atom_site_label
_atom_site_type_symbol
_atom_type_description
_atom_site_fract_x
_atom_site_fract_y
_atom_site_fract_z
_atom_type_partial_charge
C1    C     C_R   0.500731 0.000102 0.359503 0.957051
C2    C     C_R   0.499877 0.999877 0.641127 0.944880
C3    C     C_R   0.000060 0.500071 0.358809 0.945560
C4    C     C_R   0.999916 0.499857 0.641168 0.938502
C5    C     C_R   0.813570 0.996763 0.811645 -0.116901
C6    C     C_R   0.185963 0.997270 0.186753 -0.120822
C7    C     C_R   0.313152 0.496228 0.811931 -0.124944
C8    C     C_R   0.686433 0.495709 0.188384 -0.115575
C9    C     C_R   0.780224 0.050826 0.739584 0.073317
C10   C     C_R   0.219311 0.052458 0.256967 0.102511
C11   C     C_R   0.280467 0.543443 0.731502 0.109100
C12   C     C_R   0.720385 0.549901 0.260499 0.064539
C13   C     C_R   0.716784 0.051601 0.681798 -0.249606
C14   C     C_R   0.282831 0.052869 0.316916 -0.193382
C15   C     C_R   0.216716 0.543122 0.669388 -0.191470
C16   C     C_R   0.783886 0.549860 0.319374 -0.244975
C17   C     C_R   0.686341 0.997871 0.690767 -0.099067
C18   C     C_R   0.313124 0.997481 0.309978 -0.142185
C19   C     C_R   0.186100 0.500138 0.690167 -0.110186
C20   C     C_R   0.813737 0.496583 0.309654 -0.101947
C21   C     C_R   0.718779 0.941344 0.759398 0.109803
C22   C     C_R   0.279927 0.940210 0.241483 0.057981
C23   C     C_R   0.218292 0.457170 0.773982 0.110635
C24   C     C_R   0.780728 0.440908 0.239481 0.114999
C25   C     C_R   0.791053 0.121856 0.633474 0.078325
C26   C     C_R   0.178730 0.103235 0.333695 0.098986
C27   C     C_R   0.327005 0.576358 0.656582 0.106143
C28   C     C_R   0.712155 0.626719 0.364973 0.078539
C29   C     C_R   0.801954 0.189954 0.609920 0.138484
C30   C     C_R   0.148049 0.158721 0.341624 0.164898
C31   C     C_R   0.364578 0.623056 0.651605 0.149660
C32   C     C_R   0.705420 0.697486 0.387766 0.130991
C33   C     C_R   0.834881 0.245067 0.680909 0.109561
C34   C     C_R   0.128598 0.222192 0.284807 0.159196
C35   C     C_R   0.386772 0.689222 0.703835 0.148167
C36   C     C_R   0.673669 0.751306 0.315179 0.121142
C37   C     C_R   0.854654 0.232924 0.772622 -0.309328
C38   C     C_R   0.140012 0.230331 0.221651 -0.364714
C39   C     C_R   0.369429 0.709982 0.756571 -0.355082
C40   C     C_R   0.650792 0.735018 0.222507 -0.301899
C41   C     C_R   0.840380 0.167560 0.794460 0.412150
C42   C     C_R   0.170204 0.175286 0.212300 0.435776
C43   C     C_R   0.331169 0.664682 0.761197 0.438508
C44   C     C_R   0.662039 0.667188 0.201656 0.403635
C45   C     C_R   0.620263 0.999723 0.623577 0.911766
C46   C     C_R   0.379521 0.999408 0.377663 0.915791
C47   C     C_R   0.120202 0.500188 0.622767 0.908728
C48   C     C_R   0.879766 0.499286 0.376241 0.919889
C49   C     C_R   0.808341 0.111561 0.725026 -0.064568
C50   C     C_R   0.188729 0.111316 0.267877 -0.075962
C51   C     C_R   0.312326 0.596198 0.714271 -0.070063
C52   C     C_R   0.693214 0.612568 0.272969 -0.061714
C53   C     C_1   0.501395 0.000389 0.283705 -0.132566
C54   C     C_1   0.499321 0.999660 0.717031 -0.137652
C55   C     C_1   0.000557 0.500214 0.282842 -0.140652
C56   C     C_1   0.999406 0.499553 0.717119 -0.170245
C57   C     C_1   0.501311 0.000532 0.218832 -0.099091
C58   C     C_1   0.499089 0.999713 0.781577 -0.113346
C59   C     C_1   0.000803 0.500205 0.218310 -0.116533
C60   C     C_1   0.999180 0.499494 0.781670 -0.138150
C61   C     C_R   0.000573 0.141275 0.000476 0.999462
C62   C     C_R   0.499235 0.641260 0.999134 1.000244
C63   C     C_R   0.879669 0.998958 0.879043 0.972815
C64   C     C_R   0.120150 0.999154 0.120523 0.918145
C65   C     C_R   0.379556 0.497833 0.879119 0.913541
C66   C     C_R   0.620315 0.498147 0.120938 0.972897
C67   C     C_R   0.000112 0.858790 0.000206 0.947803
C68   C     C_R   0.499992 0.358790 0.000090 0.939718
C69   C     C_R   0.500180 0.140987 0.000250 0.907133
C70   C     C_R   0.000183 0.640986 0.000223 0.911314
C71   C     C_R   0.500395 0.000320 0.141408 0.935668
C72   C     C_R   0.499668 0.999909 0.858655 0.932205
C73   C     C_R   0.000309 0.500070 0.141321 0.935117
C74   C     C_R   0.999691 0.499679 0.858675 0.915002
C75   C     C_R   0.499784 0.858993 0.999691 0.944164
C76   C     C_R   0.999852 0.358997 0.999714 0.919053
C77   C     C_1   0.000119 0.217736 0.999804 -0.135751
C78   C     C_1   0.499111 0.717728 0.998867 -0.125234
C79   C     C_R   0.639337 0.765869 0.743319 0.370686
C80   C     C_R   0.337991 0.750189 0.253817 0.423785
C81   C     C_R   0.137107 0.345797 0.841423 0.372556
C82   C     C_R   0.858308 0.274244 0.233521 0.373716
C83   C     C_1   0.499273 0.782519 0.999051 -0.182211
C84   C     C_1   0.999746 0.282525 0.999454 -0.212353
C85   C     C_1   0.000401 0.782298 0.000651 -0.121966
C86   C     C_1   0.500323 0.282301 0.000592 -0.125927
C87   C     C_1   0.500470 0.217496 0.000693 -0.132749
C88   C     C_1   0.000495 0.717494 0.000687 -0.128761
C89   C     C_R   0.665752 0.819544 0.723359 0.485026
C90   C     C_R   0.312995 0.809040 0.267579 0.415470
C91   C     C_R   0.159872 0.366338 0.794175 0.464432
C92   C     C_R   0.835208 0.323005 0.263683 0.480020
C93   C     C_R   0.686523 0.886850 0.774126 -0.121695
C94   C     C_R   0.311452 0.879791 0.234100 -0.118016
C95   C     C_R   0.189147 0.435417 0.815179 -0.157676
C96   C     C_R   0.811656 0.391796 0.217491 -0.131520
C97   C     C_R   0.676697 0.902717 0.838801 0.089487
C98   C     C_R   0.335923 0.891282 0.188073 0.119169
C99   C     C_R   0.196098 0.482962 0.882752 0.097575
C100  C     C_R   0.815352 0.413696 0.147123 0.091319
C101  C     C_R   0.649348 0.849627 0.856619 0.186215
C102  C     C_R   0.361565 0.831943 0.175863 0.160834
C103  C     C_R   0.176707 0.460214 0.932711 0.170902
C104  C     C_R   0.838483 0.365017 0.118279 0.179618
C105  C     C_R   0.631858 0.781902 0.810430 -0.365630
C106  C     C_R   0.361691 0.762256 0.207425 -0.371877
C107  C     C_R   0.147178 0.392899 0.911438 -0.401911
C108  C     C_R   0.859116 0.296242 0.160550 -0.370756
C109  C     C_R   0.783132 0.940792 0.820237 0.107219
C110  C     C_R   0.215552 0.941079 0.178199 0.150851
C111  C     C_R   0.282089 0.450958 0.831356 0.138465
C112  C     C_R   0.716314 0.439890 0.179332 0.107635
H1    H     H_    0.612911 0.741331 0.828008 0.188208
H2    H     H_    0.377857 0.716492 0.191767 0.208314
H3    H     H_    0.134474 0.375913 0.953259 0.182557
H4    H     H_    0.874911 0.259352 0.134803 0.180393
H5    H     H_    0.879068 0.275803 0.826235 0.205278
H6    H     H_    0.123828 0.279309 0.178386 0.188295
H7    H     H_    0.387513 0.760979 0.796115 0.178529
H8    H     H_    0.626717 0.776615 0.167249 0.206132
H9    H     H_    0.690720 0.094252 0.627940 0.178509
H10   H     H_    0.308773 0.095701 0.370858 0.170092
H11   H     H_    0.190903 0.577539 0.605732 0.160385
H12   H     H_    0.810485 0.592466 0.373555 0.181820
O1    O     O_R   0.500010 0.939400 0.392680 -0.633714
O2    O     O_R   0.499990 0.939400 0.607320 -0.623930
O3    O     O_R   0.000010 0.439400 0.392680 -0.627324
O4    O     O_R   0.999990 0.439400 0.607320 -0.668858
O5    O     O_R   0.551700 0.999990 0.159040 -0.597367
O6    O     O_R   0.448300 0.999990 0.840960 -0.621134
O7    O     O_R   0.051700 0.499990 0.159040 -0.605936
O8    O     O_R   0.948300 0.499990 0.840960 -0.587736
O9    O     O_R   0.448260 0.000000 0.055600 -0.592614
O10   O     O_R   0.551740 0.000000 0.944400 -0.582060
O11   O     O_R   0.948260 0.500000 0.055600 -0.586121
O12   O     O_R   0.051740 0.500000 0.944400 -0.610688
O13   O     O_R   0.551720 0.892660 0.051710 -0.602650
O14   O     O_R   0.448280 0.892660 0.948290 -0.631644
O15   O     O_R   0.051720 0.392660 0.051710 -0.639201
O16   O     O_R   0.948280 0.392660 0.948290 -0.602044
O17   O     O_R   0.499990 0.060580 0.392690 -0.605641
O18   O     O_R   0.500010 0.060580 0.607310 -0.612271
O19   O     O_R   0.999990 0.560580 0.392690 -0.614114
O20   O     O_R   0.000010 0.560580 0.607310 -0.596648
O21   O     O_R   0.591620 0.939400 0.591620 -0.645538
O22   O     O_R   0.408380 0.939400 0.408380 -0.660388
O23   O     O_R   0.091620 0.439400 0.591620 -0.623376
O24   O     O_R   0.908380 0.439400 0.408380 -0.635394
O25   O     O_R   0.591600 0.060580 0.591620 -0.617605
O26   O     O_R   0.408400 0.060580 0.408380 -0.608773
O27   O     O_R   0.091600 0.560580 0.591620 -0.617111
O28   O     O_R   0.908400 0.560580 0.408380 -0.617379
O29   O     O_R   0.999970 0.107360 0.060570 -0.606359
O30   O     O_R   0.000030 0.107360 0.939430 -0.632419
O31   O     O_R   0.499970 0.607360 0.060570 -0.620447
O32   O     O_R   0.500030 0.607360 0.939430 -0.599692
O33   O     O_R   0.908370 0.000030 0.968970 -0.592887
O34   O     O_R   0.091630 0.000030 0.031030 -0.596205
O35   O     O_R   0.408370 0.500030 0.968970 -0.590386
O36   O     O_R   0.591630 0.500030 0.031030 -0.589926
O37   O     O_R   0.908380 0.000000 0.847800 -0.619475
O38   O     O_R   0.091620 0.000000 0.152200 -0.620315
O39   O     O_R   0.408380 0.500000 0.847800 -0.624236
O40   O     O_R   0.591620 0.500000 0.152200 -0.620638
O41   O     O_R   0.000000 0.892710 0.060610 -0.609167
O42   O     O_R   0.000000 0.892710 0.939390 -0.605395
O43   O     O_R   0.500000 0.392710 0.060610 -0.609850
O44   O     O_R   0.500000 0.392710 0.939390 -0.605719
O45   O     O_R   0.551710 0.107310 0.051740 -0.600969
O46   O     O_R   0.448290 0.107310 0.948260 -0.611456
O47   O     O_R   0.051710 0.607310 0.051740 -0.596275
O48   O     O_R   0.948290 0.607310 0.948260 -0.600742
Zn1   Zn    Zn3+2 0.500000 0.919080 0.500000 0.900827
Zn2   Zn    Zn3+2 0.000000 0.419080 0.500000 0.895210
Zn3   Zn    Zn3+2 0.500000 0.080900 0.500000 1.009256
Zn4   Zn    Zn3+2 0.000000 0.580900 0.500000 1.008337
Zn5   Zn    Zn3+2 0.999980 0.000040 0.080910 1.042256
Zn6   Zn    Zn3+2 0.000020 0.000040 0.919090 1.035225
Zn7   Zn    Zn3+2 0.499980 0.500040 0.080910 1.048815
Zn8   Zn    Zn3+2 0.500020 0.500040 0.919090 1.054903
Zn9   Zn    Zn3+2 0.569060 0.999980 0.069070 1.087464
Zn10  Zn    Zn3+2 0.430940 0.999980 0.930930 1.031006
Zn11  Zn    Zn3+2 0.069060 0.499980 0.069070 1.039520
Zn12  Zn    Zn3+2 0.930940 0.499980 0.930930 1.086205
I1    I     I_    0.855925 0.348978 0.656022 -0.329733
I2    I     I_    0.079844 0.307968 0.287607 -0.335135
I3    I     I_    0.449223 0.760134 0.711109 -0.432140
I4    I     I_    0.659417 0.859422 0.338681 -0.279930
O49   O     O_3   0.859521 0.157356 0.885211 -0.627403
C113  C     C_3   0.815775 0.187946 0.888620 0.088566
H13   H     H_    0.767422 0.172781 0.824529 0.153498
H14   H     H_    0.820520 0.248552 0.893463 0.183989
C114  C     C_3   0.828001 0.159033 0.977666 -0.720334
H15   H     H_    0.876289 0.171811 0.042879 0.246385
H16   H     H_    0.795604 0.184397 0.984196 0.231275
H17   H     H_    0.821446 0.098684 0.972128 0.273643
O50   O     O_3   0.177787 0.178387 0.144304 -0.603192
C115  C     C_3   0.193735 0.249355 0.135538 0.071237
H18   H     H_    0.227003 0.277212 0.206840 0.154736
H19   H     H_    0.151450 0.282988 0.086289 0.150133
C116  C     C_3   0.224186 0.243244 0.091761 -0.704753
H20   H     H_    0.191643 0.217748 0.019130 0.287391
H21   H     H_    0.237487 0.298539 0.085035 0.216076
H22   H     H_    0.266273 0.209048 0.138546 0.263592
O51   O     O_3   0.315489 0.682079 0.817113 -0.595271
C117  C     C_3   0.302320 0.757386 0.812037 0.085923
H23   H     H_    0.276968 0.780055 0.738211 0.140999
H24   H     H_    0.345903 0.788696 0.864978 0.178791
C118  C     C_3   0.261856 0.767772 0.838006 -0.677953
H25   H     H_    0.285958 0.747329 0.912036 0.288623
H26   H     H_    0.251782 0.826840 0.835126 0.212862
H27   H     H_    0.217642 0.737378 0.786230 0.257856
O52   O     O_3   0.640472 0.653461 0.110026 -0.625609
C119  C     C_3   0.683334 0.680758 0.102160 0.092976
H28   H     H_    0.729778 0.656160 0.157372 0.162035
H29   H     H_    0.687264 0.741405 0.109974 0.177611
C120  C     C_3   0.660795 0.660736 0.003144 -0.703097
H30   H     H_    0.614142 0.683867 0.946610 0.261024
H31   H     H_    0.693213 0.682832 0.994297 0.230111
H32   H     H_    0.657916 0.600274 0.994690 0.273587
O53   O     O_3   0.626980 0.696467 0.703038 -0.594376
C121  C     C_3   0.568440 0.670172 0.666356 0.097882
H33   H     H_    0.532984 0.714240 0.630926 0.139604
H34   H     H_    0.571991 0.644957 0.725247 0.189832
C122  C     C_3   0.546678 0.611164 0.591485 -0.808224
H35   H     H_    0.539169 0.635067 0.528640 0.219562
H36   H     H_    0.581621 0.567105 0.623304 0.285462
H37   H     H_    0.502600 0.587048 0.566532 0.235334
O54   O     O_3   0.329303 0.679640 0.271130 -0.536460
C123  C     C_3   0.386850 0.646211 0.343017 0.072878
H38   H     H_    0.408454 0.670170 0.414741 0.143254
H39   H     H_    0.419625 0.652053 0.329724 0.121577
C124  C     C_3   0.376212 0.564708 0.344798 -0.681841
H40   H     H_    0.343930 0.556013 0.358463 0.282656
H41   H     H_    0.356034 0.539523 0.274382 0.261432
H42   H     H_    0.420654 0.537476 0.402413 0.200030
O55   O     O_3   0.113077 0.276002 0.828467 -0.616539
C125  C     C_3   0.055570 0.279327 0.806763 0.055705
H43   H     H_    0.025967 0.324142 0.754862 0.152022
H44   H     H_    0.062683 0.287158 0.873714 0.160986
C126  C     C_3   0.021085 0.207213 0.761596 -0.781601
H45   H     H_    0.013005 0.196838 0.694299 0.229602
H46   H     H_    0.048414 0.161527 0.812760 0.272342
H47   H     H_    0.975808 0.209465 0.744053 0.228008
O56   O     O_3   0.873274 0.203098 0.268980 -0.595891
C127  C     C_3   0.930760 0.181945 0.297595 0.073646
H48   H     H_    0.965399 0.227480 0.333840 0.146960
H49   H     H_    0.924486 0.162481 0.234105 0.175347
C128  C     C_3   0.956392 0.118658 0.368341 -0.775353
H50   H     H_    0.922929 0.072291 0.334848 0.277501
H51   H     H_    0.000396 0.099802 0.388609 0.240837
H52   H     H_    0.965351 0.136412 0.434545 0.224500
O57   O     O_3   0.673311 0.807391 0.656352 -0.571967
C129  C     C_3   0.616930 0.785342 0.565734 0.175796
H53   H     H_    0.575012 0.799165 0.555743 0.108839
H54   H     H_    0.617498 0.725204 0.557506 0.189661
C130  C     C_3   0.610326 0.822210 0.484719 -0.705654
H55   H     H_    0.645511 0.801188 0.482646 0.275530
H56   H     H_    0.563994 0.810099 0.414402 0.204972
H57   H     H_    0.616577 0.882332 0.495442 0.275217
O58   O     O_3   0.281280 0.794756 0.299621 -0.566263
C131  C     C_3   0.321263 0.805298 0.400252 0.125205
H58   H     H_    0.335654 0.863649 0.419148 0.156260
H59   H     H_    0.362958 0.770223 0.438319 0.146005
C132  C     C_3   0.287021 0.784973 0.435380 -0.695446
H60   H     H_    0.273792 0.726109 0.420955 0.271644
H61   H     H_    0.316954 0.795253 0.513986 0.226608
H62   H     H_    0.244722 0.818617 0.397620 0.262164
O59   O     O_3   0.161753 0.317947 0.737232 -0.575529
C133  C     C_3   0.104332 0.282718 0.666283 0.148723
H63   H     H_    0.064197 0.317729 0.639734 0.138999
H64   H     H_    0.101936 0.230732 0.695347 0.197184
C134  C     C_3   0.099450 0.262216 0.580861 -0.743306
H65   H     H_    0.137070 0.223898 0.604608 0.281755
H66   H     H_    0.054309 0.235057 0.524504 0.173971
H67   H     H_    0.103231 0.311548 0.549395 0.286940
O60   O     O_3   0.833112 0.304344 0.335595 -0.568072
C135  C     C_3   0.891314 0.279060 0.419887 0.181732
H68   H     H_    0.930933 0.299117 0.426289 0.107645
H69   H     H_    0.891447 0.218277 0.420223 0.186500
C136  C     C_3   0.902614 0.304315 0.509540 -0.718325
H70   H     H_    0.876929 0.268937 0.522106 0.261542
H71   H     H_    0.952432 0.299899 0.573377 0.177908
H72   H     H_    0.887904 0.361869 0.502167 0.295757
I5    I     I_    0.703135 0.006841 0.908996 -0.322007
I6    I     I_    0.328028 0.995957 0.128517 -0.292193
I7    I     I_    0.239344 0.587889 0.913825 -0.272179
I8    I     I_    0.785816 0.520296 0.084365 -0.334721
I9    I     I_    0.635394 0.865760 0.955996 -0.314324
I10   I     I_    0.396730 0.840580 0.103554 -0.355402
I11   I     I_    0.196610 0.521079 0.049234 -0.238863
I12   I     I_    0.839473 0.388552 0.005669 -0.299843
I13   I     I_    0.833312 0.853070 0.921706 -0.265752
I14   I     I_    0.163385 0.856389 0.070700 -0.227633
I15   I     I_    0.329413 0.372069 0.946039 -0.260819
I16   I     I_    0.665164 0.352662 0.076629 -0.262855
I17   I     I_    0.748400 0.033448 0.531760 -0.240537
I18   I     I_    0.209225 0.005686 0.418597 -0.321913
I19   I     I_    0.294290 0.473875 0.581599 -0.259541
I20   I     I_    0.751662 0.540148 0.468900 -0.230179
I21   I     I_    0.762136 0.212172 0.464927 -0.215766
I22   I     I_    0.130053 0.146697 0.437525 -0.328221
I23   I     I_    0.389841 0.593345 0.568696 -0.386485
I24   I     I_    0.750577 0.724955 0.533786 -0.217337

loop_
_geom_bond_atom_site_label_1
_geom_bond_atom_site_label_2
_ccdc_geom_bond_type
C104  I12   S    
O43   Zn7   S    
C81   C107  A    
C127  H49   S    
C8    C66   S    
C113  H13   S    
C14   H10   S    
C135  H69   S    
C55   C59   T    
C43   O51   S    
C68   C86   S    
C116  H20   S    
C14   C18   A    
C99   C103  A    
C24   C112  A    
C92   C96   A    
C80   O54   S    
C65   O35   A    
C70   C88   S    
C61   O30   A    
C76   C84   S    
C131  C132  S    
C66   O36   A    
O23   Zn2   S    
O51   C117  S    
C120  H32   S    
C15   C19   A    
C114  H15   S    
C110  I14   S    
C125  C126  S    
C79   C105  A    
C128  H50   S    
O16   Zn12  S    
C109  I13   S    
C96   C100  A    
C106  H2    S    
C37   C41   A    
C45   O21   A    
C32   C36   A    
C105  H1    S    
C1    O1    A    
C130  H55   S    
C74   O8    A    
C26   C50   A    
O57   C129  S    
C38   H6    S    
C119  H29   S    
C85   C88   T    
O13   Zn9   S    
C94   C98   A    
C77   C84   T    
O22   Zn1   S    
C80   C106  A    
C68   O43   A    
C100  C104  A    
C134  H67   S    
C82   C92   A    
C62   O31   A    
C26   I18   S    
C123  C124  S    
C126  H45   S    
C22   C94   S    
C6    C64   S    
C92   O60   S    
C34   I2    S    
C90   O58   S    
C70   O48   A    
C72   O10   A    
O36   Zn8   S    
O38   Zn5   S    
C9    C13   A    
C113  C114  S    
C122  H36   S    
C125  H43   S    
C3    C55   S    
C78   C83   T    
C30   I22   S    
C79   C89   A    
C103  C107  A    
C12   C16   A    
C29   C33   A    
C61   C77   S    
C114  H16   S    
C135  C136  S    
C74   O12   A    
C3    O3    A    
C129  H54   S    
O34   Zn6   S    
C9    C49   S    
C79   O53   S    
C115  H18   S    
O42   Zn6   S    
C82   C108  A    
C17   C21   A    
C102  I10   S    
C132  H60   S    
C59   C73   S    
C131  H58   S    
O11   Zn12  S    
C133  H63   S    
C69   C87   S    
C8    C12   A    
C32   I24   S    
C44   C52   A    
O3    Zn2   S    
O26   Zn3   S    
O1    Zn1   S    
C89   O57   S    
O59   C133  S    
O46   Zn10  S    
C101  C105  A    
C116  H21   S    
C133  C134  S    
O20   Zn4   S    
C69   O45   A    
O7    Zn11  S    
O19   Zn4   S    
C18   C46   S    
C28   C32   A    
C101  I9    S    
C12   C52   S    
O31   Zn7   S    
C67   O41   A    
C90   C94   A    
O29   Zn5   S    
C76   O16   A    
C25   C29   A    
C125  H44   S    
C73   O7    A    
C67   C85   S    
C111  I15   S    
C62   O32   A    
C30   C34   A    
C27   C31   A    
C44   O52   S    
C112  I16   S    
C75   C83   S    
C20   C24   A    
C36   C40   A    
C3    O19   A    
C45   O25   A    
C64   O38   A    
C2    C54   S    
O35   Zn7   S    
C132  H61   S    
C31   C35   A    
C53   C57   T    
C117  H23   S    
C131  H59   S    
C7    C111  A    
C129  C130  S    
C22   C110  A    
C136  H70   S    
O44   Zn8   S    
C119  C120  S    
C89   C93   A    
C33   C37   A    
C56   C60   T    
C97   I5    S    
C126  H46   S    
C34   C38   A    
C6    C110  A    
C7    C11   A    
C70   O47   A    
C81   O55   S    
C5    C9    A    
O54   C123  S    
C73   O11   A    
C27   I19   S    
C71   O5    A    
O53   C121  S    
C13   H9    S    
C124  H42   S    
O48   Zn12  S    
C97   C101  A    
C103  I11   S    
O50   C115  S    
O52   C119  S    
O41   Zn5   S    
C16   C20   A    
C114  H17   S    
O45   Zn9   S    
C1    C53   S    
C65   O39   A    
C115  C116  S    
C118  H25   S    
C66   O40   A    
C31   I23   S    
O33   Zn5   S    
C57   C71   S    
C81   C91   A    
C123  H39   S    
C124  H41   S    
C4    O20   A    
C107  H3    S    
C20   C48   S    
O2    Zn1   S    
C15   H11   S    
C42   C50   A    
C68   O44   A    
C67   O42   A    
C134  H66   S    
C46   O26   A    
O21   Zn1   S    
C26   C30   A    
C128  H51   S    
C11   C15   A    
O30   Zn6   S    
C48   O28   A    
O6    Zn10  S    
C2    O18   A    
C116  H22   S    
C133  H64   S    
C136  H71   S    
C63   O33   A    
O10   Zn9   S    
C64   O34   A    
C122  H37   S    
C10   C50   S    
O24   Zn2   S    
C93   C97   A    
C5    C63   S    
C104  C108  A    
O15   Zn11  S    
C19   C23   A    
O17   Zn3   S    
C86   C87   T    
C54   C58   T    
C76   O15   A    
O47   Zn11  S    
O49   C113  S    
C63   O37   A    
O5    Zn9   S    
C127  H48   S    
C121  H34   S    
C4    O4    A    
C113  H14   S    
O27   Zn4   S    
C82   O56   S    
C40   H8    S    
C119  H28   S    
C136  H72   S    
C7    C65   S    
C62   C78   S    
C42   O50   S    
C17   C45   S    
C91   O59   S    
C75   O14   A    
C61   O29   A    
O25   Zn3   S    
C71   O9    A    
C33   I1    S    
C72   O6    A    
O18   Zn3   S    
C28   C52   A    
C18   C22   A    
C99   I7    S    
C120  H31   S    
C41   C49   A    
C23   C111  A    
C100  I8    S    
O4    Zn2   S    
C121  C122  S    
C41   O49   S    
C47   O27   A    
C130  H57   S    
C28   I20   S    
C108  H4    S    
C129  H53   S    
C24   C96   S    
C75   O13   A    
C123  H38   S    
C47   O23   A    
C98   C102  A    
O8    Zn12  S    
C27   C51   A    
O32   Zn8   S    
C117  C118  S    
C58   C72   S    
C46   O22   A    
C21   C93   S    
C43   C51   A    
C39   H7    S    
O55   C125  S    
C48   O24   A    
O12   Zn11  S    
C60   C74   S    
C118  H26   S    
C8    C112  A    
C23   C95   S    
C102  C106  A    
C29   I21   S    
C95   C99   A    
C69   O46   A    
C120  H30   S    
C11   C51   S    
C80   C90   A    
C121  H33   S    
O14   Zn10  S    
C132  H62   S    
C25   C49   A    
C128  H52   S    
C1    O17   A    
C6    C10   A    
C2    O2    A    
C91   C95   A    
C13   C17   A    
O28   Zn4   S    
C38   C42   A    
O9    Zn10  S    
C40   C44   A    
C35   C39   A    
C37   H5    S    
C39   C43   A    
C35   I3    S    
O40   Zn7   S    
C19   C47   S    
C25   I17   S    
O39   Zn8   S    
O58   C131  S    
C135  H68   S    
C126  H47   S    
C115  H19   S    
C5    C109  A    
C16   H12   S    
C36   I4    S    
O37   Zn6   S    
O56   C127  S    
C117  H24   S    
O60   C135  S    
C118  H27   S    
C130  H56   S    
C4    C56   S    
C98   I6    S    
C124  H40   S    
C10   C14   A    
C21   C109  A    
C122  H35   S    
C127  C128  S    
C134  H65   S    
