data_mof_unit_44550.cif
_audit_creation_date              2012-10-26T20:19:34-0400
_audit_creation_method            fapswitch 2.2
_symmetry_space_group_name_H-M    P1
_symmetry_Int_Tables_number       1
_space_group_crystal_system       triclinic
_cell_length_a                    10.824774
_cell_length_b                    10.865049
_cell_length_c                    9.614425
_cell_angle_alpha                 89.521786
_cell_angle_beta                  89.265375
_cell_angle_gamma                 90.995088
_cell_volume                      1130.46387851

loop_
_atom_site_label
_atom_site_type_symbol
_atom_type_description
_atom_site_fract_x
_atom_site_fract_y
_atom_site_fract_z
_atom_type_partial_charge
C1    C     C_R   0.504389 0.262220 0.500675 0.620942
C2    C     C_R   0.523381 0.060052 0.627219 0.002353
C3    C     C_R   0.504565 0.127268 0.502815 0.025238
C4    C     C_R   0.260429 0.503861 0.500572 0.607224
C5    C     C_R   0.472389 0.064195 0.381332 -0.111944
C6    C     C_R   0.465141 0.936797 0.381182 -0.103366
C7    C     C_R   0.474106 0.870865 0.506070 0.009122
C8    C     C_R   0.664419 0.658856 0.140250 -0.089964
C9    C     C_R   0.746013 0.735515 0.066764 -0.098002
C10   C     C_R   0.746736 0.735448 0.923637 -0.143298
C11   C     C_R   0.665375 0.659026 0.853137 -0.108614
C12   C     C_3   0.878647 0.492984 0.498860 -0.047759
C13   C     C_R   0.581563 0.577618 0.923559 0.148472
C14   C     C_R   0.581391 0.577528 0.072977 0.154238
C15   C     C_R   0.420454 0.428517 0.075651 0.086126
C16   C     C_R   0.488892 0.736939 0.500878 0.543858
C17   C     C_R   0.420988 0.427989 0.927849 0.036603
C18   C     C_R   0.740014 0.495560 0.499507 0.582465
C19   C     C_3   0.069365 0.499531 0.652189 -0.266706
C20   C     C_3   0.928165 0.481367 0.650010 -0.241401
C21   C     C_3   0.070634 0.618484 0.427636 0.090466
C22   C     C_3   0.076566 0.376996 0.430502 0.127101
C23   C     C_3   0.927431 0.617456 0.438656 -0.268425
C24   C     C_3   0.122879 0.499194 0.500709 -0.041228
C25   C     C_3   0.934086 0.387954 0.405537 0.139440
C26   C     C_R   0.580774 0.110592 0.745381 -0.030943
C27   C     C_R   0.579210 0.046655 0.871560 0.277436
C28   C     C_R   0.511857 0.936889 0.884559 -0.110397
C29   C     C_R   0.463752 0.882148 0.766310 -0.139500
C30   C     C_R   0.485156 0.935897 0.633206 0.008002
Cu1   Cu    Cu3+1 0.499990 0.499990 0.640660 0.979709
Cu2   Cu    Cu3+1 0.500010 0.500010 0.359340 1.060525
H1    H     H_    0.092583 0.588663 0.702808 0.129301
H2    H     H_    0.807844 0.796911 0.121657 0.214234
H3    H     H_    0.809307 0.796735 0.866442 0.165912
H4    H     H_    0.671486 0.669948 0.743707 0.186025
H5    H     H_    0.356643 0.368308 0.874250 0.153300
H6    H     H_    0.902020 0.389809 0.694681 0.229412
H7    H     H_    0.886644 0.551947 0.718581 0.142296
H8    H     H_    0.897108 0.694028 0.506722 0.115786
H9    H     H_    0.121724 0.369511 0.326781 0.166878
H10   H     H_    0.925619 0.420421 0.295967 0.149495
H11   H     H_    0.290645 0.713201 0.148223 0.355789
H12   H     H_    0.885200 0.634039 0.335663 0.175190
H13   H     H_    0.834751 0.198610 0.043244 0.402755
H14   H     H_    0.355735 0.369152 0.132136 0.148144
H15   H     H_    0.104426 0.699332 0.487597 0.138196
H16   H     H_    0.185467 0.056872 0.463488 0.371803
H17   H     H_    0.684522 0.185506 0.299137 0.400261
H18   H     H_    0.456385 0.113052 0.284849 0.193959
H19   H     H_    0.631420 0.196994 0.740585 0.206984
H20   H     H_    0.500421 0.891230 0.984568 0.144883
H21   H     H_    0.409475 0.798656 0.781384 0.161002
H22   H     H_    0.451889 0.890102 0.283261 0.174927
H23   H     H_    0.109619 0.427011 0.718910 0.217360
H24   H     H_    0.669955 0.668564 0.249428 0.175338
N1    N     N_R   0.501200 0.501210 0.147910 -0.232658
N2    N     N_R   0.501250 0.501290 0.852040 -0.260081
O1    O     O_R   0.499990 0.319640 0.618810 -0.489337
O2    O     O_2   0.040809 0.749146 0.189028 -0.271251
O3    O     O_3   0.266940 0.707039 0.247947 -0.503996
O4    O     O_2   0.584685 0.214684 0.065850 -0.317060
O5    O     O_2   0.669854 0.012796 0.125760 -0.330365
O6    O     O_3   0.798531 0.158815 0.960508 -0.474314
O7    O     O_2   0.243150 0.261562 0.602561 -0.324379
O8    O     O_2   0.030373 0.192432 0.626382 -0.200485
O9    O     O_3   0.156430 0.127441 0.407515 -0.470168
O10   O     O_2   0.920240 0.141521 0.346398 -0.177698
O11   O     O_2   0.796536 0.212665 0.545241 -0.292719
O12   O     O_R   0.500000 0.319660 0.381240 -0.469936
O13   O     O_3   0.728385 0.265777 0.295397 -0.485013
O14   O     O_R   0.317680 0.499970 0.618790 -0.499682
O15   O     O_R   0.317700 0.499990 0.381210 -0.446803
O16   O     O_R   0.500000 0.680340 0.618760 -0.556417
O17   O     O_R   0.500010 0.680360 0.381190 -0.514086
O18   O     O_R   0.682300 0.500010 0.618790 -0.529419
O19   O     O_R   0.682320 0.500030 0.381210 -0.489921
O20   O     O_2   0.113005 0.538934 0.160606 -0.333526
S1    S     S_3+6 0.121080 0.651484 0.249940 -0.021424
S2    S     S_3+6 0.657652 0.108310 0.013067 -0.011956
S3    S     S_3+6 0.126595 0.238282 0.523755 0.033284
S4    S     S_3+6 0.845939 0.245638 0.402935 0.052404

loop_
_geom_bond_atom_site_label_1
_geom_bond_atom_site_label_2
_ccdc_geom_bond_type
O2    S1    D    
C16   O17   A    
O6    S2    S    
C19   C20   S    
C8    H24   S    
Cu2   O17   S    
C12   C23   S    
C26   C27   A    
C16   O16   A    
Cu1   N2    S    
O4    S2    D    
C28   C29   A    
C1    O1    A    
C5    C6    A    
C4    C24   S    
C22   H9    S    
C23   H8    S    
C11   C13   A    
Cu1   O1    S    
O11   S4    D    
Cu2   O19   S    
C8    C9    A    
C22   C25   S    
C8    C14   A    
C10   H3    S    
C9    C10   A    
C17   N2    A    
O13   S4    S    
C7    C30   A    
C13   C14   A    
C15   N1    A    
C21   S1    S    
Cu2   N1    S    
C6    H22   S    
O5    S2    D    
C22   S3    S    
C27   S2    S    
C19   H1    S    
Cu2   O15   S    
C20   H7    S    
O20   S1    D    
Cu1   O16   S    
Cu2   O12   S    
C13   N2    A    
C23   H12   S    
C1    C3    S    
C29   C30   A    
C20   H6    S    
O7    S3    D    
Cu1   Cu2   S    
C12   C20   S    
C2    C26   A    
C17   H5    S    
C4    O15   A    
Cu1   O14   S    
O9    S3    S    
C21   C23   S    
C9    H2    S    
C22   C24   S    
C5    H18   S    
C4    O14   A    
H11   O3    S    
C19   H23   S    
C15   C17   A    
C14   N1    A    
C11   H4    S    
C18   O18   A    
C7    C16   S    
C3    C5    A    
C25   H10   S    
C6    C7    A    
H13   O6    S    
C1    O12   A    
C12   C25   S    
C2    C30   A    
O10   S4    D    
C2    C3    A    
C26   H19   S    
O8    S3    D    
C28   H20   S    
Cu1   O18   S    
C25   S4    S    
C29   H21   S    
O3    S1    S    
C18   O19   A    
C19   C24   S    
H16   O9    S    
C10   C11   A    
H17   O13   S    
C21   C24   S    
C12   C18   S    
C27   C28   A    
C15   H14   S    
C21   H15   S    
