data_mof_unit_61244.cif
_audit_creation_date              2012-12-10T20:46:37-0500
_audit_creation_method            fapswitch 2.2
_symmetry_space_group_name_H-M    P1
_symmetry_Int_Tables_number       1
_space_group_crystal_system       triclinic
_cell_length_a                    15.466889
_cell_length_b                    19.224329
_cell_length_c                    19.257026
_cell_angle_alpha                 94.684748
_cell_angle_beta                  102.41564
_cell_angle_gamma                 97.140184
_cell_volume                      5513.79755547

loop_
_atom_site_label
_atom_site_type_symbol
_atom_type_description
_atom_site_fract_x
_atom_site_fract_y
_atom_site_fract_z
_atom_type_partial_charge
C1    C     C_R   0.508863 0.311729 0.493709 0.904334
C2    C     C_R   0.883965 0.523158 0.503084 -0.171646
C3    C     C_R   0.882938 0.562823 0.625326 -0.202979
C4    C     C_R   0.491357 0.688211 0.506632 0.814507
C5    C     C_R   0.159183 0.451710 0.449955 -0.097026
C6    C     C_R   0.492886 0.765090 0.512820 -0.070181
C7    C     C_R   0.537945 0.806070 0.470841 -0.317315
C8    C     C_R   0.542400 0.879678 0.477722 0.536525
C9    C     C_R   0.503905 0.912557 0.529577 0.217132
C10   C     C_R   0.460643 0.871672 0.572259 -0.271283
C11   C     C_R   0.453851 0.798424 0.563320 -0.199118
C12   C     C_R   0.020892 0.413584 0.359909 0.509602
C13   C     C_R   0.495678 0.129625 0.555183 0.450192
C14   C     C_R   0.501843 0.203342 0.556727 0.352204
C15   C     C_R   0.494393 0.087913 0.490281 0.063967
C16   C     C_R   0.509278 0.508142 0.690829 0.898858
C17   C     C_R   0.505758 0.235361 0.493754 -0.321216
C18   C     C_R   0.502159 0.193560 0.429509 0.457012
C19   C     C_R   0.495260 0.120499 0.428267 -0.355362
C20   C     C_R   0.483324 0.489445 0.231118 -0.223982
C21   C     C_R   0.541031 0.537331 0.204219 0.533902
C22   C     C_R   0.531111 0.538680 0.130545 0.417800
C23   C     C_R   0.971412 0.437469 0.407672 0.468671
C24   C     C_R   0.465642 0.488993 0.082410 0.131906
C25   C     C_R   0.407738 0.442210 0.109303 -0.242114
C26   C     C_R   0.416610 0.442067 0.182939 -0.291559
C27   C     C_R   0.443432 0.521769 0.869170 0.482833
C28   C     C_R   0.490335 0.490991 0.308867 0.877801
C29   C     C_R   0.440583 0.525297 0.796598 0.543750
C30   C     C_R   0.518704 0.501188 0.914129 -0.013112
C31   C     C_R   0.512435 0.508218 0.767771 -0.320522
C32   C     C_R   0.587582 0.488937 0.812881 -0.391584
C33   C     C_R   0.591909 0.487245 0.885914 0.461780
C34   C     C_R   0.015930 0.472655 0.476798 -0.126315
C35   C     C_R   0.741393 0.534840 0.535685 0.791552
C36   C     C_R   0.257971 0.465066 0.466638 0.822348
C37   C     C_R   0.972219 0.554677 0.647062 -0.116575
C38   C     C_R   0.838558 0.546396 0.553534 -0.024881
C39   C     C_R   0.114366 0.424190 0.380158 -0.400232
C40   C     C_3   0.404760 0.078581 0.620928 -0.251955
C41   C     C_3   0.591223 0.235054 0.358395 -0.279612
C42   C     C_3   0.551678 0.907696 0.366275 -0.292077
C43   C     C_3   0.545502 0.647885 0.094480 -0.232462
C44   C     C_3   0.732531 0.526405 0.950532 -0.208694
C45   C     C_R   0.109306 0.471075 0.500180 -0.088013
C46   C     C_3   0.851725 0.359162 0.414079 -0.305508
C47   C     C_3   0.998690 0.317666 0.275286 -0.271581
C48   C     C_3   0.424305 0.268634 0.620559 -0.236805
C49   C     C_R   0.971436 0.506641 0.524857 0.043153
C50   C     C_R   0.016580 0.525603 0.597942 -0.007170
C51   C     C_R   0.104611 0.513628 0.621657 0.619970
C52   C     C_R   0.150256 0.487146 0.573504 -0.215081
F1    F     F_    0.366728 0.544075 0.754515 -0.564147
F2    F     F_    0.373613 0.540017 0.895389 -0.591530
F3    F     F_    0.147463 0.528451 0.691726 -0.607288
F4    F     F_    0.606776 0.583834 0.248910 -0.612819
H1    H     H_    0.847380 0.579725 0.664948 0.143143
H2    H     H_    0.848051 0.516332 0.447961 0.213564
H3    H     H_    0.152236 0.411174 0.340936 0.196879
H4    H     H_    0.217374 0.477160 0.595337 0.206205
H5    H     H_    0.404316 0.047890 0.667218 0.193035
H6    H     H_    0.366354 0.043856 0.572133 0.141187
H7    H     H_    0.370645 0.124958 0.629479 0.159255
H8    H     H_    0.617300 0.184181 0.351095 0.163718
H9    H     H_    0.635960 0.270036 0.404420 0.132102
H10   H     H_    0.592231 0.261743 0.309572 0.199343
H11   H     H_    0.583292 0.948606 0.338453 0.197727
H12   H     H_    0.431253 0.896813 0.612118 0.174509
H13   H     H_    0.478800 0.911593 0.355489 0.154024
H14   H     H_    0.562827 0.855624 0.343091 0.167271
H15   H     H_    0.532714 0.672606 0.144938 0.171820
H16   H     H_    0.590759 0.687241 0.075015 0.189437
H17   H     H_    0.482053 0.635249 0.052666 0.176522
H18   H     H_    0.708825 0.569470 0.980487 0.177140
H19   H     H_    0.755678 0.545914 0.903798 0.141075
H20   H     H_    0.791019 0.510799 0.987008 0.202885
H21   H     H_    0.869348 0.365481 0.473627 0.160418
H22   H     H_    0.880477 0.313859 0.392920 0.165607
H23   H     H_    0.419804 0.768047 0.597051 0.193080
H24   H     H_    0.777864 0.346640 0.396757 0.186054
H25   H     H_    0.000121 0.284761 0.320462 0.134827
H26   H     H_    0.063788 0.322426 0.259237 0.165087
H27   H     H_    0.947229 0.289498 0.228991 0.202721
H28   H     H_    0.365423 0.236918 0.582217 0.099723
H29   H     H_    0.429411 0.324316 0.608707 0.154318
H30   H     H_    0.410952 0.267772 0.674843 0.192030
H31   H     H_    0.492161 0.088701 0.378409 0.199237
H32   H     H_    0.571110 0.781136 0.433544 0.191590
H33   H     H_    0.356107 0.405120 0.072934 0.196231
H34   H     H_    0.370782 0.405149 0.202119 0.212249
H35   H     H_    0.643678 0.475568 0.791778 0.230353
H36   H     H_    0.005174 0.568193 0.703027 0.202977
N1    N     N_2   0.508332 0.986676 0.540408 -0.088954
N2    N     N_2   0.490663 0.013383 0.483193 -0.119468
N3    N     N_2   0.454432 0.486670 0.007126 -0.071367
N4    N     N_2   0.526773 0.498914 0.988653 -0.050835
O1    O     O_3   0.500000 0.500000 0.500000 -0.511319
O2    O     O_R   0.703360 0.489010 0.567610 -0.638908
O3    O     O_R   0.300660 0.429640 0.429680 -0.652925
O4    O     O_R   0.695340 0.566530 0.487850 -0.620008
O5    O     O_R   0.300650 0.514820 0.514850 -0.633093
O6    O     O_3   0.494515 0.099730 0.618012 -0.543898
O7    O     O_3   0.502436 0.223888 0.366872 -0.567543
O8    O     O_3   0.592247 0.920457 0.440014 -0.585983
O9    O     O_3   0.587666 0.587588 0.106241 -0.562917
O10   O     O_3   0.665784 0.466978 0.929303 -0.560148
O11   O     O_3   0.879334 0.421772 0.386415 -0.587692
O12   O     O_R   0.453370 0.540700 0.651360 -0.582302
O13   O     O_3   0.975461 0.384905 0.291376 -0.556009
O14   O     O_3   0.506456 0.243167 0.621127 -0.534562
O15   O     O_R   0.442100 0.444740 0.334100 -0.650343
O16   O     O_R   0.561930 0.354050 0.543340 -0.615722
O17   O     O_R   0.542600 0.660510 0.471200 -0.640377
O18   O     O_R   0.453390 0.335660 0.446330 -0.613335
O19   O     O_R   0.442080 0.649780 0.539130 -0.638842
O20   O     O_R   0.561920 0.473910 0.663190 -0.651449
O21   O     O_R   0.542610 0.540650 0.351350 -0.570811
Zn1   Zn    Zn3+2 0.425320 0.550450 0.550460 1.002461
Zn2   Zn    Zn3+2 0.580410 0.455020 0.567370 0.982764
Zn3   Zn    Zn3+2 0.568940 0.565780 0.453410 1.020201
Zn4   Zn    Zn3+2 0.425330 0.428750 0.428760 0.977983

loop_
_geom_bond_atom_site_label_1
_geom_bond_atom_site_label_2
_ccdc_geom_bond_type
C43   H17   S    
C48   O14   S    
C43   H16   S    
C27   C29   A    
C4    O19   A    
N3    N4    D    
C15   N2    S    
C27   F2    S    
C7    C8    A    
C16   C31   S    
C15   C19   A    
C12   C23   A    
N1    N2    D    
C40   H7    S    
C20   C26   A    
O5    Zn1   S    
C19   H31   S    
C28   O21   A    
C1    O16   A    
C32   H35   S    
O15   Zn4   S    
C5    C36   S    
C42   H14   S    
C40   H6    S    
C18   C19   A    
C43   O9    S    
C47   H26   S    
O1    Zn1   S    
C44   H20   S    
C30   N4    S    
C52   H4    S    
O18   Zn4   S    
C31   C32   A    
C3    C38   A    
C8    C9    A    
O1    Zn4   S    
O4    Zn3   S    
C47   H27   S    
C35   O2    A    
C9    C10   A    
C51   F3    S    
C30   C33   A    
O3    Zn4   S    
O19   Zn1   S    
C23   O11   S    
C13   C14   A    
C27   C30   A    
C14   C17   A    
C16   O20   A    
C12   O13   S    
C50   C51   A    
C28   O15   A    
C51   C52   A    
O12   Zn1   S    
C4    O17   A    
O2    Zn2   S    
C35   C38   S    
C24   C25   A    
C4    C6    S    
O21   Zn3   S    
C6    C11   A    
C46   H22   S    
C41   H9    S    
C20   C28   S    
C45   C52   A    
C25   C26   A    
C47   O13   S    
C5    C45   A    
C42   H13   S    
C40   H5    S    
C48   H28   S    
C36   O5    A    
O1    Zn2   S    
C44   H19   S    
C2    C49   A    
C21   F4    S    
O17   Zn3   S    
C2    C38   A    
C7    H32   S    
C23   C34   A    
C39   H3    S    
C46   O11   S    
C17   C18   A    
C34   C45   A    
C44   H18   S    
C8    O8    S    
C6    C7    A    
C11   H23   S    
C3    H1    S    
C44   O10   S    
C5    C39   A    
C42   H11   S    
C22   C24   A    
C24   N3    S    
C1    O18   A    
C35   O4    A    
C22   O9    S    
C9    N1    S    
C14   O14   S    
C34   C49   A    
C43   H15   S    
C37   H36   S    
C25   H33   S    
C33   O10   S    
C42   O8    S    
O16   Zn2   S    
C2    H2    S    
C41   H10   S    
C10   H12   S    
C26   H34   S    
C46   H21   S    
C1    C17   S    
O20   Zn2   S    
C32   C33   A    
C12   C39   A    
C13   C15   A    
C29   C31   A    
C46   H24   S    
C37   C50   A    
C29   F1    S    
O1    Zn3   S    
C36   O3    A    
C48   H30   S    
C18   O7    S    
C47   H25   S    
C10   C11   A    
C16   O12   A    
C40   O6    S    
C41   O7    S    
C20   C21   A    
C3    C37   A    
C49   C50   A    
C48   H29   S    
C41   H8    S    
C13   O6    S    
C21   C22   A    
