data_mof_unit_5161.cif
_audit_creation_date              2012-12-10T18:19:05-0500
_audit_creation_method            fapswitch 2.2
_symmetry_space_group_name_H-M    P1
_symmetry_Int_Tables_number       1
_space_group_crystal_system       triclinic
_cell_length_a                    14.925271
_cell_length_b                    14.293973
_cell_length_c                    11.519037
_cell_angle_alpha                 89.987016
_cell_angle_beta                  86.083319
_cell_angle_gamma                 89.981993
_cell_volume                      2451.7479226

loop_
_atom_site_label
_atom_site_type_symbol
_atom_type_description
_atom_site_fract_x
_atom_site_fract_y
_atom_site_fract_z
_atom_type_partial_charge
C1    C     C_R   0.327700 0.500050 0.497293 0.872755
C2    C     C_R   0.441943 0.200791 0.577171 0.198341
C3    C     C_R   0.441967 0.799171 0.577228 0.202577
C4    C     C_R   0.558837 0.200691 0.423957 0.202102
C5    C     C_R   0.438353 0.899384 0.574234 0.018337
C6    C     C_R   0.555899 0.100506 0.418747 0.017761
C7    C     C_R   0.556065 0.899394 0.418900 0.020081
C8    C     C_R   0.438298 0.100558 0.574152 0.017908
C9    C     C_R   0.496610 0.949522 0.495827 0.031904
C10   C     C_R   0.496543 0.050396 0.495754 0.032646
C11   C     C_R   0.377468 0.951344 0.647750 -0.205530
C12   C     C_R   0.672272 0.500113 0.501688 0.883420
C13   C     C_R   0.611076 0.048551 0.338021 -0.208042
C14   C     C_R   0.611165 0.951307 0.338114 -0.205856
C15   C     C_R   0.377434 0.048601 0.647698 -0.206738
C16   C     C_R   0.501124 0.500018 0.282239 0.884206
C17   C     C_R   0.498956 0.500005 0.717745 0.890024
C18   C     C_1   0.501608 0.500052 0.161576 -0.192764
C19   C     C_1   0.499568 0.500046 0.838289 -0.196020
C20   C     C_1   0.501395 0.500090 0.059253 -0.016213
C21   C     C_1   0.500458 0.500096 0.940525 -0.017278
C22   C     C_R   0.816210 0.480706 0.401953 -0.332081
C23   C     C_R   0.909420 0.482312 0.395484 0.066083
C24   C     C_R   0.183449 0.532096 0.589971 -0.327164
C25   C     C_R   0.767394 0.501033 0.505133 -0.061093
C26   C     C_R   0.232570 0.500743 0.491459 -0.064560
C27   C     C_R   0.808083 0.526499 0.606702 0.112487
C28   C     C_R   0.192253 0.475732 0.389180 0.123274
C29   C     C_R   0.902461 0.534020 0.600609 0.046632
C30   C     C_R   0.097662 0.480324 0.390213 0.052694
C31   C     C_R   0.953017 0.508973 0.496125 0.007929
C32   C     C_R   0.047035 0.509162 0.493063 0.004039
C33   C     C_3   0.750900 0.538740 0.720976 -0.416157
C34   C     C_R   0.090481 0.537422 0.593126 0.068105
C35   C     C_3   0.726633 0.641155 0.744987 -0.848975
C36   C     C_3   0.250286 0.447472 0.280135 -0.430159
C37   C     C_3   0.262016 0.529010 0.194618 -0.868578
C38   C     C_3   0.088021 0.607936 0.798242 -0.405094
C39   C     C_3   0.028513 0.653951 0.895706 -0.905511
C40   C     C_3   0.911959 0.433188 0.180951 -0.406027
C41   C     C_3   0.971887 0.407327 0.072462 -0.906716
C42   C     C_3   0.631234 0.748316 0.348907 -0.360881
C43   C     C_3   0.724255 0.759906 0.395673 -0.859645
C44   C     C_3   0.384544 0.251819 0.671154 -0.356302
C45   C     C_R   0.947058 0.566226 0.696316 -0.230220
C46   C     C_3   0.422802 0.241973 0.790620 -0.865094
C47   C     C_3   0.384534 0.748091 0.671171 -0.360459
C48   C     C_3   0.422880 0.757677 0.790601 -0.868012
C49   C     C_3   0.631618 0.251372 0.349635 -0.361354
C50   C     C_3   0.724035 0.238829 0.397842 -0.863692
C51   C     C_R   0.052837 0.456696 0.290906 -0.227932
C52   C     C_R   0.040593 0.570131 0.694096 0.163648
C53   C     C_R   0.959341 0.457950 0.290860 0.160878
C54   C     C_R   0.558974 0.799228 0.424050 0.196277
H1    H     H_    0.779402 0.463074 0.327163 0.133900
H2    H     H_    0.787473 0.685885 0.742052 0.249205
H3    H     H_    0.681200 0.667483 0.680148 0.283178
H4    H     H_    0.687989 0.497590 0.720670 0.198426
H5    H     H_    0.785189 0.508646 0.794934 0.193835
H6    H     H_    0.196242 0.556515 0.170704 0.258691
H7    H     H_    0.299831 0.586478 0.233970 0.270625
H8    H     H_    0.300365 0.505203 0.114053 0.252638
H9    H     H_    0.318009 0.423893 0.300333 0.228352
H10   H     H_    0.222250 0.385276 0.237928 0.194653
H11   H     H_    0.990046 0.712988 0.860833 0.263460
H12   H     H_    0.219773 0.550928 0.664783 0.129501
H13   H     H_    0.981780 0.602280 0.938754 0.260026
H14   H     H_    0.071453 0.682032 0.962608 0.255865
H15   H     H_    0.125476 0.549829 0.837020 0.204075
H16   H     H_    0.137140 0.662131 0.766288 0.208459
H17   H     H_    0.018061 0.465683 0.046629 0.263038
H18   H     H_    0.010964 0.342972 0.088328 0.260659
H19   H     H_    0.929243 0.393361 0.999055 0.254982
H20   H     H_    0.866800 0.372630 0.200406 0.204255
H21   H     H_    0.870256 0.493927 0.157605 0.205435
H22   H     H_    0.723196 0.736925 0.487744 0.278664
H23   H     H_    0.908795 0.589259 0.773313 0.182705
H24   H     H_    0.773780 0.716347 0.343546 0.247738
H25   H     H_    0.747221 0.833600 0.390791 0.250298
H26   H     H_    0.618805 0.673960 0.342474 0.266456
H27   H     H_    0.631711 0.771408 0.256963 0.163167
H28   H     H_    0.493676 0.265994 0.786896 0.279518
H29   H     H_    0.382909 0.285463 0.855181 0.243996
H30   H     H_    0.420541 0.168492 0.821386 0.250340
H31   H     H_    0.378111 0.325876 0.653713 0.266942
H32   H     H_    0.313838 0.227671 0.673995 0.162565
H33   H     H_    0.420560 0.831102 0.821540 0.251260
H34   H     H_    0.090718 0.437085 0.212262 0.182045
H35   H     H_    0.383048 0.714050 0.855076 0.244795
H36   H     H_    0.493793 0.733684 0.786740 0.279273
H37   H     H_    0.313823 0.772306 0.674134 0.160999
H38   H     H_    0.378007 0.674075 0.653628 0.264238
H39   H     H_    0.745153 0.164490 0.396885 0.252288
H40   H     H_    0.774899 0.279186 0.343972 0.238915
H41   H     H_    0.723074 0.264644 0.488807 0.282274
H42   H     H_    0.632684 0.228315 0.257659 0.161868
H43   H     H_    0.619482 0.325840 0.342871 0.264932
H44   H     H_    0.328425 0.918650 0.707718 0.154161
H45   H     H_    0.656079 0.081271 0.272978 0.154511
H46   H     H_    0.656122 0.918546 0.273048 0.153919
H47   H     H_    0.328358 0.081295 0.707626 0.153897
H48   H     H_    0.691212 0.647264 0.832610 0.246167
N1    N     N_R   0.500000 0.750030 0.500000 -0.143779
N2    N     N_R   0.500000 0.249970 0.500000 -0.141010
O1    O     O_R   0.367850 0.580280 0.500030 -0.631808
O2    O     O_R   0.632150 0.419720 0.499970 -0.628695
O3    O     O_R   0.632150 0.580280 0.499970 -0.623325
O4    O     O_R   0.367850 0.419720 0.500030 -0.652128
O5    O     O_R   0.500010 0.580270 0.334450 -0.631825
O6    O     O_R   0.499990 0.419730 0.665550 -0.619772
O7    O     O_R   0.499990 0.580270 0.665550 -0.618466
O8    O     O_R   0.500010 0.419730 0.334450 -0.640861
Zn1   Zn    Zn3+2 0.500000 0.607200 0.500000 0.912031
Zn2   Zn    Zn3+2 0.500000 0.392800 0.500000 0.908494

loop_
_geom_bond_atom_site_label_1
_geom_bond_atom_site_label_2
_ccdc_geom_bond_type
C30   C32   A    
C30   C51   A    
C38   H16   S    
C42   H26   S    
C33   H4    S    
C27   C29   A    
C39   H14   S    
C35   H48   S    
C17   O6    A    
O8    Zn2   S    
C37   H8    S    
C27   C33   S    
C43   H24   S    
O2    Zn2   S    
C11   H44   S    
O1    Zn1   S    
C36   C37   S    
C19   C21   T    
C24   C26   A    
C5    C11   A    
C38   C39   S    
C50   H41   S    
C38   C52   S    
C43   H25   S    
C47   H38   S    
O4    Zn2   S    
O3    Zn1   S    
C34   C52   A    
C33   C35   S    
C46   H28   S    
C11   C15   A    
C7    C14   A    
C47   C48   S    
C2    C44   S    
C22   C25   A    
C36   H9    S    
C9    C10   A    
O6    Zn2   S    
C24   H12   S    
C41   H17   S    
C38   H15   S    
C33   H5    S    
C48   H36   S    
C13   C14   A    
C39   H11   S    
C42   H27   S    
C39   H13   S    
C44   H32   S    
C17   O7    A    
C44   C46   S    
C16   O5    A    
C23   C53   A    
C54   N1    A    
C4    C6    A    
C50   H40   S    
C45   C52   A    
C41   H19   S    
C24   C34   A    
C29   C45   A    
C51   C53   A    
C32   C34   A    
C13   H45   S    
C5    C9    A    
C31   C32   A    
C2    N2    A    
C48   H33   S    
O7    Zn1   S    
C15   H47   S    
C41   H18   S    
N2    Zn2   S    
C16   C18   S    
C40   C41   S    
C49   C50   S    
C8    C15   A    
C48   H35   S    
C1    C26   S    
C46   H30   S    
C42   C43   S    
C44   H31   S    
C16   O8    A    
C3    N1    A    
C43   H22   S    
C7    C9    A    
N1    Zn1   S    
C35   H2    S    
C47   H37   S    
C2    C8    A    
C3    C5    A    
C51   H34   S    
C6    C10   A    
C12   O3    A    
C37   H7    S    
C50   H39   S    
C14   H46   S    
C22   H1    S    
O5    Zn1   S    
C25   C27   A    
C4    C49   S    
C26   C28   A    
C40   H21   S    
C12   C25   S    
C35   H3    S    
C28   C30   A    
C29   C31   A    
C42   C54   S    
C6    C13   A    
C12   O2    A    
C4    N2    A    
C3    C47   S    
C17   C19   S    
C40   H20   S    
C18   C20   T    
C49   H42   S    
C37   H6    S    
C1    O4    A    
C49   H43   S    
C46   H29   S    
C20   C21   S    
C28   C36   S    
C8    C10   A    
C40   C53   S    
C1    O1    A    
C22   C23   A    
C45   H23   S    
C7    C54   A    
C36   H10   S    
C23   C31   A    
