data_mof_unit_13004.cif
_audit_creation_date              2012-12-10T17:32:17-0500
_audit_creation_method            fapswitch 2.2
_symmetry_space_group_name_H-M    P1
_symmetry_Int_Tables_number       1
_space_group_crystal_system       triclinic
_cell_length_a                    12.500461
_cell_length_b                    13.045196
_cell_length_c                    15.020657
_cell_angle_alpha                 74.327229
_cell_angle_beta                  101.488971
_cell_angle_gamma                 117.26484
_cell_volume                      2088.18912302

loop_
_atom_site_label
_atom_site_type_symbol
_atom_type_description
_atom_site_fract_x
_atom_site_fract_y
_atom_site_fract_z
_atom_type_partial_charge
C1    C     C_R   0.855587 0.285129 0.508487 0.916113
C2    C     C_R   0.036993 0.597761 0.074748 0.035111
C3    C     C_R   0.939697 0.276035 0.088118 0.523756
C4    C     C_R   0.944799 0.279327 0.994570 -0.295599
C5    C     C_R   0.977728 0.384875 0.928458 -0.046128
C6    C     C_R   0.006470 0.490347 0.955637 0.047580
C7    C     C_R   0.035397 0.596692 0.888629 0.143088
C8    C     C_R   0.073776 0.703058 0.915874 -0.201865
C9    C     C_R   0.077920 0.703985 0.008506 -0.167957
C10   C     C_R   0.980099 0.386477 0.834846 0.452608
C11   C     C_R   0.998971 0.491472 0.768360 -0.128811
C12   C     C_R   0.998682 0.496334 0.671061 0.851662
C13   C     C_R   0.026411 0.595460 0.795195 -0.313030
C14   C     C_R   0.292383 0.030271 0.357833 0.487172
C15   C     C_R   0.228950 0.842439 0.467733 -0.266370
C16   C     C_R   0.811416 0.071514 0.568869 0.249253
C17   C     C_R   0.726047 0.951951 0.586246 0.333695
C18   C     C_R   0.606747 0.921536 0.549348 -0.237535
C19   C     C_R   0.567679 0.007038 0.495951 -0.048565
C20   C     C_R   0.656710 0.122103 0.465323 -0.018193
C21   C     C_R   0.443437 0.979571 0.467205 -0.055229
C22   C     C_R   0.413713 0.058073 0.392320 -0.112843
C23   C     C_R   0.144944 0.715460 0.486844 0.896080
C24   C     C_R   0.505523 0.162961 0.351437 -0.258961
C25   C     C_R   0.626467 0.195233 0.386039 0.445361
C26   C     C_R   0.347366 0.876492 0.510024 0.306362
C27   C     C_R   0.199935 0.925297 0.397908 0.255977
C28   C     C_R   0.774775 0.158018 0.512139 -0.165627
C29   C     C_R   0.345906 0.333050 0.659212 -0.287311
C30   C     C_R   0.767858 0.659878 0.380967 0.487236
C31   C     C_R   0.683763 0.708143 0.366394 0.317067
C32   C     C_R   0.580767 0.648968 0.414609 -0.261882
C33   C     C_R   0.558071 0.541825 0.477897 -0.133314
C34   C     C_R   0.998290 0.497918 0.329365 0.958488
C35   C     C_R   0.652816 0.502986 0.500236 0.141803
C36   C     C_R   0.448175 0.477700 0.524985 -0.074881
C37   C     C_R   0.444422 0.390532 0.605169 0.058347
C38   C     C_R   0.538140 0.358666 0.631533 -0.306051
C39   C     C_R   0.637611 0.407386 0.579711 0.461012
C40   C     C_R   0.339377 0.493424 0.496254 0.645232
C41   C     C_R   0.248305 0.360195 0.632801 0.019960
C42   C     C_R   0.024230 0.597796 0.165273 0.350633
C43   C     C_R   0.995719 0.493428 0.232973 -0.276202
C44   C     C_R   0.969011 0.385719 0.209899 0.387138
C45   C     C_R   0.970774 0.382625 0.116434 -0.093764
C46   C     C_R   0.005804 0.490072 0.049364 -0.115139
Cu1   Cu    Cu3+1 0.098270 0.475420 0.521130 1.035633
Cu2   Cu    Cu3+1 0.901730 0.524580 0.478870 1.041470
H1    H     H_    0.483690 0.220635 0.291609 0.172593
H2    H     H_    0.545734 0.828890 0.561689 0.231563
H3    H     H_    0.172604 0.317678 0.674875 0.192833
H4    H     H_    0.533017 0.291466 0.693934 0.139092
H5    H     H_    0.344545 0.267469 0.721856 0.155927
H6    H     H_    0.521018 0.691018 0.403127 0.228060
H7    H     H_    0.917463 0.197754 0.972645 0.188896
H8    H     H_    0.045447 0.676426 0.743292 0.156708
H9    H     H_    0.100337 0.785618 0.865482 0.141831
H10   H     H_    0.109570 0.788298 0.027464 0.173700
N1    N     N_R   0.246280 0.438190 0.553160 -0.228918
N2    N     N_R   0.754320 0.561190 0.447410 -0.221998
O1    O     O_R   0.972510 0.318130 0.526570 -0.555431
O2    O     O_R   0.806530 0.359650 0.490890 -0.516047
O3    O     O_R   0.082980 0.479210 0.647590 -0.567873
O4    O     O_R   0.917000 0.520730 0.611900 -0.538100
O5    O     O_R   0.193470 0.640350 0.509110 -0.512819
O6    O     O_R   0.027490 0.681870 0.473430 -0.555363
O7    O     O_R   0.083000 0.479270 0.388100 -0.581693
O8    O     O_R   0.917020 0.520790 0.352410 -0.515504
O9    O     O_3   0.042266 0.700521 0.188794 -0.571131
C47   C     C_3   0.939630 0.722882 0.153360 -0.237408
H11   H     H_    0.957816 0.809512 0.165880 0.184715
H12   H     H_    0.858257 0.653162 0.187654 0.201394
H13   H     H_    0.919122 0.729313 0.077213 0.129417
O10   O     O_3   0.263147 0.108377 0.286445 -0.576335
C48   C     C_3   0.250322 0.073999 0.202094 -0.308767
H14   H     H_    0.331071 0.064343 0.192324 0.160444
H15   H     H_    0.241203 0.143672 0.143900 0.169058
H16   H     H_    0.167530 0.990757 0.197631 0.210308
O11   O     O_3   0.362974 0.811912 0.596870 -0.723830
H17   H     H_    0.423263 0.868002 0.635140 0.326415
O12   O     O_3   0.930106 0.105559 0.605695 -0.735920
H18   H     H_    0.954522 0.042756 0.607262 0.321658
O13   O     O_3   0.753458 0.862748 0.642584 -0.732504
H19   H     H_    0.821869 0.896156 0.688305 0.329545
O14   O     O_3   0.716723 0.291099 0.337513 -0.704309
H20   H     H_    0.680493 0.331560 0.283484 0.314721
O15   O     O_3   0.924724 0.282419 0.276240 -0.523099
C49   C     C_3   0.018515 0.248918 0.319094 -0.198560
H21   H     H_    0.090557 0.275675 0.272932 0.139176
H22   H     H_    0.978879 0.151507 0.340506 0.186735
H23   H     H_    0.058163 0.283257 0.383531 0.178597
O16   O     O_3   0.321066 0.557015 0.409426 -0.573675
C50   C     C_3   0.307858 0.494966 0.340656 -0.295032
H24   H     H_    0.265464 0.397466 0.364672 0.127572
H25   H     H_    0.395978 0.521866 0.315061 0.174043
H26   H     H_    0.249837 0.517908 0.280215 0.189734
O17   O     O_3   0.869502 0.714938 0.333647 -0.684593
H27   H     H_    0.871633 0.788988 0.292361 0.342575
O18   O     O_3   0.699226 0.810552 0.301009 -0.593994
C51   C     C_3   0.738021 0.904072 0.347370 -0.275168
H28   H     H_    0.757240 0.987098 0.294824 0.240926
H29   H     H_    0.822750 0.914607 0.393142 0.151984
H30   H     H_    0.666332 0.892156 0.387757 0.175237
O19   O     O_3   0.720832 0.363033 0.613090 -0.710523
H31   H     H_    0.684279 0.283856 0.653594 0.278296
O20   O     O_3   0.893614 0.168518 0.150157 -0.542340
C52   C     C_3   0.951836 0.098095 0.148991 -0.314309
H32   H     H_    0.050090 0.150878 0.140494 0.159155
H33   H     H_    0.906796 0.045517 0.094163 0.163192
H34   H     H_    0.943529 0.034762 0.216393 0.217148
O21   O     O_3   0.978607 0.290248 0.811100 -0.583688
C53   C     C_3   0.861137 0.220024 0.776636 -0.314513
H35   H     H_    0.788043 0.220674 0.808380 0.135455
H36   H     H_    0.849219 0.127505 0.792072 0.198823
H37   H     H_    0.851777 0.247928 0.700291 0.185642
O22   O     O_3   0.082863 0.907567 0.367307 -0.702037
H38   H     H_    0.036999 0.874594 0.422891 0.339729

loop_
_geom_bond_atom_site_label_1
_geom_bond_atom_site_label_2
_ccdc_geom_bond_type
C16   C28   A    
O15   C49   S    
C50   H24   S    
C19   C20   A    
C43   C44   A    
C1    O2    A    
C53   H36   S    
O12   H18   S    
C7    C8    A    
C45   C46   A    
C2    C46   A    
C30   O17   S    
C14   O10   S    
C23   O6    A    
O16   C50   S    
C36   C37   A    
C19   C21   A    
C18   C19   A    
Cu1   O3    S    
C30   C31   A    
C12   O4    A    
Cu2   O4    S    
C38   H4    S    
C20   C25   A    
O17   H27   S    
C33   C36   A    
O22   H38   S    
C9    H10   S    
Cu1   O7    S    
C53   H35   S    
C16   O12   S    
C15   C27   A    
Cu1   Cu2   S    
C16   C17   A    
C30   N2    A    
C1    C28   S    
C52   H32   S    
C47   H11   S    
C31   O18   S    
C14   C27   A    
C44   O15   S    
C39   O19   S    
C13   H8    S    
C27   O22   S    
C15   C23   S    
C50   H25   S    
C40   N1    A    
C21   C22   A    
C52   H33   S    
C32   H6    S    
O19   H31   S    
C21   C26   A    
Cu2   N2    S    
C3    O20   S    
C38   C39   A    
O10   C48   S    
C36   C40   A    
C24   C25   A    
C41   N1    A    
C34   O8    A    
C12   O3    A    
C8    C9    A    
C15   C26   A    
C20   C28   A    
O14   H20   S    
C3    C45   A    
C51   H30   S    
C40   O16   S    
C35   N2    A    
C17   O13   S    
C35   C39   A    
C48   H14   S    
C37   C38   A    
C8    H9    S    
Cu2   O2    S    
O13   H19   S    
C49   H23   S    
C47   H13   S    
C25   O14   S    
C17   C18   A    
C10   O21   S    
Cu2   O8    S    
C48   H15   S    
C49   H22   S    
C50   H26   S    
C4    H7    S    
C52   H34   S    
C22   C24   A    
C42   C43   A    
C3    C4    A    
C44   C45   A    
C18   H2    S    
C51   H29   S    
C24   H1    S    
C6    C46   A    
O21   C53   S    
C29   C41   A    
C31   C32   A    
C34   C43   S    
C4    C5    A    
C1    O1    A    
C34   O7    A    
Cu1   O1    S    
C11   C12   S    
C6    C7    A    
C26   O11   S    
O18   C51   S    
C32   C33   A    
C23   O5    A    
C5    C10   A    
C11   C13   A    
C14   C22   A    
C5    C6    A    
C29   H5    S    
C2    C42   A    
C51   H28   S    
C33   C35   A    
C41   H3    S    
C42   O9    S    
O9    C47   S    
C48   H16   S    
C10   C11   A    
Cu1   N1    S    
O11   H17   S    
C7    C13   A    
C49   H21   S    
O20   C52   S    
C29   C37   A    
C47   H12   S    
Cu2   O6    S    
C2    C9    A    
Cu1   O5    S    
C53   H37   S    
