data_mof_unit_16864.cif
_audit_creation_date              2012-12-11T17:34:23-0500
_audit_creation_method            fapswitch 2.2
_symmetry_space_group_name_H-M    P1
_symmetry_Int_Tables_number       1
_space_group_crystal_system       triclinic
_cell_length_a                    23.74749
_cell_length_b                    7.229005
_cell_length_c                    20.610079
_cell_angle_alpha                 89.939893
_cell_angle_beta                  105.49807
_cell_angle_gamma                 90.011898
_cell_volume                      3409.49633526

loop_
_atom_site_label
_atom_site_type_symbol
_atom_type_description
_atom_site_fract_x
_atom_site_fract_y
_atom_site_fract_z
_atom_type_partial_charge
O1    O     O_R   0.449110 0.494310 0.552140 -0.538279
O2    O     O_R   0.550890 0.994310 0.447860 -0.528005
O3    O     O_R   0.440010 0.824420 0.415850 -0.530954
O4    O     O_R   0.559990 0.324420 0.584150 -0.532670
C1    C     C_R   0.425428 0.655730 0.390801 0.770248
C2    C     C_R   0.574596 0.155492 0.609205 0.768216
O5    O     O_R   0.442260 0.824040 0.549660 -0.533248
O6    O     O_R   0.557740 0.324040 0.450340 -0.539738
O7    O     O_R   0.553160 0.993960 0.582620 -0.527598
O8    O     O_R   0.446840 0.493960 0.417380 -0.529690
C3    C     C_R   0.428792 0.655440 0.567655 0.735570
C4    C     C_R   0.571263 0.155586 0.432482 0.735853
O9    O     O_3   0.536380 0.660670 0.510660 -0.378361
O10   O     O_3   0.463620 0.160670 0.489340 -0.379557
V1    V     V_3+5 0.493250 0.935680 0.498020 1.515855
V2    V     V_3+5 0.506750 0.435680 0.501980 1.501475
C5    C     C_R   0.835374 0.919692 0.185368 -0.113270
C6    C     C_R   0.163825 0.421080 0.813843 -0.118131
H1    H     H_    0.829094 0.801276 0.214906 0.190661
H2    H     H_    0.170029 0.302863 0.784258 0.189534
C7    C     C_R   0.874679 0.906464 0.145407 -0.130907
C8    C     C_R   0.124832 0.407327 0.854155 -0.127914
H3    H     H_    0.897845 0.777586 0.145071 0.139708
H4    H     H_    0.101769 0.278301 0.854674 0.140140
C9    C     C_R   0.884966 0.059271 0.107740 -0.117612
C10   C     C_R   0.114725 0.559830 0.891948 -0.118121
C11   C     C_R   0.853946 0.224201 0.110069 -0.171986
C12   C     C_R   0.145569 0.725038 0.889358 -0.172737
H5    H     H_    0.860381 0.343594 0.081059 0.166351
H6    H     H_    0.139241 0.844225 0.918441 0.166890
C13   C     C_R   0.813928 0.236853 0.149190 0.444069
C14   C     C_R   0.185265 0.738217 0.849861 0.447542
C15   C     C_R   0.804795 0.084460 0.187704 -0.004203
C16   C     C_R   0.194227 0.586093 0.811266 -0.003053
C17   C     C_1   0.764838 0.096085 0.230116 0.132959
C18   C     C_1   0.234085 0.597931 0.768803 0.134723
C19   C     C_1   0.731622 0.107185 0.265620 0.200546
C20   C     C_1   0.267437 0.608785 0.733489 0.202343
C21   C     C_R   0.689300 0.978789 0.354264 0.402113
C22   C     C_R   0.348252 0.478565 0.692267 0.412522
C23   C     C_R   0.649983 0.990615 0.394258 -0.170888
C24   C     C_R   0.386692 0.489777 0.651278 -0.155334
H7    H     H_    0.648478 0.879010 0.428879 0.163920
H8    H     H_    0.417196 0.377751 0.652599 0.208479
C25   C     C_R   0.613570 0.145818 0.390675 -0.176769
C26   C     C_R   0.386825 0.644829 0.610004 -0.179770
C27   C     C_R   0.617009 0.289081 0.345701 -0.152358
C28   C     C_R   0.346771 0.788215 0.609924 -0.171745
H9    H     H_    0.589012 0.409246 0.341543 0.202481
H10   H     H_    0.345601 0.908582 0.578244 0.165639
C29   C     C_R   0.655114 0.276284 0.304179 0.427302
C30   C     C_R   0.307024 0.776051 0.649517 0.415335
C31   C     C_R   0.691812 0.120948 0.308299 -0.095417
C32   C     C_R   0.307743 0.621293 0.691437 -0.095059
C33   C     C_R   0.637222 0.146300 0.798915 0.409306
C34   C     C_R   0.362633 0.661200 0.201173 0.408059
C35   C     C_R   0.616935 0.147007 0.676624 -0.184077
C36   C     C_R   0.383149 0.648618 0.323368 -0.184690
C37   C     C_R   0.900273 0.018897 0.767670 -0.255488
C38   C     C_R   0.100075 0.514034 0.232106 -0.255343
C39   C     C_R   0.861104 0.018359 0.703752 0.461338
C40   C     C_R   0.139319 0.511647 0.295965 0.460524
C41   C     C_R   0.801592 0.047985 0.696453 -0.209725
C42   C     C_R   0.198757 0.542671 0.303270 -0.209200
C43   C     C_R   0.779768 0.087169 0.752596 0.056363
C44   C     C_R   0.220446 0.585498 0.247267 0.056603
C45   C     C_R   0.820598 0.090303 0.817488 0.000029
C46   C     C_R   0.179477 0.591228 0.182491 -0.000201
C47   C     C_R   0.718657 0.117702 0.746330 0.019756
C48   C     C_R   0.281488 0.618252 0.253574 0.020120
C49   C     C_R   0.698796 0.139825 0.805713 -0.133595
C50   C     C_R   0.301100 0.647933 0.194325 -0.132663
C51   C     C_R   0.741467 0.154154 0.869058 0.444458
C52   C     C_R   0.258215 0.663257 0.131113 0.444331
C53   C     C_R   0.800507 0.127459 0.873924 -0.218006
C54   C     C_R   0.199334 0.632785 0.126220 -0.217977
C55   C     C_R   0.676714 0.127427 0.682519 -0.254343
C56   C     C_R   0.323582 0.623221 0.317359 -0.254916
C57   C     C_R   0.597208 0.152145 0.734710 0.309773
C58   C     C_R   0.402675 0.664878 0.265393 0.308549
C59   C     C_R   0.881058 0.055680 0.824725 -0.113036
C60   C     C_R   0.119095 0.554699 0.175192 -0.112927
H11   H     H_    0.689046 0.123331 0.635914 0.120835
H12   H     H_    0.311563 0.611508 0.363992 0.120165
H13   H     H_    0.946010 0.989395 0.772757 0.120075
H14   H     H_    0.054422 0.482967 0.226945 0.119353
H15   H     H_    0.773761 0.035995 0.646000 0.134479
H16   H     H_    0.226562 0.529594 0.353684 0.133275
H17   H     H_    0.831168 0.137687 0.923259 0.137681
H18   H     H_    0.168551 0.644106 0.076992 0.138417
O11   O     O_R   0.053190 0.709680 0.082610 -0.535547
O12   O     O_R   0.946810 0.209680 0.917390 -0.535509
O13   O     O_R   0.057740 0.380240 0.950340 -0.535247
O14   O     O_R   0.942260 0.880240 0.049660 -0.535247
C61   C     C_R   0.071581 0.549003 0.932817 0.699693
C62   C     C_R   0.928354 0.048873 0.067129 0.699178
O15   O     O_R   0.060000 0.379940 0.084150 -0.529879
O16   O     O_R   0.940000 0.879940 0.915850 -0.529957
O17   O     O_R   0.949110 0.210100 0.052140 -0.540744
O18   O     O_R   0.050890 0.710100 0.947860 -0.540823
C63   C     C_R   0.074869 0.548273 0.109011 0.698667
C64   C     C_R   0.925213 0.048431 0.890936 0.698782
O19   O     O_3   0.963630 0.543720 0.989330 -0.371418
O20   O     O_3   0.036370 0.043720 0.010670 -0.371287
V3    V     V_3+5 0.006750 0.268680 0.001980 1.446135
V4    V     V_3+5 0.993250 0.768680 0.998020 1.445774
Cl1   Cl    Cl    0.727337 0.225246 0.945149 -0.458628
Cl2   Cl    Cl    0.271660 0.738800 0.055114 -0.460742
Cl3   Cl    Cl    0.606547 0.125324 0.868004 -0.309990
Cl4   Cl    Cl    0.393542 0.653751 0.131989 -0.312217
O21   O     O_3   0.880118 0.974487 0.647930 -0.547838
C65   C     C_3   0.904571 0.134513 0.627081 0.085912
H19   H     H_    0.944154 0.179976 0.666398 0.118327
H20   H     H_    0.872160 0.249692 0.615761 0.130258
C66   C     C_3   0.922578 0.091236 0.563241 -0.641487
H21   H     H_    0.883843 0.047590 0.522677 0.237800
H22   H     H_    0.941918 0.216245 0.546349 0.177437
H23   H     H_    0.955501 0.978322 0.573005 0.222770
O22   O     O_3   0.120513 0.464730 0.351695 -0.549077
C67   C     C_3   0.094815 0.622104 0.372545 0.084621
H24   H     H_    0.054780 0.664853 0.333320 0.118092
H25   H     H_    0.126263 0.739939 0.383678 0.131212
C68   C     C_3   0.077371 0.575889 0.436537 -0.642125
H26   H     H_    0.116554 0.535152 0.477047 0.233880
H27   H     H_    0.056988 0.698686 0.453370 0.179858
H28   H     H_    0.045464 0.460099 0.427003 0.221385
Cl5   Cl    Cl    0.775812 0.445842 0.148773 -0.518934
Cl6   Cl    Cl    0.223244 0.947402 0.849926 -0.518014
Cl7   Cl    Cl    0.735263 0.783930 0.363415 -0.598729
Cl8   Cl    Cl    0.352592 0.284042 0.744914 -0.413821
Cl9   Cl    Cl    0.654996 0.456162 0.246455 -0.399977
Cl10  Cl    Cl    0.256263 0.956433 0.644865 -0.583993
Cl11  Cl    Cl    0.521093 0.163274 0.726544 -0.511815
Cl12  Cl    Cl    0.478632 0.688234 0.273788 -0.511137

loop_
_geom_bond_atom_site_label_1
_geom_bond_atom_site_label_2
_ccdc_geom_bond_type
C44   C46   A    
C41   C43   A    
C66   H22   S    
C11   H5    S    
C51   C53   A    
C35   C57   A    
C47   C55   A    
O21   C65   S    
O1    C3    A    
C13   Cl5   S    
O2    C4    A    
C2    O7    A    
C65   H20   S    
C68   H26   S    
C27   H9    S    
C44   C48   A    
O5    C3    A    
C52   C54   A    
C1    C36   S    
C17   C19   T    
C28   H10   S    
C68   H27   S    
C48   C56   A    
C55   H11   S    
C66   H21   S    
C62   O17   A    
C58   Cl12  S    
C38   C40   A    
C24   C26   A    
C47   C49   A    
C65   H19   S    
C40   C42   A    
O13   V3    S    
C38   C60   A    
C67   H25   S    
C34   C50   A    
C13   C15   A    
C16   C18   S    
C67   C68   S    
C36   C58   A    
O15   V3    S    
O5    V1    S    
O6    V2    S    
C33   Cl3   S    
C23   H7    S    
C2    C35   S    
C24   H8    S    
O11   C63   A    
C57   Cl11  S    
C34   Cl4   S    
O20   V3    S    
C30   C32   A    
C59   C64   S    
C25   C27   A    
O17   V3    S    
C26   C28   A    
C37   C39   A    
C11   C13   A    
C30   Cl10  S    
C35   C55   A    
C12   C14   A    
C21   C23   A    
C7    C9    A    
C49   C51   A    
C29   Cl9   S    
C61   O18   A    
C5    H1    S    
C68   H28   S    
C27   C29   A    
C21   Cl7   S    
C43   C45   A    
C14   C16   A    
O16   C64   A    
C5    C7    A    
C29   C31   A    
C42   C44   A    
O4    V2    S    
C37   H13   S    
C33   C57   A    
C20   C32   S    
C28   C30   A    
O6    C4    A    
C66   H23   S    
C39   C41   A    
C5    C15   A    
O1    V2    S    
O14   C62   A    
O2    V1    S    
C6    C16   A    
C40   O22   S    
C50   C52   A    
C45   C59   A    
C22   C32   A    
C7    H3    S    
C8    H4    S    
O9    V2    S    
O4    C2    A    
C46   C54   A    
C18   C20   T    
C39   O21   S    
O3    V1    S    
C67   H24   S    
C10   C61   S    
C22   Cl8   S    
O14   V4    S    
C38   H14   S    
C41   H15   S    
C6    C8    A    
C10   C12   A    
C37   C59   A    
C4    C25   S    
O3    C1    A    
O16   V4    S    
O22   C67   S    
O12   C64   A    
C9    C11   A    
O18   V4    S    
C34   C58   A    
C46   C60   A    
C14   Cl6   S    
O11   V4    S    
O7    V1    S    
C19   C31   S    
C12   H6    S    
O8    V2    S    
C21   C31   A    
C43   C47   A    
C22   C24   A    
C15   C17   S    
C60   C63   S    
O19   V4    S    
C6    H2    S    
C33   C49   A    
C51   Cl1   S    
C36   C56   A    
C52   Cl2   S    
C56   H12   S    
O12   V3    S    
C1    O8    A    
C45   C53   A    
C9    C62   S    
O13   C61   A    
C8    C10   A    
C53   H17   S    
C23   C25   A    
O10   V1    S    
C3    C26   S    
C48   C50   A    
C42   H16   S    
C65   C66   S    
O15   C63   A    
C54   H18   S    
