data_mof_unit_63965.cif
_audit_creation_date              2012-12-10T18:46:42-0500
_audit_creation_method            fapswitch 2.2
_symmetry_space_group_name_H-M    P1
_symmetry_Int_Tables_number       1
_space_group_crystal_system       triclinic
_cell_length_a                    18.13469
_cell_length_b                    18.133009
_cell_length_c                    51.396551
_cell_angle_alpha                 89.999623
_cell_angle_beta                  90.000295
_cell_angle_gamma                 90.03506
_cell_volume                      16901.058623

loop_
_atom_site_label
_atom_site_type_symbol
_atom_type_description
_atom_site_fract_x
_atom_site_fract_y
_atom_site_fract_z
_atom_type_partial_charge
C1    C     C_R   0.999999 0.500000 0.820639 0.816354
C2    C     C_R   0.389700 0.925370 0.013369 -0.135890
C3    C     C_3   0.260187 0.295474 0.729300 -0.248604
C4    C     C_3   0.301484 0.733879 0.268260 -0.253842
C5    C     C_3   0.698477 0.266166 0.731763 -0.252371
C6    C     C_3   0.261337 0.296754 0.270195 -0.148579
C7    C     C_3   0.739800 0.704514 0.729304 -0.248014
C8    C     C_3   0.220114 0.815312 0.744863 -0.055695
C9    C     C_3   0.779911 0.184657 0.255147 -0.047140
C10   C     C_3   0.183270 0.218264 0.747958 -0.050738
C11   C     C_3   0.815587 0.780683 0.251657 -0.055882
C12   C     C_3   0.779884 0.184690 0.744861 -0.055721
C13   C     C_R   0.921985 0.390883 0.986000 -0.130080
C14   C     C_3   0.220089 0.815343 0.255146 -0.047133
C15   C     C_3   0.816731 0.781733 0.747949 -0.050831
C16   C     C_3   0.184405 0.219300 0.251600 -0.055768
C17   C     C_3   0.720112 0.315311 0.244870 -0.055410
C18   C     C_3   0.279903 0.684661 0.755152 -0.047028
C19   C     C_3   0.683277 0.718288 0.247879 -0.050069
C20   C     C_3   0.315595 0.280705 0.751577 -0.055742
C21   C     C_3   0.279888 0.684688 0.244871 -0.055429
C22   C     C_3   0.720097 0.315338 0.755154 -0.047035
C23   C     C_3   0.316727 0.281727 0.247935 -0.050097
C24   C     C_R   0.079119 0.608332 0.013133 -0.131786
C25   C     C_3   0.684407 0.719298 0.751583 -0.055659
C26   C     C_3   0.301948 0.800910 0.750372 -0.025366
C27   C     C_3   0.698075 0.199063 0.249643 -0.025299
C28   C     C_3   0.198533 0.301257 0.750017 -0.080310
C29   C     C_3   0.800491 0.697636 0.249545 -0.041892
C30   C     C_3   0.698051 0.199090 0.750372 -0.025928
C31   C     C_3   0.301925 0.800937 0.249643 -0.025299
C32   C     C_3   0.801467 0.698742 0.750016 -0.079919
C33   C     C_3   0.199503 0.302359 0.249546 -0.041880
C34   C     C_3   0.801950 0.300909 0.250372 -0.025657
C35   C     C_R   0.389769 0.925743 0.986221 -0.131409
C36   C     C_3   0.198071 0.699066 0.749641 -0.025449
C37   C     C_3   0.698539 0.801264 0.250018 -0.079876
C38   C     C_3   0.300499 0.197641 0.749546 -0.042294
C39   C     C_3   0.198050 0.699091 0.250372 -0.025664
C40   C     C_3   0.801928 0.300934 0.749642 -0.025535
C41   C     C_3   0.301463 0.198739 0.250017 -0.079925
C42   C     C_3   0.699504 0.802361 0.749545 -0.042305
C43   C     C_3   0.281250 0.751479 0.773528 -0.028387
C44   C     C_3   0.718758 0.248505 0.226489 -0.027286
C45   C     C_3   0.254086 0.287112 0.771971 -0.044252
C46   C     C_R   0.611473 0.076278 0.013695 -0.133670
C47   C     C_3   0.744962 0.711729 0.227521 -0.030579
C48   C     C_3   0.718754 0.248517 0.773529 -0.030794
C49   C     C_3   0.281243 0.751494 0.226490 -0.027193
C50   C     C_3   0.745929 0.712902 0.771973 -0.047194
C51   C     C_3   0.255134 0.288375 0.227546 -0.030661
C52   C     C_3   0.781268 0.251466 0.273527 -0.031355
C53   C     C_3   0.218770 0.748496 0.726486 -0.027136
C54   C     C_3   0.753946 0.786965 0.272006 -0.048161
C55   C     C_3   0.244824 0.211581 0.727555 -0.030960
C56   C     C_3   0.218731 0.748534 0.273527 -0.031345
C57   C     C_R   0.078102 0.609067 0.985998 -0.130667
C58   C     C_3   0.781225 0.251509 0.726486 -0.027263
C59   C     C_3   0.245953 0.212927 0.271981 -0.048159
C60   C     C_3   0.755163 0.788406 0.727551 -0.030756
C61   C     C_R   0.446085 0.964876 0.945159 0.540504
C62   C     C_R   0.554995 0.037407 0.054756 0.627698
C63   C     C_R   0.037216 0.554473 0.944891 0.623733
C64   C     C_R   0.959996 0.447554 0.054242 0.621244
C65   C     C_R   0.554968 0.039324 0.945324 0.573469
C66   C     C_R   0.445888 0.963245 0.054598 0.628086
C67   C     C_R   0.962844 0.445492 0.944891 0.622661
C68   C     C_R   0.920983 0.391609 0.013135 -0.131415
C69   C     C_R   0.040117 0.552382 0.054242 0.621147
C70   C     C_R   0.947585 0.459989 0.445153 0.486024
C71   C     C_R   0.052766 0.539584 0.554603 0.628595
C72   C     C_R   0.537071 0.054552 0.444892 0.622928
C73   C     C_R   0.459982 0.947537 0.554244 0.621143
C74   C     C_R   0.052415 0.540015 0.445153 0.486011
C75   C     C_R   0.947233 0.460418 0.554603 0.628596
C76   C     C_R   0.462847 0.945470 0.444892 0.622965
C77   C     C_R   0.539952 0.052480 0.554244 0.621133
C78   C     C_R   0.556213 0.039463 0.972613 -0.023034
C79   C     C_R   0.106895 0.581007 0.486302 -0.129623
C80   C     C_R   0.444853 0.962806 0.027306 -0.017761
C81   C     C_R   0.961271 0.444922 0.972159 -0.016375
C82   C     C_R   0.040148 0.554064 0.026974 -0.016034
C83   C     C_R   0.444954 0.963616 0.972447 -0.013177
C84   C     C_R   0.556220 0.038506 0.027469 -0.017937
C85   C     C_R   0.038807 0.555032 0.972158 -0.016175
C86   C     C_R   0.959959 0.445874 0.026975 -0.016325
C87   C     C_R   0.053602 0.540739 0.472446 -0.016756
C88   C     C_R   0.946211 0.459502 0.527310 -0.018171
C89   C     C_R   0.461266 0.944904 0.472160 -0.016124
C90   C     C_R   0.892970 0.419170 0.513452 -0.138812
C91   C     C_R   0.539981 0.054162 0.526976 -0.016114
C92   C     C_R   0.946398 0.459264 0.472446 -0.016760
C93   C     C_R   0.053788 0.540500 0.527310 -0.018170
C94   C     C_R   0.538651 0.055120 0.472159 -0.016118
C95   C     C_R   0.459944 0.945859 0.526976 -0.016118
C96   C     C_R   0.500574 0.001315 0.986228 -0.008650
C97   C     C_R   0.500556 0.000864 0.013691 -0.004162
C98   C     C_R   0.000043 0.499975 0.985845 -0.004017
C99   C     C_R   0.000051 0.499971 0.013289 -0.004026
C100  C     C_R   1.000000 0.500002 0.486146 -0.014095
C101  C     C_R   0.422051 0.890812 0.486001 -0.130545
C102  C     C_R   1.000000 0.500001 0.513612 -0.005999
C103  C     C_R   0.499959 0.000012 0.485846 -0.004079
C104  C     C_R   0.499961 0.000011 0.513290 -0.004098
C105  C     C_1   0.187738 0.887812 0.739276 0.191549
C106  C     C_1   0.812268 0.112150 0.260738 0.176668
C107  C     C_1   0.109856 0.184515 0.745970 0.209713
C108  C     C_1   0.888867 0.814650 0.253797 0.196282
C109  C     C_1   0.812259 0.112191 0.739272 0.192085
C110  C     C_1   0.187732 0.887850 0.260736 0.176668
C111  C     C_1   0.890145 0.815479 0.745953 0.210833
C112  C     C_R   0.000004 0.500000 0.179143 0.836361
C113  C     C_R   0.578877 0.108484 0.513135 -0.132075
C114  C     C_1   0.111120 0.185313 0.253678 0.196470
C115  C     C_1   0.687729 0.387813 0.239290 0.191494
C116  C     C_1   0.312255 0.612155 0.760749 0.175839
C117  C     C_1   0.609868 0.684569 0.245804 0.210022
C118  C     C_1   0.388882 0.314703 0.753629 0.195794
C119  C     C_1   0.312271 0.612187 0.239292 0.191537
C120  C     C_1   0.687747 0.387842 0.760754 0.175825
C121  C     C_1   0.390140 0.315466 0.245922 0.210050
C122  C     C_1   0.611121 0.685303 0.753644 0.194962
C123  C     C_2   0.315092 0.750976 0.800127 0.423685
C124  C     C_R   0.893105 0.418996 0.486302 -0.129619
C125  C     C_2   0.684898 0.249017 0.199893 0.421799
C126  C     C_2   0.259996 0.330739 0.796556 0.444070
C127  C     C_2   0.737125 0.669285 0.202686 0.424233
C128  C     C_2   0.684917 0.249013 0.800129 0.427561
C129  C     C_2   0.315104 0.750981 0.199894 0.421696
C130  C     C_2   0.740032 0.669291 0.796562 0.445845
C131  C     C_2   0.263076 0.330929 0.202738 0.424269
C132  C     C_2   0.815133 0.250951 0.300123 0.428118
C133  C     C_2   0.184928 0.748995 0.699887 0.421630
C134  C     C_2   0.759694 0.830437 0.296630 0.448608
C135  C     C_R   0.107029 0.580833 0.513452 -0.138814
C136  C     C_2   0.236839 0.168980 0.702760 0.424392
C137  C     C_2   0.184865 0.749050 0.300122 0.428124
C138  C     C_2   0.815061 0.251014 0.699886 0.421534
C139  C     C_2   0.240089 0.169339 0.296576 0.448504
C140  C     C_2   0.763133 0.830992 0.702752 0.424456
C141  C     C_2   0.095590 0.397538 0.595122 0.461028
C142  C     C_2   0.920634 0.612827 0.406083 0.483728
C143  C     C_2   0.411500 0.108006 0.594595 0.460564
C144  C     C_2   0.369517 0.050897 0.404342 0.482640
C145  C     C_2   0.904408 0.602463 0.595121 0.461029
C146  C     C_R   0.577866 0.109212 0.486000 -0.130550
C147  C     C_2   0.079366 0.387176 0.406085 0.483712
C148  C     C_2   0.588449 0.892001 0.594588 0.460556
C149  C     C_2   0.630421 0.949112 0.404355 0.482642
C150  C     C_2   0.592439 0.894633 0.095193 0.461406
C151  C     C_2   0.409252 0.108991 0.904469 0.483426
C152  C     C_2   0.911740 0.608116 0.094578 0.460570
C153  C     C_2   0.869635 0.551055 0.904353 0.483499
C154  C     C_2   0.407853 0.105438 0.095170 0.463658
C155  C     C_2   0.590691 0.898365 0.906331 0.476923
C156  C     C_2   0.088360 0.391846 0.094597 0.461201
C157  C     C_R   0.421044 0.891539 0.513136 -0.132072
C158  C     C_2   0.130405 0.448927 0.904344 0.476406
C159  C     C_1   0.090052 0.397322 0.650964 0.191405
C160  C     C_1   0.919861 0.610148 0.348595 0.329709
C161  C     C_1   0.417377 0.109556 0.650162 0.215042
C162  C     C_1   0.369941 0.039774 0.348404 0.165453
C163  C     C_1   0.909947 0.602678 0.650964 0.191398
C164  C     C_1   0.080141 0.389854 0.348596 0.329675
C165  C     C_1   0.582600 0.890443 0.650155 0.215102
C166  C     C_1   0.630044 0.960242 0.348418 0.165547
C167  C     C_1   0.587545 0.895179 0.151060 0.190645
C168  C     C_R   0.046316 0.450264 0.609243 -0.052889
C169  C     C_1   0.414216 0.106985 0.848550 0.190556
C170  C     C_1   0.917603 0.609705 0.150143 0.215310
C171  C     C_1   0.870005 0.539926 0.848416 0.165806
C172  C     C_1   0.412415 0.104709 0.151035 0.190872
C173  C     C_1   0.584374 0.893700 0.849161 0.322681
C174  C     C_1   0.082488 0.390324 0.150163 0.215319
C175  C     C_1   0.130009 0.460081 0.848407 0.162497
C176  C     C_R   0.960728 0.555428 0.390659 -0.010560
C177  C     C_R   0.457967 0.053204 0.608861 -0.051930
C178  C     C_R   0.436225 0.023550 0.390253 -0.051205
C179  C     C_R   0.953682 0.549736 0.609243 -0.052887
C180  C     C_R   0.500001 0.000073 0.820734 0.832256
C181  C     C_R   0.039273 0.444575 0.390660 -0.010555
C182  C     C_R   0.541991 0.946803 0.608858 -0.051941
C183  C     C_R   0.563723 0.976456 0.390260 -0.051209
C184  C     C_R   0.544954 0.948946 0.109314 -0.051938
C185  C     C_R   0.456166 0.053898 0.890486 -0.012960
C186  C     C_R   0.958113 0.553249 0.108852 -0.051839
C187  C     C_R   0.936298 0.523622 0.890258 -0.051046
C188  C     C_R   0.455263 0.051079 0.109302 -0.053744
C189  C     C_R   0.544936 0.951101 0.890865 -0.055292
C190  C     C_R   0.041975 0.446722 0.108861 -0.052300
C191  C     C_R   0.500000 0.999988 0.179258 0.855831
C192  C     C_R   0.063734 0.476363 0.890254 -0.048745
C193  C     C_R   0.045947 0.450608 0.636710 -0.119247
C194  C     C_R   0.960291 0.554694 0.363134 -0.077721
C195  C     C_R   0.459785 0.054223 0.636302 -0.136488
C196  C     C_R   0.436048 0.021136 0.362836 -0.124474
C197  C     C_R   0.954052 0.549392 0.636710 -0.119240
C198  C     C_R   0.039710 0.445308 0.363134 -0.077722
C199  C     C_R   0.540188 0.945780 0.636299 -0.136505
C200  C     C_R   0.563922 0.978869 0.362842 -0.124444
C201  C     C_R   0.544695 0.949416 0.136775 -0.119385
C202  C     C_R   0.500000 1.000000 0.320639 0.815708
C203  C     C_R   0.456362 0.052619 0.863030 -0.122821
C204  C     C_R   0.959916 0.554281 0.136293 -0.136474
C205  C     C_R   0.936100 0.521212 0.862841 -0.124328
C206  C     C_R   0.455357 0.050522 0.136763 -0.119291
C207  C     C_R   0.544016 0.949913 0.863361 -0.078211
C208  C     C_R   0.040155 0.445714 0.136302 -0.136435
C209  C     C_R   0.063919 0.478783 0.862837 -0.123879
C210  C     C_R   0.999999 0.500000 0.650440 -0.059886
C211  C     C_R   0.000000 0.500001 0.349470 -0.133127
C212  C     C_R   0.499991 0.000001 0.650188 -0.075519
C213  C     C_R   0.499999 0.000000 0.679144 0.836320
C214  C     C_R   0.499990 0.000001 0.349242 -0.047550
C215  C     C_R   0.500008 0.999967 0.150481 -0.059075
C216  C     C_R   0.500066 0.000809 0.849499 -0.092630
C217  C     C_R   0.000024 0.499999 0.150186 -0.075565
C218  C     C_R   0.000006 0.499999 0.849242 -0.047914
C219  C     C_R   0.999999 0.500000 0.595592 0.266138
C220  C     C_R   0.000000 0.500002 0.404162 0.125560
C221  C     C_R   0.499975 0.000004 0.595234 0.269053
C222  C     C_R   0.499969 0.000004 0.403916 0.259375
C223  C     C_R   0.500170 0.000051 0.095659 0.265770
C224  C     C_R   0.000000 0.500000 0.320719 0.819387
C225  C     C_R   0.500536 0.002763 0.904256 0.197458
C226  C     C_R   0.000046 0.499979 0.095232 0.269025
C227  C     C_R   0.000019 0.499989 0.903916 0.259065
C228  C     C_R   0.141714 0.358542 0.750347 0.802507
C229  C     C_R   0.858092 0.641207 0.249558 0.878915
C230  C     C_R   0.641255 0.141849 0.750432 0.869115
C231  C     C_R   0.358734 0.858162 0.249574 0.863292
C232  C     C_R   0.858286 0.641458 0.750347 0.802279
C233  C     C_R   0.141905 0.358791 0.249559 0.878971
C234  C     C_R   0.358745 0.858151 0.750432 0.868409
C235  C     C_R   1.000000 0.500000 0.679242 0.855348
C236  C     C_R   0.641266 0.141837 0.249574 0.863283
C237  C     C_R   0.641716 0.858545 0.250348 0.802258
C238  C     C_R   0.358095 0.141210 0.749559 0.880447
C239  C     C_R   0.141255 0.641849 0.250432 0.869012
C240  C     C_R   0.858735 0.358161 0.749573 0.863298
C241  C     C_R   0.358285 0.141456 0.250348 0.802230
C242  C     C_R   0.641906 0.858791 0.749558 0.878243
C243  C     C_R   0.858745 0.358151 0.250432 0.868984
C244  C     C_R   0.141264 0.641839 0.749573 0.863287
C245  C     C_3   0.198501 0.766134 0.768253 -0.254214
C246  C     C_R   0.611463 0.076761 0.986548 -0.127333
C247  C     C_3   0.801511 0.233846 0.231757 -0.252377
C248  C     C_3   0.238704 0.203281 0.770208 -0.148042
C249  C     C_3   0.760327 0.795608 0.229347 -0.248376
C250  C     C_3   0.801501 0.233863 0.768252 -0.253100
C251  C     C_3   0.198490 0.766153 0.231757 -0.252414
C252  C     C_3   0.761312 0.796732 0.770203 -0.147318
C253  C     C_3   0.239771 0.204487 0.229314 -0.248314
C254  C     C_3   0.698515 0.266121 0.268259 -0.253818
C255  C     C_3   0.301519 0.733838 0.731761 -0.252697
C256  C     C_3   0.738562 0.703149 0.270162 -0.148501
H1    H     H_    0.155959 0.779184 0.783091 0.180217
H2    H     H_    0.344062 0.720786 0.716923 0.176966
H3    H     H_    0.729923 0.664903 0.286760 0.191318
H4    H     H_    0.268663 0.333480 0.712624 0.180299
H5    H     H_    0.344017 0.720837 0.283103 0.180152
H6    H     H_    0.655931 0.279221 0.716926 0.176897
H7    H     H_    0.269894 0.334920 0.286822 0.191317
H8    H     H_    0.731312 0.666497 0.712631 0.180207
H9    H     H_    0.654835 0.106465 0.976535 0.198379
H10   H     H_    0.346313 0.895686 0.023381 0.196952
H11   H     H_    0.891615 0.348092 0.975923 0.197421
H12   H     H_    0.844044 0.220803 0.216915 0.176915
H13   H     H_    0.110218 0.650595 0.023210 0.196478
H14   H     H_    0.346429 0.896342 0.976080 0.197897
H15   H     H_    0.654855 0.105620 0.023834 0.196907
H16   H     H_    0.108466 0.651860 0.975921 0.196754
H17   H     H_    0.889888 0.349343 0.023212 0.196756
H18   H     H_    0.148690 0.612729 0.476225 0.199055
H19   H     H_    0.851076 0.387574 0.523527 0.197224
H20   H     H_    0.391742 0.847979 0.475924 0.196969
H21   H     H_    0.609916 0.150791 0.523212 0.196417
H22   H     H_    0.851309 0.387274 0.476225 0.199056
H23   H     H_    0.230183 0.165146 0.786846 0.191078
H24   H     H_    0.148922 0.612429 0.523528 0.197223
H25   H     H_    0.608174 0.152046 0.475923 0.196969
H26   H     H_    0.390008 0.849231 0.523213 0.196417
H27   H     H_    0.293958 0.713493 0.814784 0.073067
H28   H     H_    0.706031 0.286495 0.185235 0.077136
H29   H     H_    0.270552 0.389548 0.795615 0.064063
H30   H     H_    0.701246 0.689901 0.187458 0.083410
H31   H     H_    0.706052 0.286494 0.814786 0.073425
H32   H     H_    0.293972 0.713503 0.185236 0.077065
H33   H     H_    0.729489 0.610479 0.795627 0.062838
H34   H     H_    0.768920 0.833723 0.212710 0.179980
H35   H     H_    0.299104 0.310436 0.187533 0.083475
H36   H     H_    0.794006 0.213468 0.314781 0.074566
H37   H     H_    0.206069 0.786469 0.685229 0.077078
H38   H     H_    0.770380 0.889229 0.295745 0.063513
H39   H     H_    0.200801 0.189454 0.687555 0.083243
H40   H     H_    0.205991 0.786533 0.314780 0.074567
H41   H     H_    0.793917 0.213544 0.685227 0.077052
H42   H     H_    0.229503 0.110534 0.295650 0.063488
H43   H     H_    0.799153 0.810503 0.687543 0.083091
H44   H     H_    0.141899 0.372281 0.605055 0.079360
H45   H     H_    0.844047 0.220810 0.783089 0.180436
H46   H     H_    0.910523 0.604705 0.426677 0.074794
H47   H     H_    0.397420 0.160280 0.603560 0.075403
H48   H     H_    0.316000 0.050442 0.394927 0.092212
H49   H     H_    0.858099 0.627719 0.605054 0.079362
H50   H     H_    0.089484 0.395302 0.426677 0.074794
H51   H     H_    0.602533 0.839726 0.603552 0.075401
H52   H     H_    0.683946 0.949569 0.394947 0.092195
H53   H     H_    0.638273 0.868321 0.105059 0.079546
H54   H     H_    0.364518 0.136573 0.894410 0.079776
H55   H     H_    0.897750 0.660425 0.103536 0.075426
H56   H     H_    0.155957 0.779196 0.216914 0.176891
H57   H     H_    0.816111 0.550671 0.894943 0.089959
H58   H     H_    0.361902 0.131635 0.105007 0.079271
H59   H     H_    0.577463 0.887352 0.926540 0.057912
H60   H     H_    0.102357 0.339551 0.103564 0.075619
H61   H     H_    0.183924 0.449317 0.894931 0.088184
H62   H     H_    0.769848 0.834878 0.786836 0.193276
H63   H     H_    0.231260 0.166450 0.212649 0.180015
H64   H     H_    0.655982 0.279163 0.283102 0.180154
N1    N     N_R   0.500341 0.002592 0.932243 -0.344973
N2    N     N_1   0.837678 0.054978 0.265142 -0.184712
N3    N     N_1   0.051976 0.157997 0.744399 -0.162090
N4    N     N_1   0.946639 0.841344 0.255488 -0.162496
N5    N     N_1   0.837689 0.055025 0.734873 -0.149882
N6    N     N_1   0.162322 0.945022 0.265139 -0.184761
N7    N     N_1   0.948025 0.841995 0.744375 -0.161854
N8    N     N_1   0.053343 0.158604 0.255320 -0.162548
N9    N     N_1   0.662294 0.444980 0.234898 -0.150275
N10   N     N_1   0.337660 0.554985 0.765158 -0.186406
N11   N     N_1   0.551992 0.658075 0.244164 -0.161988
N12   N     N_R   0.500371 0.000208 0.067680 -0.312735
N13   N     N_1   0.446659 0.341420 0.755251 -0.163870
N14   N     N_1   0.337706 0.555020 0.234900 -0.150226
N15   N     N_1   0.662342 0.445012 0.765164 -0.186108
N16   N     N_1   0.448019 0.341977 0.244331 -0.162026
N17   N     N_1   0.553345 0.658587 0.755272 -0.164062
N18   N     N_1   0.125131 0.354870 0.662348 -0.200114
N19   N     N_1   0.887694 0.654222 0.336907 -0.119795
N20   N     N_1   0.383822 0.154093 0.661098 -0.141919
N21   N     N_1   0.317088 0.054186 0.336890 -0.170663
N22   N     N_1   0.874867 0.645130 0.662347 -0.200150
N23   N     N_R   0.000026 0.499985 0.931888 -0.313668
N24   N     N_1   0.112309 0.345781 0.336909 -0.119749
N25   N     N_1   0.616159 0.845904 0.661089 -0.141847
N26   N     N_1   0.682910 0.945841 0.336910 -0.170878
N27   N     N_1   0.621626 0.851980 0.162470 -0.200266
N28   N     N_1   0.380693 0.150283 0.836981 -0.140395
N29   N     N_1   0.884125 0.654316 0.161071 -0.141923
N30   N     N_1   0.817161 0.554397 0.836906 -0.172168
N31   N     N_1   0.378259 0.147870 0.162437 -0.200020
N32   N     N_1   0.616421 0.848942 0.837762 -0.121343
N33   N     N_1   0.115984 0.345743 0.161100 -0.141761
N34   N     N_R   0.000056 0.499969 0.067249 -0.313303
N35   N     N_1   0.182850 0.445620 0.836894 -0.174705
N36   N     N_R   0.000000 0.500002 0.432158 -0.378313
N37   N     N_R   0.999999 0.500001 0.567608 -0.312454
N38   N     N_R   0.499961 0.000009 0.431889 -0.313899
N39   N     N_R   0.499969 0.000007 0.567251 -0.313215
N40   N     N_1   0.162307 0.944978 0.734878 -0.150271
O1    O     O_3   1.000000 0.500000 0.750000 -0.513157
O2    O     O_R   0.000220 0.561630 0.191620 -0.630968
O3    O     O_2   0.126419 0.423587 0.926301 -0.553082
O4    O     O_R   0.561630 0.999780 0.808380 -0.627153
O5    O     O_R   0.438370 0.000220 0.191620 -0.619120
O6    O     O_R   0.500220 0.061630 0.308380 -0.633094
O7    O     O_R   0.499780 0.938370 0.691620 -0.630948
O8    O     O_R   0.938370 0.500220 0.308380 -0.625242
O9    O     O_R   0.061630 0.499780 0.691620 -0.619020
O10   O     O_R   0.499780 0.938370 0.308380 -0.633071
O11   O     O_R   0.500220 0.061630 0.691620 -0.631100
O12   O     O_R   0.061630 0.499780 0.308380 -0.625262
O13   O     O_3   1.000000 0.500000 0.250000 -0.517232
O14   O     O_R   0.938370 0.500220 0.691620 -0.619016
O15   O     O_R   0.086770 0.352080 0.765560 -0.628680
O16   O     O_R   0.913230 0.647920 0.234440 -0.622854
O17   O     O_R   0.647920 0.086770 0.765560 -0.608518
O18   O     O_R   0.352080 0.913230 0.234440 -0.612849
O19   O     O_R   0.913230 0.647920 0.765560 -0.628400
O20   O     O_R   0.086770 0.352080 0.234440 -0.622892
O21   O     O_R   0.352080 0.913230 0.765560 -0.610303
O22   O     O_R   0.647920 0.086770 0.234440 -0.612840
O23   O     O_R   0.586770 0.852080 0.265560 -0.628672
O24   O     O_3   0.500000 1.000000 0.750000 -0.518299
O25   O     O_R   0.413230 0.147920 0.734440 -0.623267
O26   O     O_R   0.147920 0.586770 0.265560 -0.609470
O27   O     O_R   0.852080 0.413230 0.734440 -0.612721
O28   O     O_R   0.413230 0.147920 0.265560 -0.628687
O29   O     O_R   0.586770 0.852080 0.734440 -0.623005
O30   O     O_R   0.852080 0.413230 0.265560 -0.609480
O31   O     O_R   0.147920 0.586770 0.734440 -0.612771
O32   O     O_R   0.852120 0.586630 0.735130 -0.643505
O33   O     O_R   0.147880 0.413370 0.264870 -0.650596
O34   O     O_R   0.413370 0.852120 0.735130 -0.657222
O35   O     O_3   0.500000 0.000000 0.250000 -0.513125
O36   O     O_R   0.586630 0.147880 0.264870 -0.652571
O37   O     O_R   0.147880 0.413370 0.735130 -0.643451
O38   O     O_R   0.852120 0.586630 0.264870 -0.650624
O39   O     O_R   0.586630 0.147880 0.735130 -0.657193
O40   O     O_R   0.413370 0.852120 0.264870 -0.652567
O41   O     O_R   0.352120 0.086630 0.235130 -0.643537
O42   O     O_R   0.647880 0.913370 0.764870 -0.650134
O43   O     O_R   0.913370 0.352120 0.235130 -0.657067
O44   O     O_R   0.086630 0.647880 0.764870 -0.652578
O45   O     O_R   0.647880 0.913370 0.235130 -0.643539
O46   O     O_R   0.000220 0.561630 0.808380 -0.632814
O47   O     O_R   0.352120 0.086630 0.764870 -0.648437
O48   O     O_R   0.086630 0.647880 0.235130 -0.657079
O49   O     O_R   0.913370 0.352120 0.764870 -0.652705
O50   O     O_2   0.393565 0.928803 0.931590 -0.545046
O51   O     O_2   0.607656 0.073290 0.068321 -0.542406
O52   O     O_2   0.072554 0.607700 0.931418 -0.545759
O53   O     O_2   0.920525 0.397309 0.067712 -0.548652
O54   O     O_2   0.607623 0.075677 0.931913 -0.523953
O55   O     O_2   0.393145 0.927024 0.068009 -0.542503
O56   O     O_2   0.927499 0.392270 0.931419 -0.545535
O57   O     O_R   0.999780 0.438370 0.191620 -0.630981
O58   O     O_2   0.079591 0.602626 0.067711 -0.548859
O59   O     O_2   0.896833 0.421259 0.431658 -0.530787
O60   O     O_2   0.103774 0.577995 0.568091 -0.542254
O61   O     O_2   0.572342 0.107823 0.431419 -0.545458
O62   O     O_2   0.420584 0.897234 0.567714 -0.549013
O63   O     O_2   0.103167 0.578745 0.431659 -0.530797
O64   O     O_2   0.896224 0.422006 0.568091 -0.542254
O65   O     O_2   0.427577 0.892198 0.431420 -0.545444
O66   O     O_2   0.579353 0.102781 0.567713 -0.549022
O67   O     O_2   0.366212 0.792063 0.805439 -0.556949
O68   O     O_R   0.438370 0.000220 0.808380 -0.619211
O69   O     O_2   0.633767 0.207941 0.194585 -0.553431
O70   O     O_2   0.253467 0.300429 0.817622 -0.526377
O71   O     O_2   0.769848 0.611182 0.199611 -0.567298
O72   O     O_2   0.633801 0.207922 0.805441 -0.551400
O73   O     O_2   0.366237 0.792056 0.194586 -0.553516
O74   O     O_2   0.746557 0.699617 0.817626 -0.514378
O75   O     O_2   0.230265 0.388981 0.199659 -0.567323
O76   O     O_2   0.866264 0.292029 0.305431 -0.552251
O77   O     O_2   0.133804 0.707913 0.694576 -0.553628
O78   O     O_2   0.752888 0.800022 0.317667 -0.514719
O79   O     O_R   0.561630 0.999780 0.191620 -0.619069
O80   O     O_2   0.269627 0.110911 0.699691 -0.567553
O81   O     O_2   0.133734 0.707972 0.305430 -0.552262
O82   O     O_2   0.866185 0.292097 0.694575 -0.553579
O83   O     O_2   0.246687 0.199676 0.317636 -0.514716
O84   O     O_2   0.730352 0.889066 0.699682 -0.567302
O85   O     O_2   0.084821 0.380345 0.572482 -0.557342
O86   O     O_2   0.899595 0.670512 0.396371 -0.529397
O87   O     O_2   0.386598 0.094899 0.573017 -0.552484
O88   O     O_2   0.373465 0.076234 0.426300 -0.551574
O89   O     O_2   0.915177 0.619657 0.572482 -0.557344
O90   O     O_R   0.999780 0.438370 0.808380 -0.633264
O91   O     O_2   0.100395 0.329486 0.396373 -0.529378
O92   O     O_2   0.613341 0.905111 0.573009 -0.552484
O93   O     O_2   0.626455 0.923773 0.426314 -0.551580
O94   O     O_2   0.580582 0.877245 0.072639 -0.558228
O95   O     O_2   0.420290 0.125517 0.927154 -0.537839
O96   O     O_2   0.886814 0.595026 0.073003 -0.552551
O97   O     O_2   0.873631 0.576384 0.926312 -0.551348
O98   O     O_2   0.419900 0.122995 0.072645 -0.552998
O99   O     O_2   0.644731 0.867999 0.897089 -0.520253
O100  O     O_2   0.113288 0.404913 0.073021 -0.551810
Zn1   Zn    Zn3+2 0.088070 0.500110 0.728590 1.028207
Zn2   Zn    Zn3+2 0.411930 0.999890 0.771410 1.042429
Zn3   Zn    Zn3+2 0.999890 0.588070 0.228590 1.024982
Zn4   Zn    Zn3+2 0.000110 0.411930 0.771410 1.001787
Zn5   Zn    Zn3+2 0.411930 0.999890 0.228590 1.028215
Zn6   Zn    Zn3+2 0.588070 0.000110 0.771410 1.041957
Zn7   Zn    Zn3+2 0.000110 0.411930 0.228590 1.024979
Zn8   Zn    Zn3+2 0.999890 0.588070 0.771410 1.002404
Zn9   Zn    Zn3+2 0.911930 0.499890 0.271410 1.039547
Zn10  Zn    Zn3+2 0.499890 0.088070 0.728590 1.025365
Zn11  Zn    Zn3+2 0.500110 0.911930 0.271410 1.002042
Zn12  Zn    Zn3+2 0.911930 0.499890 0.728590 1.028178
Zn13  Zn    Zn3+2 0.088070 0.500110 0.271410 1.039565
Zn14  Zn    Zn3+2 0.500110 0.911930 0.728590 1.023965
Zn15  Zn    Zn3+2 0.499890 0.088070 0.271410 1.002005
Zn16  Zn    Zn3+2 0.588070 0.000110 0.228590 1.028236

loop_
_geom_bond_atom_site_label_1
_geom_bond_atom_site_label_2
_ccdc_geom_bond_type
C206  C215  A    
C113  H21   S    
C108  N4    T    
C8    C26   S    
C166  N26   T    
C28   C228  S    
C79   C87   A    
C15   C32   S    
C22   C120  S    
O57   Zn7   S    
C9    C27   S    
C11   C249  S    
C3    C28   S    
C65   N1    A    
C54   C134  S    
C256  H3    S    
C169  N28   T    
C242  O42   A    
C238  O47   A    
C158  H61   S    
C225  N1    S    
C224  O12   A    
C248  H23   S    
C36   C53   S    
C19   C37   S    
C121  N16   T    
O24   Zn6   S    
C141  H44   S    
C38   C55   S    
O35   Zn11  S    
C141  C168  S    
C31   C231  S    
C158  O3    D    
C110  N6    T    
C246  H9    S    
C170  C204  S    
C20   C45   S    
C72   C94   A    
C147  C181  S    
C1    O90   A    
O27   Zn12  S    
C106  N2    T    
C164  N24   T    
C174  C208  S    
C234  O21   A    
C9    C52   S    
C72   N38   A    
O43   Zn7   S    
C20   C118  S    
O42   Zn6   S    
C240  O49   A    
C76   O65   S    
C44   C125  S    
C40   C58   S    
C135  H24   S    
C202  O10   A    
O13   Zn7   S    
C53   C133  S    
C124  H22   S    
C235  O9    A    
C14   C251  S    
C153  C187  S    
C232  O19   A    
C154  C188  S    
C42   C242  S    
O11   Zn10  S    
C113  C146  A    
C25   C42   S    
C158  C192  S    
C230  O17   A    
C16   C253  S    
O36   Zn15  S    
C39   C56   S    
C125  H28   S    
C125  O69   D    
C145  C179  S    
C181  C220  A    
O18   Zn5   S    
C114  N8    T    
O8    Zn9   S    
C202  C214  S    
C86   C99   A    
O30   Zn9   S    
C146  H25   S    
O39   Zn10  S    
C46   C84   A    
C167  N27   T    
C242  O29   A    
C144  C178  S    
C8    C245  S    
C79   H18   S    
C156  H60   S    
C17   C34   S    
C73   C95   A    
C142  O86   D    
C105  N40   T    
C118  N13   T    
C50   C252  S    
C208  C217  A    
C77   C91   A    
C182  C221  A    
C177  C195  A    
C179  C219  A    
C34   C243  S    
O16   Zn3   S    
C54   C256  S    
C64   N34   A    
C148  O92   D    
C182  C199  A    
O13   Zn3   S    
C191  O5    A    
O40   Zn11  S    
C88   C102  A    
C147  O91   D    
C67   O56   S    
C71   C93   A    
C145  O89   D    
C23   C41   S    
C6    C33   S    
C131  H35   S    
C63   C85   A    
C231  O40   A    
C107  N3    T    
C71   N37   A    
C21   C119  S    
C62   N12   A    
C183  C222  A    
C139  O83   D    
O68   Zn2   S    
C207  C216  A    
C154  O98   D    
C70   N36   A    
C137  O81   D    
O47   Zn2   S    
C122  N17   T    
C71   O60   S    
C243  O43   A    
C212  C213  S    
C98   C99   A    
C81   C98   A    
C149  O93   D    
C160  N19   T    
C131  O75   D    
C144  O88   D    
C129  O73   D    
O32   Zn12  S    
C202  O6    A    
C32   C232  S    
O79   Zn16  S    
C80   C97   A    
C15   C60   S    
O48   Zn3   S    
C14   C31   S    
C8    C105  S    
C136  O80   D    
C21   C49   S    
C222  N38   S    
C5    C58   S    
C29   C47   S    
C112  O2    A    
C30   C48   S    
C243  O30   A    
C26   C255  S    
C19   C47   S    
C191  O79   A    
C249  H34   S    
C2    H10   S    
C41   C253  S    
O21   Zn2   S    
C40   C250  S    
O24   Zn10  S    
O25   Zn10  S    
C244  O44   A    
C25   C50   S    
C69   C82   A    
C44   C247  S    
C236  O22   A    
C3    C55   S    
C27   C44   S    
C68   H17   S    
C57   C85   A    
C24   C57   A    
C186  C226  A    
C237  O45   A    
C1    C218  S    
C74   C87   A    
C170  N29   T    
C155  C189  S    
C67   N23   A    
C76   C89   A    
C63   N23   A    
C26   C234  S    
C185  C225  A    
C37   C237  S    
C70   O59   S    
C36   C245  S    
C45   C248  S    
C148  H51   S    
C17   C254  S    
C230  O39   A    
C171  N30   T    
C175  N35   T    
C46   C246  A    
C139  H42   S    
C152  C186  S    
C78   C96   A    
C205  C218  A    
C150  C184  S    
C178  C196  A    
C150  O94   D    
C123  O67   D    
C41   C241  S    
O45   Zn16  S    
O46   Zn8   S    
O26   Zn13  S    
C116  N10   T    
C134  H38   S    
C198  C211  A    
C38   C238  S    
O49   Zn4   S    
C196  C214  A    
C72   O61   S    
C235  O14   A    
C45   C126  S    
C38   C248  S    
C187  C205  A    
C252  H62   S    
C253  H63   S    
C220  N36   S    
C254  H64   S    
C10   C55   S    
C11   C54   S    
C153  H57   S    
C27   C236  S    
C60   C140  S    
C219  N37   S    
C67   C81   A    
C168  C193  A    
C240  O27   A    
C247  H12   S    
C241  O41   A    
C43   C123  S    
C213  O11   A    
C33   C233  S    
C17   C115  S    
C5    C30   S    
C145  H49   S    
C14   C110  S    
C62   C84   A    
C184  C201  A    
C190  C226  A    
C200  C214  A    
C233  O20   A    
C93   C135  A    
C162  N21   T    
C16   C114  S    
C8    C53   S    
O4    Zn6   S    
C47   C127  S    
O20   Zn7   S    
C66   C80   A    
C183  C200  A    
C126  O70   D    
O28   Zn15  S    
C69   N34   A    
C187  C227  A    
C29   C229  S    
C195  C212  A    
C40   C240  S    
C228  O15   A    
C56   C137  S    
C193  C210  A    
C43   C245  S    
C83   C96   A    
C130  H33   S    
C78   C246  A    
C174  N33   T    
C175  C209  S    
C27   C254  S    
C47   C249  S    
C42   C252  S    
C188  C223  A    
C151  O95   D    
O34   Zn14  S    
O33   Zn13  S    
C34   C247  S    
C177  C221  A    
C223  N12   S    
C229  O16   A    
C4    C56   S    
C157  H26   S    
C213  O7    A    
C13   C68   A    
C2    C35   A    
C94   C146  A    
C184  C223  A    
C22   C48   S    
C251  H56   S    
C82   C99   A    
C165  N25   T    
C1    O46   A    
C23   C121  S    
O35   Zn5   S    
C147  H50   S    
C188  C206  A    
O1    Zn8   S    
C84   C97   A    
C87   C100  A    
C92   C124  A    
C77   N39   A    
C15   C252  S    
C55   C136  S    
C13   C81   A    
C12   C250  S    
C161  C195  S    
C159  C193  S    
C199  C212  A    
C236  O36   A    
C52   C254  S    
C197  C210  A    
C191  C215  S    
C117  N11   T    
C231  O18   A    
O35   Zn16  S    
C192  C227  A    
O22   Zn16  S    
C73   O62   S    
C101  H20   S    
O13   Zn13  S    
C7    C32   S    
O7    Zn14  S    
C171  C205  S    
C245  H1    S    
C239  O26   A    
C109  N5    T    
C255  H2    S    
C101  C157  A    
C142  H46   S    
C95   C157  A    
C224  O8    A    
C159  N18   T    
O24   Zn2   S    
C31   C49   S    
O5    Zn5   S    
C6    C59   S    
C64   C86   A    
C164  C198  S    
C140  H43   S    
O41   Zn5   S    
C36   C244  S    
C61   N1    A    
C203  C216  A    
C180  C216  S    
O38   Zn9   S    
C61   C83   A    
C18   C116  S    
C75   N37   A    
C35   C83   A    
C142  C176  S    
C232  O32   A    
C52   C132  S    
C96   C97   A    
C95   C104  A    
C48   C128  S    
C156  O100  D    
C59   C139  S    
O19   Zn8   S    
C3    C20   S    
O17   Zn6   S    
O13   Zn9   S    
C115  N9    T    
C88   C90   A    
C94   C103  A    
C5    H6    S    
C209  C218  A    
C35   H14   S    
C233  O33   A    
C51   C253  S    
O24   Zn14  S    
C7    C60   S    
C152  O96   D    
O1    Zn4   S    
C10   C28   S    
C151  C185  S    
C51   C131  S    
C65   C78   A    
C12   C30   S    
C90   C124  A    
C137  H40   S    
C70   C92   A    
C128  H31   S    
C64   O53   S    
C241  O28   A    
C18   C255  S    
C33   C51   S    
C79   C135  A    
C34   C52   S    
C7    C25   S    
C24   H13   S    
C180  O68   A    
C172  C206  S    
C17   C44   S    
C18   C43   S    
C154  H58   S    
O23   Zn11  S    
C189  C207  A    
C155  O99   D    
C211  C224  S    
C74   O63   S    
C237  O23   A    
C32   C50   S    
C153  O97   D    
C167  C201  S    
C168  C219  A    
C76   N38   A    
C9    C247  S    
C192  C209  A    
C4    C31   S    
C49   C251  S    
C19   C256  S    
C39   C251  S    
C69   O58   S    
C19   C117  S    
C93   C102  A    
C148  C182  S    
C176  C220  A    
C162  C196  S    
C103  C104  A    
C149  C183  S    
C74   N36   A    
C53   C255  S    
C176  C194  A    
C18   C36   S    
O9    Zn1   S    
C156  C190  S    
C14   C56   S    
C46   H15   S    
C68   C86   A    
C91   C104  A    
C66   N12   A    
C172  N31   T    
C155  H59   S    
C132  O76   D    
C39   C239  S    
C133  O77   D    
C165  C199  S    
C161  N20   T    
C3    H4    S    
C180  O4    A    
C29   C256  S    
C24   C82   A    
C201  C215  A    
C85   C98   A    
C50   C130  S    
C194  C211  A    
C173  N32   T    
C149  H52   S    
C5    C22   S    
C65   O54   S    
O44   Zn8   S    
C112  C217  S    
C132  H36   S    
C90   H19   S    
C133  H37   S    
C229  O38   A    
C89   C101  A    
C143  H47   S    
O31   Zn1   S    
C12   C58   S    
C144  H48   S    
C143  C177  S    
O1    Zn12  S    
C152  H55   S    
C127  O71   D    
C127  H30   S    
C10   C107  S    
C227  N23   S    
C181  C198  A    
C13   H11   S    
C12   C109  S    
C26   C43   S    
C166  C200  S    
C163  N22   T    
C28   C45   S    
C128  O72   D    
C15   C111  S    
C73   N39   A    
C41   C59   S    
C42   C60   S    
O2    Zn3   S    
C143  O87   D    
C4    H5    S    
C179  C197  A    
C57   H16   S    
C9    C106  S    
C210  C235  S    
C120  N15   T    
C49   C129  S    
C91   C113  A    
C226  N34   S    
C16   C59   S    
C112  O57   A    
C136  H39   S    
C16   C33   S    
C169  C203  S    
C20   C38   S    
C23   C51   S    
C21   C39   S    
C22   C40   S    
C61   O50   S    
C100  C102  A    
C186  C204  A    
C7    H8    S    
C173  C207  S    
C138  H41   S    
O6    Zn15  S    
C163  C197  S    
C6    H7    S    
C37   C54   S    
C190  C208  A    
C138  O82   D    
C58   C138  S    
C150  H53   S    
C10   C248  S    
C185  C203  A    
C11   C108  S    
C62   O51   S    
C92   C100  A    
C160  C194  S    
C25   C122  S    
C130  O74   D    
O10   Zn11  S    
C129  H32   S    
C189  C225  A    
C238  O25   A    
C77   O66   S    
C63   O52   S    
O1    Zn1   S    
C75   O64   S    
C250  H45   S    
O90   Zn4   S    
O29   Zn14  S    
C204  C217  A    
C239  O48   A    
C30   C230  S    
C244  O31   A    
C123  H27   S    
C4    C21   S    
C221  N39   S    
C134  O78   D    
C37   C249  S    
C6    C23   S    
C66   O55   S    
C228  O37   A    
C48   C250  S    
O37   Zn1   S    
C234  O34   A    
C2    C80   A    
C140  O84   D    
O35   Zn15  S    
C75   C88   A    
C141  O85   D    
C11   C29   S    
C151  H54   S    
C126  H29   S    
C119  N14   T    
C178  C222  A    
O14   Zn12  S    
O15   Zn4   S    
C111  N7    T    
O12   Zn13  S    
C89   C103  A    
