data_mof_unit_65513.cif
_audit_creation_date              2012-12-11T18:44:38-0500
_audit_creation_method            fapswitch 2.2
_symmetry_space_group_name_H-M    P1
_symmetry_Int_Tables_number       1
_space_group_crystal_system       triclinic
_cell_length_a                    8.258719
_cell_length_b                    14.302014
_cell_length_c                    18.809625
_cell_angle_alpha                 97.345526
_cell_angle_beta                  91.267173
_cell_angle_gamma                 91.619086
_cell_volume                      2201.86878831

loop_
_atom_site_label
_atom_site_type_symbol
_atom_type_description
_atom_site_fract_x
_atom_site_fract_y
_atom_site_fract_z
_atom_type_partial_charge
Ba1   Ba    Ba6+2 0.843240 0.541620 0.463500 1.958018
Ba2   Ba    Ba6+2 0.346570 0.458460 0.536510 2.001641
C1    C     C_3   0.643870 0.877793 0.268440 0.577303
C2    C     C_3   0.607247 0.782715 0.294024 0.760102
C3    C     C_3   0.523169 0.289800 0.319919 0.731702
C4    C     C_3   0.481187 0.242167 0.244541 0.548802
C5    C     C_3   0.113101 0.273745 0.743903 0.352926
C6    C     C_3   0.137209 0.252443 0.820582 0.689160
C7    C     C_3   0.598812 0.219953 0.704074 0.439656
C8    C     C_3   0.600186 0.126335 0.734587 1.238398
C9    C     C_R   0.008684 0.451990 0.049626 -0.026115
C10   C     C_R   0.917478 0.407147 0.098768 -0.130164
C11   C     C_R   0.764118 0.367659 0.077534 0.550742
C12   C     C_3   0.067993 0.731978 0.259770 0.261616
C13   C     C_R   0.699685 0.374273 0.009266 0.632712
C14   C     C_R   0.790031 0.418048 0.959150 -0.170889
C15   C     C_R   0.946088 0.456124 0.979082 -0.078882
C16   C     C_R   0.726942 0.423618 0.889810 0.664302
C17   C     C_R   0.822401 0.459845 0.837049 -0.197191
C18   C     C_R   0.977687 0.501645 0.857777 -0.135612
C19   C     C_R   0.037882 0.499961 0.929286 0.099683
C20   C     C_R   0.769854 0.454355 0.764077 -0.003009
C21   C     C_R   0.872070 0.488670 0.713958 0.332560
C22   C     C_R   0.017874 0.538127 0.733956 -0.055865
C23   C     C_3   0.085339 0.767137 0.187094 1.091382
C24   C     C_R   0.071775 0.546411 0.807807 -0.157860
C25   C     C_R   0.161797 0.492794 0.071137 0.182080
C26   C     C_R   0.219294 0.494163 0.143255 0.082309
C27   C     C_R   0.123231 0.452907 0.193897 -0.115378
C28   C     C_R   0.978212 0.404359 0.168934 0.065968
C29   C     C_R   0.216475 0.596295 0.834060 0.674568
C30   C     C_R   0.280783 0.588285 0.902918 -0.080629
C31   C     C_R   0.191486 0.540458 0.950866 -0.020604
C32   C     C_R   0.254057 0.536137 0.021373 0.058149
C33   C     C_R   0.434634 0.627756 0.924624 -0.026778
C34   C     C_3   0.183211 0.749702 0.611796 0.306370
C35   C     C_R   0.498595 0.621087 0.993107 0.571811
C36   C     C_R   0.407863 0.576979 0.042472 -0.013811
C37   C     C_R   0.371642 0.538141 0.164647 -0.069201
C38   C     C_R   0.466614 0.575737 0.112989 -0.011062
C39   C     C_R   0.421947 0.546074 0.237612 0.008598
C40   C     C_R   0.319593 0.512793 0.288117 0.402421
C41   C     C_R   0.173765 0.463555 0.267829 0.014211
C42   C     C_R   0.696743 0.938134 0.541354 0.012457
C43   C     C_R   0.511725 0.800633 0.498618 -0.008298
C44   C     C_R   0.369341 0.766071 0.461669 -0.239158
C45   C     C_3   0.196261 0.856774 0.627371 -0.260291
C46   C     C_R   0.264727 0.826929 0.432987 0.066965
C47   C     C_R   0.309347 0.921728 0.434418 -0.036703
C48   C     C_R   0.455265 0.957428 0.468554 0.040073
C49   C     C_R   0.556174 0.897997 0.503317 -0.043694
C50   C     C_R   0.638636 0.092283 0.506630 -0.097031
C51   C     C_R   0.740181 0.033972 0.542128 0.013759
C52   C     C_R   0.680550 0.188961 0.509399 -0.001121
C53   C     C_R   0.817613 0.226704 0.548828 0.415801
C54   C     C_R   0.927176 0.168115 0.577181 -0.011624
C55   C     C_R   0.886822 0.071896 0.575659 -0.134547
C56   C     C_3   0.036741 0.244463 0.382648 0.773760
C57   C     C_R   0.498148 0.052629 0.469565 0.086609
C58   C     C_3   0.019892 0.137805 0.363345 1.042383
C59   C     C_3   0.708843 0.688652 0.676457 0.825209
C60   C     C_3   0.748122 0.732696 0.753193 0.531284
H1    H     H_    0.220228 0.888173 0.577693 -0.007406
H2    H     H_    0.080917 0.884418 0.649479 0.165152
H3    H     H_    0.635442 0.757174 0.779850 0.090540
H4    H     H_    0.389379 0.184393 0.246824 0.027552
H5    H     H_    0.591423 0.211959 0.219113 0.086139
H6    H     H_    0.268417 0.249439 0.833921 0.128824
H7    H     H_    0.084037 0.308629 0.858278 -0.107762
H8    H     H_    0.725875 0.240166 0.693728 -0.268354
H9    H     H_    0.527687 0.210172 0.652714 -0.092030
H10   H     H_    0.971812 0.675930 0.255759 0.056300
H11   H     H_    0.907727 0.366779 0.204383 0.141452
H12   H     H_    0.507239 0.663250 0.888297 0.146420
H13   H     H_    0.585072 0.607112 0.127550 0.159102
H14   H     H_    0.334086 0.692293 0.459486 0.090704
H15   H     H_    0.229072 0.967658 0.409938 0.127218
H16   H     H_    0.970572 0.026813 0.599062 0.098504
H17   H     H_    0.301492 0.722423 0.594323 -0.028804
H18   H     H_    0.089876 0.730198 0.568735 0.010906
O1    O     O_2   0.887710 0.436190 0.327560 -0.481412
O2    O     O_3   0.630705 0.754970 0.640530 -0.661313
O3    O     O_3   0.026262 0.808099 0.310208 -0.626461
O4    O     O_2   0.301980 0.563840 0.672490 -0.358484
O5    O     O_3   0.054330 0.556590 0.583490 -0.441613
O6    O     O_3   0.555270 0.390630 0.635330 -0.383296
O7    O     O_3   0.140532 0.714121 0.674781 -0.549950
O8    O     O_3   0.637720 0.384870 0.467990 -0.311244
O9    O     O_3   0.145220 0.339960 0.601250 -0.421302
O10   O     O_2   0.262750 0.170551 0.562983 -0.506180
O11   O     O_3   0.180956 0.202045 0.696673 -0.554045
O12   O     O_3   0.135370 0.443490 0.416520 -0.366305
O13   O     O_3   0.551980 0.615210 0.532020 -0.406071
O14   O     O_2   0.394410 0.269100 0.474240 -0.481696
O15   O     O_3   0.571897 0.220551 0.361726 -0.640447
O16   O     O_2   0.429638 0.460233 0.757541 -0.440765
O17   O     O_3   0.527636 0.288234 0.753018 -0.554571
O18   O     O_3   0.634420 0.609440 0.364670 -0.417716
O19   O     O_2   0.758386 0.537459 0.242237 -0.509456
O20   O     O_3   0.048942 0.286114 0.319964 -0.657678
O21   O     O_3   0.666343 0.710651 0.244241 -0.645521
O22   O     O_2   0.795290 0.730930 0.525800 -0.505125
O23   O     O_3   0.044470 0.660110 0.398750 -0.507996
O24   O     O_2   0.930051 0.829748 0.441739 -0.481434
P1    P     P_3+3 0.061800 0.409390 0.339760 1.195983
P2    P     P_3+3 0.622760 0.718740 0.547830 1.041574
P3    P     P_3+3 0.066085 0.781466 0.396957 0.990818
P4    P     P_3+3 0.127890 0.590690 0.660240 1.169446
P5    P     P_3+3 0.128357 0.219089 0.608770 1.073096
P6    P     P_3+3 0.619779 0.600287 0.271507 1.067630
P7    P     P_3+3 0.575915 0.265364 0.452954 1.200283
P8    P     P_3+3 0.571643 0.400040 0.728314 1.195957
H19   H     H_    0.666619 0.782591 0.347617 0.005879
H20   H     H_    0.296564 0.878321 0.666900 0.173991
F1    F     F_    0.904288 0.277293 0.418685 -0.731601
H21   H     H_    0.144808 0.261426 0.417265 -0.003021
F2    F     F_    0.881162 0.114271 0.321580 -0.646354
F3    F     F_    0.011342 0.094860 0.424878 -0.764143
H22   H     H_    0.126896 0.111583 0.332978 -0.103148
H23   H     H_    0.822675 0.667180 0.650189 -0.060925
F4    F     F_    0.607379 0.610915 0.678211 -0.702271
H24   H     H_    0.776437 0.891284 0.267216 0.096336
F5    F     F_    0.855578 0.808667 0.753289 -0.658400
H25   H     H_    0.803031 0.680163 0.784169 -0.083342
F6    F     F_    0.441603 0.772247 0.299230 -0.788814
F7    F     F_    0.578009 0.949297 0.314197 -0.689951
F8    F     F_    0.387560 0.333906 0.346904 -0.741792
H26   H     H_    0.622490 0.342991 0.317637 0.025544
F9    F     F_    0.417763 0.306758 0.203660 -0.670215
H27   H     H_    0.591141 0.878510 0.213679 0.075904
H28   H     H_    0.181133 0.823779 0.190853 0.024869
H29   H     H_    0.173944 0.342824 0.739149 -0.076105
H30   H     H_    0.981209 0.278484 0.733111 -0.074584
F10   F     F_    0.061921 0.166959 0.828627 -0.576593
H31   H     H_    0.656738 0.072334 0.696082 -0.185890
F11   F     F_    0.443710 0.096132 0.746397 -0.647850
F12   F     F_    0.688701 0.136550 0.798545 -0.591934
F13   F     F_    0.674526 0.323462 0.123427 -0.641785
F14   F     F_    0.549214 0.335895 0.992429 -0.577945
F15   F     F_    0.824754 0.477730 0.643990 -0.640615
F16   F     F_    0.570256 0.395807 0.875675 -0.659924
F17   F     F_    0.294776 0.655798 0.794877 -0.677048
F18   F     F_    0.648226 0.659705 0.011456 -0.662176
H32   H     H_    0.183594 0.700619 0.274041 -0.020625
F19   F     F_    0.365006 0.525893 0.358395 -0.690927
F20   F     F_    0.851051 0.320630 0.554543 -0.642533
H33   H     H_    0.774591 0.896166 0.570484 0.096092
H34   H     H_    0.418678 0.095116 0.441586 0.078276
F21   F     F_    0.127822 0.694367 0.136347 -0.740959
F22   F     F_    0.940608 0.802351 0.165600 -0.654557

loop_
_geom_bond_atom_site_label_1
_geom_bond_atom_site_label_2
_ccdc_geom_bond_type
C45   H20   S    
C53   C54   A    
C33   H12   S    
O18   P6    S    
C1    H27   S    
C39   C40   A    
Ba2   O4    S    
C17   C18   A    
C44   H14   S    
C1    F7    S    
C5    C6    S    
C37   C39   A    
C43   C44   A    
C43   P2    S    
C10   C11   A    
O16   P8    D    
O20   P1    S    
C35   C36   A    
C2    F6    S    
C58   H22   S    
C48   C57   A    
C23   F21   S    
C26   C27   A    
C33   C35   A    
C22   C24   A    
C5    H30   S    
C59   O2    S    
C45   H1    S    
C3    C4    S    
C46   P3    S    
C19   C31   A    
C43   C49   A    
C56   C58   S    
C13   C14   A    
O9    P5    S    
O14   P7    D    
C42   H33   S    
C54   C55   A    
Ba2   O5    S    
C59   F4    S    
Ba1   Ba2   S    
C41   P1    S    
O8    P7    S    
C42   C51   A    
O7    P4    S    
O3    P3    S    
C14   C15   A    
C21   C22   A    
C58   F3    S    
C22   P4    S    
C8    F12   S    
O5    P4    S    
C7    C8    S    
Ba1   O23   S    
C1    H24   S    
Ba1   P2    S    
C57   H34   S    
Ba1   O8    S    
C24   C29   A    
C34   O7    S    
C27   C41   A    
C59   H23   S    
C56   H21   S    
C12   O3    S    
C4    F9    S    
C60   H25   S    
C60   F5    S    
C3    O15   S    
C50   C52   A    
C48   C49   A    
C13   F14   S    
C16   F16   S    
C25   C32   A    
Ba1   O5    S    
Ba2   O12   S    
C44   C46   A    
C6    F10   S    
C30   C33   A    
C21   F15   S    
Ba2   O14   S    
C17   C20   A    
C56   O20   S    
C8    H31   S    
C34   H18   S    
C45   H2    S    
C28   H11   S    
C51   C55   A    
C16   C17   A    
C53   F20   S    
C26   C37   A    
O21   P6    S    
O19   P6    D    
C15   C19   A    
C23   F22   S    
Ba2   O9    S    
O6    P8    S    
C27   C28   A    
C50   C57   A    
O13   P2    S    
C2    H19   S    
C29   C30   A    
C12   H32   S    
C9    C25   A    
C5    O11   S    
C2    O21   S    
C3    F8    S    
C31   C32   A    
C6    H7    S    
C58   F2    S    
C7    H8    S    
Ba2   O8    S    
C5    H29   S    
C42   C49   A    
C14   C16   A    
C4    H5    S    
C6    H6    S    
Ba1   O12   S    
C20   P8    S    
C39   P6    S    
C11   C13   A    
C56   F1    S    
C34   C45   S    
C40   C41   A    
C1    C2    S    
C23   H28   S    
C54   P5    S    
C37   C38   A    
C50   C51   A    
O17   P8    S    
O1    P1    D    
C52   C53   A    
C9    C15   A    
C7    O17   S    
C35   F18   S    
C60   H3    S    
C10   C28   A    
C32   C36   A    
C12   H10   S    
C55   H16   S    
Ba2   O13   S    
C7    H9    S    
C8    F11   S    
C34   H17   S    
Ba1   O18   S    
C9    C10   A    
C38   H13   S    
C11   F13   S    
O11   P5    S    
C29   F17   S    
O15   P7    S    
C30   C31   A    
C36   C38   A    
C18   C24   A    
C46   C47   A    
C3    H26   S    
Ba2   P4    S    
O4    P4    D    
C47   H15   S    
C52   P7    S    
Ba2   O6    S    
O2    P2    S    
C12   C23   S    
C59   C60   S    
O12   P1    S    
C4    H4    S    
C18   C19   A    
Ba1   O13   S    
C47   C48   A    
O22   P2    D    
C25   C26   A    
C20   C21   A    
O23   P3    S    
O10   P5    D    
C40   F19   S    
Ba1   O1    S    
Ba1   O22   S    
O24   P3    D    
Ba1   P1    S    
