data_mof_unit_66879.cif
_audit_creation_date              2013-03-05T15:57:23-0500
_audit_creation_method            fapswitch 2.2
_symmetry_space_group_name_H-M    P1
_symmetry_Int_Tables_number       1
_space_group_crystal_system       triclinic
_cell_length_a                    17.230802
_cell_length_b                    18.575224
_cell_length_c                    8.386553
_cell_angle_alpha                 90.000012
_cell_angle_beta                  101.873732
_cell_angle_gamma                 89.951774
_cell_volume                      2626.81577524

loop_
_atom_site_label
_atom_site_type_symbol
_atom_site_description
_atom_site_fract_x
_atom_site_fract_y
_atom_site_fract_z
_atom_type_partial_charge
P1    P     P_3+3 0.834140 0.419320 0.003900 0.521610
P2    P     P_3+3 0.834140 0.580680 0.503900 0.521467
P3    P     P_3+3 0.334140 0.919320 0.003900 0.522427
P4    P     P_3+3 0.334140 0.080680 0.503900 0.522442
O1    O     O_2   0.841960 0.394640 0.833410 -0.383956
O2    O     O_2   0.841960 0.605360 0.333410 -0.382728
O3    O     O_2   0.341960 0.894640 0.833410 -0.387025
O4    O     O_2   0.341960 0.105360 0.333410 -0.379026
O5    O     O_3   0.907950 0.463080 0.102990 -0.314106
O6    O     O_3   0.907950 0.536920 0.602990 -0.314850
O7    O     O_3   0.407950 0.963080 0.102990 -0.312273
O8    O     O_3   0.407950 0.036920 0.602990 -0.317433
O9    O     O_3   0.972780 0.329600 0.629720 -0.334355
O10   O     O_3   0.972780 0.670400 0.129720 -0.334171
O11   O     O_3   0.472780 0.829600 0.629720 -0.334477
O12   O     O_3   0.472780 0.170400 0.129720 -0.334253
O13   O     O_2   0.845888 0.269332 0.702375 -0.375323
O14   O     O_2   0.845523 0.730375 0.202070 -0.376195
O15   O     O_2   0.345918 0.769346 0.702756 -0.373740
O16   O     O_2   0.345567 0.230336 0.202184 -0.375452
O17   O     O_3   0.751487 0.476342 0.967333 -0.584236
O18   O     O_3   0.751500 0.523775 0.467042 -0.584216
O19   O     O_3   0.251554 0.976429 0.968060 -0.583028
O20   O     O_3   0.251290 0.024062 0.465551 -0.583406
O21   O     O_3   0.953058 0.180898 0.636466 -0.465921
O22   O     O_3   0.952488 0.818883 0.136689 -0.463514
O23   O     O_3   0.453025 0.680944 0.636524 -0.465350
O24   O     O_3   0.452434 0.318959 0.136969 -0.464272
H1    H     H_    0.070096 0.209347 0.718760 0.085075
H2    H     H_    0.069840 0.791338 0.218287 0.081299
H3    H     H_    0.570091 0.709351 0.717998 0.084293
H4    H     H_    0.569546 0.290673 0.219315 0.084583
C1    C     C_3   0.060296 0.112209 0.575344 0.393059
C2    C     C_3   0.058682 0.888002 0.073216 0.388589
C3    C     C_3   0.560064 0.612207 0.574701 0.391344
C4    C     C_3   0.559352 0.388064 0.076711 0.389551
H5    H     H_    0.625044 0.613298 0.581308 0.005672
H6    H     H_    0.624469 0.387275 0.084876 0.004600
H7    H     H_    0.125164 0.113482 0.580635 0.005488
H8    H     H_    0.123951 0.887763 0.083806 0.002636
P5    P     P_3+3 0.165830 0.418670 0.685610 0.505477
P6    P     P_3+3 0.165830 0.581330 0.185610 0.505460
P7    P     P_3+3 0.665830 0.918670 0.685610 0.505073
P8    P     P_3+3 0.665830 0.081330 0.185610 0.504941
P9    P     P_3+3 0.104171 0.266443 0.113579 0.494873
P10   P     P_3+3 0.103977 0.733634 0.613722 0.494103
P11   P     P_3+3 0.603988 0.766298 0.113638 0.493645
P12   P     P_3+3 0.603914 0.233708 0.613683 0.495270
O25   O     O_2   0.157990 0.394030 0.856030 -0.341775
O26   O     O_2   0.157990 0.605970 0.356030 -0.342525
O27   O     O_2   0.657990 0.894030 0.856030 -0.342823
O28   O     O_2   0.657990 0.105970 0.356030 -0.342093
O29   O     O_3   0.027110 0.329490 0.059550 -0.342495
O30   O     O_3   0.027110 0.670510 0.559550 -0.342093
O31   O     O_3   0.527110 0.829490 0.059550 -0.343604
O32   O     O_3   0.527110 0.170510 0.559550 -0.340867
O33   O     O_2   0.168138 0.284093 0.015637 -0.372911
O34   O     O_2   0.168164 0.715633 0.516516 -0.374103
O35   O     O_2   0.668232 0.784308 0.016678 -0.373124
O36   O     O_2   0.668106 0.215782 0.516454 -0.373226
O37   O     O_3   0.245746 0.478344 0.724494 -0.523244
O38   O     O_3   0.245871 0.521686 0.224058 -0.523018
O39   O     O_3   0.745617 0.978482 0.724721 -0.522075
O40   O     O_3   0.745719 0.021499 0.225198 -0.522053
O41   O     O_3   0.071821 0.182350 0.035021 -0.598060
O42   O     O_3   0.071596 0.817615 0.533962 -0.598399
O43   O     O_3   0.571583 0.682469 0.033469 -0.597329
O44   O     O_3   0.571316 0.317561 0.533605 -0.597097
C5    C     C_3   0.997715 0.164367 0.069234 1.088158
C6    C     C_3   0.997695 0.836184 0.568653 1.091320
C7    C     C_3   0.498069 0.663629 0.069283 1.092750
C8    C     C_3   0.498118 0.336728 0.570716 1.091807
H9    H     H_    0.949463 0.184850 0.970802 0.051902
H10   H     H_    0.949256 0.815936 0.470436 0.052096
H11   H     H_    0.449305 0.683472 0.971325 0.051758
H12   H     H_    0.449016 0.317752 0.472407 0.051220
C9    C     C_3   0.994481 0.082902 0.075121 -0.812649
C10   C     C_3   0.994904 0.917728 0.574348 -0.821398
C11   C     C_3   0.495963 0.582179 0.075843 -0.823831
C12   C     C_3   0.496758 0.418179 0.579803 -0.821375
H13   H     H_    0.443879 0.562836 0.120511 0.275896
H14   H     H_    0.444593 0.437576 0.624247 0.274322
H15   H     H_    0.941407 0.064085 0.117085 0.273691
H16   H     H_    0.942069 0.936968 0.616792 0.273840
H17   H     H_    0.993954 0.059771 0.953048 0.271932
H18   H     H_    0.994271 0.940692 0.452076 0.271905
H19   H     H_    0.494477 0.559058 0.953360 0.270998
H20   H     H_    0.495834 0.442033 0.458196 0.272403
C13   C     C_3   0.223203 0.455646 0.279523 0.487910
C14   C     C_3   0.222640 0.544532 0.778583 0.488246
C15   C     C_3   0.722052 0.955121 0.277247 0.490545
C16   C     C_3   0.722135 0.044707 0.777786 0.491595
H21   H     H_    0.183857 0.462804 0.367403 0.061437
H22   H     H_    0.183242 0.537559 0.866431 0.061635
H23   H     H_    0.682533 0.961909 0.364969 0.059954
H24   H     H_    0.682529 0.037817 0.865247 0.059742
H25   H     H_    0.192153 0.423206 0.174559 0.120904
H26   H     H_    0.191441 0.576515 0.672927 0.121717
H27   H     H_    0.690703 0.923846 0.170575 0.122484
H28   H     H_    0.691002 0.076388 0.671668 0.122226
C17   C     C_3   0.298173 0.416704 0.364259 -0.846234
C18   C     C_3   0.297293 0.584052 0.862706 -0.848297
C19   C     C_3   0.796263 0.914629 0.360712 -0.849986
C20   C     C_3   0.796455 0.084598 0.861987 -0.851633
H29   H     H_    0.316673 0.437948 0.489991 0.257528
H30   H     H_    0.315185 0.564375 0.989918 0.256184
H31   H     H_    0.813043 0.932189 0.489764 0.252043
H32   H     H_    0.813469 0.065898 0.989829 0.253766
H33   H     H_    0.288019 0.357853 0.368979 0.215946
H34   H     H_    0.286995 0.643020 0.863577 0.218490
H35   H     H_    0.785872 0.855601 0.356375 0.221660
H36   H     H_    0.786170 0.143477 0.860449 0.219872
H37   H     H_    0.347245 0.425864 0.298777 0.309430
H38   H     H_    0.346853 0.573866 0.799044 0.308738
H39   H     H_    0.846585 0.926086 0.300013 0.310266
H40   H     H_    0.846534 0.073848 0.800352 0.309332
Ba1   Ba    Ba6+2 1.000000 0.447380 0.844850 1.676417
Ba2   Ba    Ba6+2 1.000000 0.552620 0.344850 1.676050
Ba3   Ba    Ba6+2 0.500000 0.947380 0.844850 1.676433
Ba4   Ba    Ba6+2 0.500000 0.052620 0.344850 1.676314
C21   C     C_3   0.771973 0.544137 0.915962 0.365293
C22   C     C_3   0.772214 0.455705 0.417458 0.365874
C23   C     C_3   0.271736 0.043839 0.914070 0.363773
C24   C     C_3   0.272712 0.954765 0.424951 0.369244
H41   H     H_    0.771168 0.541717 0.784003 0.105691
H42   H     H_    0.772080 0.457610 0.285737 0.105249
H43   H     H_    0.269853 0.040681 0.781756 0.102758
H44   H     H_    0.275223 0.953831 0.294330 0.102355
H45   H     H_    0.830464 0.563292 0.983665 0.158267
H46   H     H_    0.830432 0.436522 0.486640 0.159025
H47   H     H_    0.330652 0.063001 0.979499 0.157584
H48   H     H_    0.329733 0.936002 0.500374 0.162126
C25   C     C_3   0.710758 0.598384 0.946410 -0.881382
C26   C     C_3   0.710627 0.401883 0.447535 -0.885584
C27   C     C_3   0.211144 0.098618 0.945246 -0.873403
C28   C     C_3   0.209651 0.902729 0.455144 -0.896408
H49   H     H_    0.650690 0.574953 0.913618 0.321702
H50   H     H_    0.650583 0.425093 0.410476 0.321030
H51   H     H_    0.151031 0.074976 0.917425 0.322091
H52   H     H_    0.150333 0.922788 0.396270 0.315813
H53   H     H_    0.713230 0.648003 0.874225 0.191003
H54   H     H_    0.714217 0.351461 0.378612 0.192304
H55   H     H_    0.212372 0.147364 0.869510 0.188122
H56   H     H_    0.219017 0.848566 0.406491 0.202697
H57   H     H_    0.722098 0.612422 0.077249 0.262273
H58   H     H_    0.720467 0.389345 0.579071 0.263182
H59   H     H_    0.224318 0.114288 0.075217 0.261811
H60   H     H_    0.211693 0.898944 0.587810 0.266298
O45   O     O_3   0.092100 0.536880 0.086720 -0.401051
O46   O     O_3   0.092100 0.463120 0.586720 -0.401695
O47   O     O_3   0.592100 0.036880 0.086720 -0.402737
O48   O     O_3   0.592100 0.963120 0.586720 -0.401953
P13   P     P_3+3 0.902814 0.737660 0.083123 0.586963
P14   P     P_3+3 0.903115 0.262154 0.583235 0.586986
P15   P     P_3+3 0.402856 0.237687 0.083265 0.587879
P16   P     P_3+3 0.403047 0.762184 0.583414 0.586595
C29   C     C_3   0.030695 0.186580 0.608784 0.295967
C30   C     C_3   0.030004 0.813545 0.108164 0.300470
C31   C     C_3   0.530542 0.686588 0.608273 0.299364
C32   C     C_3   0.530111 0.313529 0.109438 0.300131
H61   H     H_    0.034575 0.221001 0.502698 0.054354
H62   H     H_    0.034054 0.778839 0.002579 0.053267
H63   H     H_    0.534244 0.721005 0.502138 0.053671
H64   H     H_    0.534216 0.279298 0.003203 0.053884
H65   H     H_    0.530238 0.593677 0.451695 0.156423
H66   H     H_    0.530025 0.406524 0.953290 0.154791
H67   H     H_    0.030002 0.093406 0.452884 0.155898
H68   H     H_    0.030128 0.905251 0.948457 0.157321
H69   H     H_    0.550271 0.563358 0.160577 0.272907
H70   H     H_    0.551030 0.436212 0.665911 0.271854
H71   H     H_    0.047945 0.063576 0.161955 0.273504
H72   H     H_    0.048578 0.936902 0.660537 0.274002
C33   C     C_R   0.138903 0.677977 0.928603 -0.492711
C34   C     C_R   0.139120 0.322297 0.428207 -0.492596
C35   C     C_R   0.638829 0.178068 0.928665 -0.490366
C36   C     C_R   0.638781 0.822016 0.428481 -0.491168
C37   C     C_R   0.862454 0.324228 0.271226 0.382003
C38   C     C_R   0.862491 0.675720 0.771089 0.381754
C39   C     C_R   0.361975 0.824534 0.271835 0.378824
C40   C     C_R   0.362608 0.175813 0.771026 0.383132
C41   C     C_R   0.801009 0.209082 0.300223 0.248081
C42   C     C_R   0.800979 0.790908 0.799921 0.248016
C43   C     C_R   0.301018 0.709072 0.300251 0.249096
C44   C     C_R   0.300845 0.290841 0.800320 0.249898
C45   C     C_R   0.850375 0.265739 0.367445 0.009354
C46   C     C_R   0.850293 0.734184 0.867272 0.008483
C47   C     C_R   0.350232 0.765807 0.367679 0.003142
C48   C     C_R   0.350282 0.234175 0.867430 0.008600
C49   C     C_R   0.816984 0.333601 0.113795 0.095009
C50   C     C_R   0.816996 0.666368 0.613712 0.094908
C51   C     C_R   0.316877 0.833664 0.113989 0.099494
C52   C     C_R   0.317049 0.166426 0.613693 0.093523
C53   C     C_R   0.757252 0.280865 0.051528 -0.167014
C54   C     C_R   0.757240 0.719120 0.551400 -0.167058
C55   C     C_R   0.257304 0.780813 0.051530 -0.167487
C56   C     C_R   0.257323 0.219207 0.551423 -0.168519
C57   C     C_R   0.248433 0.717502 0.146092 -0.232227
C58   C     C_R   0.248402 0.282506 0.646010 -0.233924
C59   C     C_R   0.748441 0.217510 0.146034 -0.232749
C60   C     C_R   0.748431 0.782501 0.645782 -0.232692
C61   C     C_R   0.186481 0.666492 0.082483 0.260773
C62   C     C_R   0.186510 0.333593 0.582323 0.260501
C63   C     C_R   0.686492 0.166511 0.082460 0.259082
C64   C     C_R   0.686477 0.833544 0.582236 0.259525
C65   C     C_R   0.152715 0.734981 0.831401 0.263706
C66   C     C_R   0.152954 0.265236 0.331125 0.264263
C67   C     C_R   0.652570 0.235124 0.831483 0.263308
C68   C     C_R   0.652519 0.764892 0.331413 0.262093
C69   C     C_R   0.208821 0.787579 0.894372 -0.160716
C70   C     C_R   0.208819 0.212424 0.394327 -0.160069
C71   C     C_R   0.708600 0.287771 0.894554 -0.161498
C72   C     C_R   0.708564 0.712201 0.394502 -0.162086
H73   H     H_    0.714476 0.333030 0.818067 0.167428
H74   H     H_    0.714401 0.666891 0.318074 0.168027
H75   H     H_    0.214924 0.832658 0.817608 0.168070
H76   H     H_    0.214620 0.167111 0.317849 0.168799
H77   H     H_    0.093641 0.639134 0.878533 0.196317
H78   H     H_    0.093940 0.361260 0.377983 0.196054
H79   H     H_    0.593552 0.139239 0.878615 0.196446
H80   H     H_    0.593476 0.860887 0.378408 0.195353
N1    N     N_R   0.317519 0.640281 0.375744 0.285100
O49   O     O_R   0.371932 0.600802 0.332599 -0.377536
O50   O     O_R   0.300478 0.628473 0.517189 -0.344432
N2    N     N_R   0.317188 0.359560 0.876134 0.285099
O51   O     O_R   0.371661 0.399031 0.833467 -0.378313
O52   O     O_R   0.300086 0.371196 0.017603 -0.343437
N3    N     N_R   0.817326 0.140337 0.376068 0.285124
O53   O     O_R   0.871811 0.100748 0.333497 -0.376984
O54   O     O_R   0.800220 0.128777 0.517549 -0.342936
N4    N     N_R   0.817504 0.859712 0.875236 0.285133
O55   O     O_R   0.871885 0.899099 0.831891 -0.375390
O56   O     O_R   0.800502 0.871628 0.016692 -0.342357
F1    F     F_    0.919311 0.372861 0.332952 -0.672790
F2    F     F_    0.919500 0.627128 0.832774 -0.672929
F3    F     F_    0.417968 0.873782 0.334519 -0.673136
F4    F     F_    0.419897 0.127420 0.832356 -0.672891
F5    F     F_    0.044075 0.064636 0.689993 -0.696039
F6    F     F_    0.038763 0.936328 0.182639 -0.694169
F7    F     F_    0.543063 0.564496 0.688310 -0.696203
F8    F     F_    0.541182 0.435610 0.189592 -0.695270
F9    F     F_    0.986969 0.190830 0.217530 -0.771579
F10   F     F_    0.986883 0.809837 0.717008 -0.771934
F11   F     F_    0.487349 0.690117 0.217580 -0.772240
F12   F     F_    0.487386 0.309505 0.718373 -0.771875

loop_
_geom_bond_atom_site_label_1
_geom_bond_atom_site_label_2
_geom_bond_distance
_ccdc_geom_bond_type
C4    F8    1.376855 S    
P10   C65   1.846007 S    
C59   C63   1.445191 A    
P1    O17   1.749844 S    
P9    C66   1.845154 S    
O5    Ba2   2.841977 S    
O16   P15   1.546962 D    
C6    C10   1.516489 S    
Ba1   Ba2   4.626557 S    
C17   H37   1.112126 S    
P4    C52   1.892683 S    
C5    C9    1.515483 S    
C35   C67   1.386852 A    
C25   H49   1.104505 S    
C8    H12   1.110541 S    
C5    F9    1.384672 S    
N2    O51   1.298451 A    
C11   H19   1.108819 S    
P2    Ba2   3.432888 S    
P7    O39   1.746142 S    
O31   Ba3   2.812093 S    
P8    O40   1.746325 S    
C27   H51   1.105212 S    
C26   H54   1.108958 S    
P9    O33   1.539552 D    
C43   C57   1.426432 A    
P1    C49   1.893412 S    
P11   C68   1.845830 S    
P1    O1    1.533589 D    
C12   H70   1.109419 S    
C52   C56   1.438807 A    
C33   C61   1.395487 A    
C5    H9    1.111080 S    
C3    H5    1.109785 S    
C55   C69   1.413360 A    
P3    O3    1.533589 D    
P15   C48   1.851136 S    
O12   Ba4   2.812756 S    
O41   C5    1.405666 S    
P4    O20   1.749576 S    
C54   C72   1.413297 A    
O29   Ba1   2.812093 S    
O9    Ba1   2.813370 S    
C53   C71   1.413506 A    
C39   C47   1.394400 A    
P13   C46   1.850968 S    
P8    Ba4   3.435902 S    
O23   C31   1.407711 S    
C32   H64   1.108580 S    
O38   C13   1.396178 S    
C16   H24   1.107364 S    
C8    C12   1.515294 S    
C37   C45   1.394404 A    
C24   H48   1.109313 S    
C19   H35   1.110523 S    
C42   C46   1.397226 A    
P11   O43   1.742273 S    
O23   P16   1.748480 S    
Ba2   O46   2.840384 S    
P6    O45   1.597411 S    
C36   C64   1.395784 A    
C22   C26   1.516978 S    
C40   C48   1.394378 A    
C3    H65   1.108564 S    
C20   H40   1.111274 S    
P3    O19   1.749886 S    
C28   H52   1.104083 S    
C42   N4    1.428296 S    
C54   C60   1.443873 A    
C36   C68   1.386915 A    
O11   Ba3   2.813370 S    
O10   Ba2   2.812756 S    
P2    C50   1.892089 S    
O39   C16   1.395800 S    
C6    H10   1.110942 S    
P8    C63   1.872515 S    
O27   Ba3   2.879611 S    
C57   C61   1.445420 A    
Ba1   O46   2.950403 S    
C34   H78   1.082285 S    
C31   H63   1.108375 S    
P5    O37   1.746131 S    
P4    O8    1.591273 S    
C33   H77   1.082279 S    
P6    O38   1.745845 S    
C49   C53   1.439473 A    
P4    O4    1.533658 D    
C24   H44   1.105311 S    
C21   C25   1.517303 S    
C56   C70   1.413226 A    
P8    O28   1.532905 D    
C27   H55   1.108745 S    
C1    F5    1.376419 S    
P9    O29   1.757765 S    
O20   C24   1.400018 S    
C7    H11   1.110039 S    
P10   O34   1.539491 D    
C67   C71   1.399886 A    
O15   P16   1.547134 D    
O32   Ba4   2.812704 S    
P2    O2    1.533658 D    
C2    H68   1.107865 S    
O13   P14   1.547145 D    
P5    O25   1.532972 D    
C68   C72   1.399503 A    
C1    C29   1.518173 S    
P12   O36   1.539398 D    
C50   C54   1.438860 A    
C3    C31   1.518137 S    
N3    O54   1.298029 A    
C10   H18   1.108594 S    
C17   H29   1.109557 S    
C26   H58   1.105825 S    
P14   C45   1.851628 S    
O25   Ba1   2.879611 S    
Ba4   O48   2.840384 S    
P8    O47   1.597411 S    
C37   C49   1.400515 A    
C24   C28   1.514618 S    
C42   C60   1.426130 A    
O3    Ba3   2.877758 S    
C3    F7    1.376354 S    
C39   F3    1.355283 S    
C40   C52   1.400603 A    
C20   H36   1.107459 S    
C15   C19   1.523440 S    
C8    F12   1.384828 S    
C38   F2    1.355228 S    
C16   C20   1.522202 S    
P7    O48   1.596306 S    
P6    Ba2   3.435902 S    
C37   F1    1.355227 S    
P5    O46   1.596306 S    
C53   C59   1.444297 A    
C23   H47   1.108942 S    
C13   H21   1.107234 S    
C41   N3    1.428313 S    
C7    C11   1.514696 S    
C44   C48   1.396981 A    
C13   H25   1.109500 S    
O44   C8    1.405419 S    
O1    Ba1   2.877758 S    
C22   H42   1.104783 S    
Ba2   O45   2.950139 S    
C19   H39   1.112751 S    
C21   H41   1.104820 S    
N1    O49   1.298544 A    
C18   H38   1.112412 S    
P3    C51   1.893741 S    
C60   C64   1.444567 A    
O24   P15   1.747999 S    
O8    Ba3   2.840414 S    
C66   C70   1.399407 A    
C23   H43   1.104999 S    
N3    O53   1.298604 A    
C34   C62   1.395484 A    
C65   C69   1.399842 A    
C9    H71   1.109601 S    
P10   O30   1.757993 S    
O12   P15   1.723348 S    
C10   H72   1.109116 S    
P1    O5    1.592366 S    
C1    H7    1.109734 S    
P12   O44   1.742372 S    
N4    O56   1.298123 A    
O11   P16   1.724307 S    
C28   H60   1.108139 S    
O14   P13   1.547058 D    
P3    Ba3   3.433619 S    
P6    O26   1.532905 D    
C38   C50   1.400410 A    
C58   C62   1.444639 A    
O28   Ba4   2.881186 S    
C56   C58   1.444042 A    
C71   H73   1.074880 S    
C72   H74   1.075035 S    
C4    C32   1.517947 S    
C44   C58   1.426293 A    
O30   Ba2   2.812704 S    
O24   C32   1.407771 S    
P9    O41   1.742144 S    
C2    H8    1.109779 S    
C18   H34   1.109736 S    
C25   H57   1.105477 S    
O22   P13   1.747768 S    
P2    O6    1.591273 S    
C29   H61   1.108783 S    
C20   H32   1.107520 S    
O37   C14   1.396196 S    
C16   H28   1.108661 S    
P11   O31   1.757390 S    
P16   C47   1.851624 S    
Ba3   O48   2.950403 S    
P12   O32   1.758109 S    
O4    Ba4   2.876197 S    
O19   C23   1.399775 S    
Ba4   O47   2.950139 S    
O7    Ba4   2.841977 S    
C2    C30   1.517786 S    
C13   C17   1.522384 S    
O21   P14   1.748626 S    
O26   Ba2   2.881186 S    
C35   H79   1.082246 S    
H1    C29   1.110516 S    
H2    C30   1.110371 S    
C21   H45   1.108983 S    
P6    C61   1.872073 S    
N2    O52   1.298057 A    
C26   H50   1.104451 S    
Ba1   O45   2.841946 S    
Ba3   Ba4   4.626557 S    
C11   H13   1.101687 S    
P10   O42   1.742753 S    
C12   H20   1.109062 S    
P4    Ba4   3.432888 S    
C22   H46   1.108966 S    
C7    F11   1.384691 S    
C27   H59   1.105736 S    
C69   H75   1.074554 S    
N1    O50   1.298050 A    
C19   H31   1.110289 S    
C15   H27   1.109623 S    
C11   H69   1.108455 S    
C4    H6    1.110042 S    
H4    C32   1.110389 S    
C35   C63   1.395702 A    
O10   P13   1.723554 S    
O6    Ba1   2.840414 S    
C14   C18   1.522962 S    
P2    O18   1.749819 S    
C6    F10   1.384835 S    
O21   C29   1.408077 S    
P7    O27   1.532972 D    
C41   C45   1.397544 A    
O42   C6    1.405976 S    
C9    H17   1.108593 S    
C70   H76   1.075215 S    
P12   C67   1.846582 S    
C14   H22   1.107425 S    
P11   O35   1.539358 D    
C12   H14   1.101821 S    
C14   H26   1.109298 S    
O22   C30   1.407946 S    
O43   C7    1.405184 S    
O17   C21   1.399798 S    
N4    O55   1.298766 A    
C2    F6    1.376526 S    
C51   C55   1.439541 A    
O9    P14   1.724070 S    
Ba3   O47   2.841946 S    
P3    O7    1.592366 S    
C30   H62   1.109019 S    
C15   H23   1.107615 S    
C38   C46   1.394132 A    
C10   H16   1.102755 S    
C44   N2    1.428239 S    
C39   C51   1.400525 A    
C43   N1    1.428214 S    
C40   F4    1.355207 S    
C28   H56   1.109761 S    
C4    H66   1.108508 S    
C36   H80   1.082244 S    
C18   H30   1.109648 S    
C23   C27   1.517994 S    
P7    C64   1.872019 S    
C34   C66   1.386575 A    
C9    H15   1.102427 S    
C1    H67   1.108568 S    
O18   C22   1.399781 S    
C33   C65   1.386594 A    
C25   H53   1.108369 S    
O40   C15   1.396849 S    
P5    Ba1   3.435155 S    
P5    C62   1.871038 S    
P1    Ba1   3.433619 S    
C17   H33   1.109217 S    
O2    Ba2   2.876197 S    
H3    C31   1.110133 S    
C43   C47   1.397745 A    
P7    Ba3   3.435155 S    
C55   C57   1.444122 A    
C41   C59   1.426492 A    
