data_mof_unit_11907.cif
_audit_creation_date              2012-12-11T15:33:41-0500
_audit_creation_method            fapswitch 2.2
_symmetry_space_group_name_H-M    P1
_symmetry_Int_Tables_number       1
_space_group_crystal_system       triclinic
_cell_length_a                    27.039948
_cell_length_b                    7.204135
_cell_length_c                    22.762097
_cell_angle_alpha                 89.995592
_cell_angle_beta                  101.326107
_cell_angle_gamma                 89.997526
_cell_volume                      4347.69184394

loop_
_atom_site_label
_atom_site_type_symbol
_atom_type_description
_atom_site_fract_x
_atom_site_fract_y
_atom_site_fract_z
_atom_type_partial_charge
O1    O     O_R   0.207310 0.594030 0.676830 -0.532085
O2    O     O_R   0.792690 0.405970 0.323170 -0.531009
O3    O     O_R   0.292690 0.094030 0.823170 -0.532086
O4    O     O_R   0.707310 0.905970 0.176830 -0.531006
O5    O     O_R   0.197320 0.262370 0.795700 -0.539718
O6    O     O_R   0.802680 0.737630 0.204300 -0.539705
O7    O     O_R   0.302680 0.762370 0.704300 -0.539719
O8    O     O_R   0.697320 0.237630 0.295700 -0.539699
C1    C     C_R   0.184647 0.432496 0.811918 0.677251
C2    C     C_R   0.815335 0.567508 0.188058 0.676670
C3    C     C_R   0.315353 0.932497 0.688082 0.677278
C4    C     C_R   0.684665 0.067506 0.311942 0.676686
O9    O     O_R   0.201410 0.264250 0.675590 -0.533279
O10   O     O_R   0.798590 0.735750 0.324410 -0.534324
O11   O     O_R   0.298590 0.764250 0.824410 -0.533291
O12   O     O_R   0.701410 0.235750 0.175590 -0.534323
O13   O     O_R   0.296810 0.094940 0.702210 -0.538052
O14   O     O_R   0.703190 0.905060 0.297790 -0.537685
O15   O     O_R   0.203190 0.594940 0.797790 -0.538060
O16   O     O_R   0.796810 0.405060 0.202210 -0.537686
C5    C     C_R   0.189658 0.432337 0.653405 0.686638
C6    C     C_R   0.810394 0.567292 0.346530 0.686315
C7    C     C_R   0.310341 0.932317 0.846597 0.686638
C8    C     C_R   0.689605 0.067311 0.153469 0.686318
O17   O     O_3   0.281300 0.427390 0.758870 -0.371828
O18   O     O_3   0.718700 0.572610 0.241130 -0.371400
O19   O     O_3   0.218700 0.927390 0.741130 -0.371827
O20   O     O_3   0.781300 0.072610 0.258870 -0.371410
V1    V     V_3+5 0.244190 0.152150 0.748350 1.418015
V2    V     V_3+5 0.755810 0.847850 0.251650 1.421591
V3    V     V_3+5 0.255810 0.652150 0.751650 1.418001
V4    V     V_3+5 0.744190 0.347850 0.248350 1.421614
C9    C     C_R   0.654947 0.059098 0.094691 -0.051153
C10   C     C_R   0.345577 0.933700 0.905080 -0.052610
C11   C     C_R   0.845053 0.559000 0.405305 -0.051118
C12   C     C_R   0.154426 0.433810 0.594923 -0.052522
C13   C     C_R   0.641680 0.088315 0.986966 -0.137951
C14   C     C_R   0.362532 0.838128 0.008911 -0.137710
C15   C     C_R   0.858295 0.587558 0.513044 -0.137922
C16   C     C_R   0.137533 0.339081 0.491020 -0.137673
C17   C     C_R   0.673402 0.098710 0.042995 -0.153127
C18   C     C_R   0.328704 0.866576 0.955190 -0.148029
C19   C     C_R   0.826579 0.598197 0.457015 -0.153131
C20   C     C_R   0.171342 0.367309 0.544768 -0.148099
C21   C     C_R   0.603911 0.010192 0.089846 -0.209085
C22   C     C_R   0.397204 0.972750 0.909381 -0.213898
C23   C     C_R   0.896101 0.510289 0.410133 -0.209122
C24   C     C_R   0.102780 0.472471 0.590642 -0.213890
C25   C     C_R   0.571377 0.987677 0.032868 0.083180
C26   C     C_R   0.433284 0.928106 0.962181 0.084343
C27   C     C_R   0.928632 0.487517 0.467103 0.083192
C28   C     C_R   0.066729 0.428077 0.537798 0.084348
C29   C     C_R   0.591056 0.034365 0.981482 0.061271
C30   C     C_R   0.414423 0.866695 0.012742 0.062498
C31   C     C_R   0.908931 0.533752 0.518510 0.061270
C32   C     C_R   0.085627 0.367273 0.487198 0.062491
C33   C     C_R   0.519632 0.928471 0.025124 -0.085134
C34   C     C_R   0.487058 0.945388 0.967197 -0.085460
C35   C     C_R   0.980393 0.428495 0.474825 -0.085149
C36   C     C_R   0.012948 0.445092 0.532774 -0.085490
C37   C     C_R   0.510160 0.971659 0.916615 0.347456
C38   C     C_R   0.499232 0.847171 0.072285 0.348144
C39   C     C_R   0.989823 0.470838 0.583361 0.347459
C40   C     C_R   0.000834 0.347715 0.427616 0.348156
C41   C     C_R   0.560697 0.022140 0.924589 -0.182675
C42   C     C_R   0.447406 0.825183 0.066227 -0.180939
C43   C     C_R   0.939278 0.521203 0.575402 -0.182642
C44   C     C_R   0.052669 0.326017 0.433673 -0.180931
H1    H     H_    0.576874 0.045909 0.885243 0.150152
H2    H     H_    0.432942 0.766580 0.103394 0.149617
H3    H     H_    0.923084 0.544606 0.614756 0.150150
H4    H     H_    0.067165 0.267850 0.396468 0.149616
H5    H     H_    0.408093 0.035726 0.870859 0.154963
H6    H     H_    0.590276 0.996652 0.131110 0.153017
H7    H     H_    0.091857 0.535014 0.629209 0.154905
H8    H     H_    0.909743 0.497076 0.368865 0.153002
H9    H     H_    0.289206 0.833649 0.952426 0.105855
H10   H     H_    0.712517 0.137891 0.046060 0.106475
H11   H     H_    0.210858 0.334718 0.547515 0.105820
H12   H     H_    0.787453 0.637220 0.453964 0.106454
H13   H     H_    0.656933 0.121329 0.947597 0.118925
H14   H     H_    0.348211 0.787346 0.047179 0.118200
H15   H     H_    0.843028 0.620246 0.552427 0.118924
H16   H     H_    0.151885 0.288786 0.452716 0.118201
C45   C     C_R   0.629593 0.881917 0.367739 -0.148742
C46   C     C_R   0.370422 0.118087 0.632283 -0.150203
C47   C     C_R   0.870407 0.381920 0.132263 -0.148725
C48   C     C_R   0.129579 0.618084 0.867717 -0.150242
H17   H     H_    0.644818 0.754368 0.353437 0.125307
H18   H     H_    0.355114 0.245629 0.646474 0.124251
H19   H     H_    0.855182 0.254371 0.146566 0.125303
H20   H     H_    0.144887 0.745626 0.853525 0.124258
C49   C     C_R   0.593711 0.868958 0.404292 -0.133910
C50   C     C_R   0.406354 0.131048 0.595796 -0.133346
C51   C     C_R   0.906290 0.368961 0.095711 -0.133898
C52   C     C_R   0.093647 0.631045 0.904204 -0.133353
H21   H     H_    0.582612 0.732348 0.416765 0.134295
H22   H     H_    0.417405 0.267652 0.583259 0.134016
H23   H     H_    0.917388 0.232351 0.083239 0.134294
H24   H     H_    0.082597 0.767649 0.916740 0.134020
C53   C     C_R   0.572644 0.029419 0.424569 0.018836
C54   C     C_R   0.427520 0.970594 0.575650 0.019713
C55   C     C_R   0.927357 0.529421 0.075432 0.018835
C56   C     C_R   0.072480 0.470592 0.924350 0.019710
C57   C     C_R   0.588403 0.203631 0.406906 -0.129308
C58   C     C_R   0.411821 0.796391 0.593394 -0.127655
C59   C     C_R   0.911598 0.703633 0.093093 -0.129296
C60   C     C_R   0.088178 0.296389 0.906608 -0.127641
H25   H     H_    0.573053 0.330442 0.421556 0.139961
H26   H     H_    0.427252 0.669586 0.578852 0.139492
H27   H     H_    0.926948 0.830444 0.078442 0.139963
H28   H     H_    0.072746 0.169585 0.921150 0.139492
C61   C     C_R   0.624387 0.216736 0.370211 -0.154122
C62   C     C_R   0.375790 0.783285 0.630028 -0.152224
C63   C     C_R   0.875614 0.716737 0.129789 -0.154119
C64   C     C_R   0.124208 0.283284 0.869973 -0.152183
H29   H     H_    0.635665 0.353212 0.357848 0.122182
H30   H     H_    0.364564 0.646814 0.642460 0.120908
H31   H     H_    0.864336 0.853213 0.142150 0.122176
H32   H     H_    0.135434 0.146813 0.857542 0.120905
C65   C     C_R   0.645640 0.055912 0.350166 -0.046121
C66   C     C_R   0.354426 0.944098 0.649923 -0.044198
C67   C     C_R   0.854361 0.555915 0.149834 -0.046111
C68   C     C_R   0.145574 0.444096 0.850077 -0.044197
N1    N     N_R   0.514201 0.168478 0.483986 -0.277420
N2    N     N_R   0.485991 0.831535 0.516271 -0.277306
N3    N     N_R   0.985800 0.668478 0.016014 -0.277416
N4    N     N_R   0.014009 0.331535 0.983731 -0.277301
N5    N     N_R   0.480389 0.154468 0.519286 -0.282601
N6    N     N_R   0.519802 0.845545 0.480970 -0.282592
N7    N     N_R   0.019612 0.654466 0.980713 -0.282601
N8    N     N_R   0.980198 0.345546 0.019033 -0.282590
C69   C     C_R   0.465486 0.985722 0.536277 0.516388
C70   C     C_R   0.534703 0.014290 0.463976 0.516227
C71   C     C_R   0.034514 0.485721 0.963723 0.516389
C72   C     C_R   0.965298 0.514292 0.036025 0.516230
O21   O     O_3   0.486770 0.929031 0.858883 -0.646730
H33   H     H_    0.466164 0.816095 0.860793 0.287880
O22   O     O_3   0.528472 0.767110 0.122207 -0.646740
H34   H     H_    0.557552 0.706778 0.109322 0.290003
O23   O     O_3   0.013204 0.427808 0.641066 -0.646721
H35   H     H_    0.033843 0.315002 0.639077 0.287889
O24   O     O_3   0.971631 0.267892 0.377632 -0.646736
H36   H     H_    0.942569 0.207274 0.390466 0.289981

loop_
_geom_bond_atom_site_label_1
_geom_bond_atom_site_label_2
_ccdc_geom_bond_type
N1    C70   A    
O17   V3    S    
C48   C52   A    
O1    C5    A    
C56   C71   S    
C47   H19   S    
O19   V1    S    
C9    C21   A    
C16   H16   S    
O3    C7    A    
C10   C18   A    
C48   C68   A    
O15   V3    S    
C25   C33   A    
C33   C38   A    
C5    C12   S    
C53   C70   S    
O7    C3    A    
C6    C11   S    
C35   C40   A    
C26   C30   A    
C58   C62   A    
C36   C39   A    
C40   C44   A    
C57   C61   A    
C23   H8    S    
C14   C18   A    
N7    C71   A    
C58   H26   S    
O4    C8    A    
C51   H23   S    
C44   H4    S    
C50   H22   S    
O24   H36   S    
O1    V3    S    
C1    C68   S    
O13   V1    S    
O2    V4    S    
O3    V1    S    
C46   C50   A    
C45   C49   A    
C1    O15   A    
C15   C31   A    
C4    C65   S    
C48   H20   S    
N2    C69   A    
C2    O16   A    
C16   C32   A    
C47   C51   A    
O2    C6    A    
C45   C65   A    
C10   C22   A    
C38   O22   S    
C11   C19   A    
C16   C20   A    
C43   H3    S    
O8    C4    A    
C13   C29   A    
C34   C37   A    
O11   C7    A    
C11   C23   A    
C35   C36   A    
O12   C8    A    
C14   H14   S    
O10   C6    A    
C24   H7    S    
C13   H13   S    
N6    C70   A    
O10   V2    S    
N4    N8    A    
C51   C55   A    
O5    V1    S    
C53   C57   A    
C39   C43   A    
C63   C67   A    
C38   C42   A    
C26   C34   A    
O7    V3    S    
N3    C72   A    
C2    C67   S    
C46   H18   S    
N4    C71   A    
C49   C53   A    
C17   H10   S    
C45   H17   S    
O18   V4    S    
C23   C27   A    
C19   H12   S    
C32   C44   A    
C64   H32   S    
C21   H6    S    
O8    V4    S    
C55   C72   S    
O5    C1    A    
C37   C41   A    
C31   C43   A    
C14   C30   A    
C21   C25   A    
N8    C72   A    
C7    C10   S    
C39   O23   S    
O9    C5    A    
C59   C63   A    
C62   H30   S    
C61   H29   S    
O6    V2    S    
C63   H31   S    
C52   C56   A    
N1    N5    A    
O14   V2    S    
N5    C69   A    
C12   C20   A    
C3    C66   S    
C27   C35   A    
C49   H21   S    
C56   C60   A    
C29   C41   A    
O16   V4    S    
O9    V1    S    
C57   H25   S    
C3    O13   A    
C64   C68   A    
C59   H27   S    
C20   H11   S    
O6    C2    A    
C15   C19   A    
O22   H34   S    
O11   V3    S    
C30   C42   A    
C40   O24   S    
O12   V4    S    
O21   H33   S    
C22   C26   A    
C8    C9    S    
C9    C17   A    
C60   C64   A    
O20   V2    S    
C54   C69   S    
C15   H15   S    
O23   H35   S    
C47   C67   A    
C37   O21   S    
C33   C34   A    
C42   H2    S    
C41   H1    S    
C52   H24   S    
C12   C24   A    
C27   C31   A    
C13   C17   A    
C46   C66   A    
N3    N7    A    
C25   C29   A    
C62   C66   A    
C60   H28   S    
C24   C28   A    
C61   C65   A    
C50   C54   A    
C18   H9    S    
C28   C36   A    
C54   C58   A    
C4    O14   A    
N2    N6    A    
C55   C59   A    
C22   H5    S    
O4    V2    S    
C28   C32   A    
