data_mof_unit_25320.cif
_audit_creation_date              2012-12-10T16:57:02-0500
_audit_creation_method            fapswitch 2.2
_symmetry_space_group_name_H-M    P1
_symmetry_Int_Tables_number       1
_space_group_crystal_system       triclinic
_cell_length_a                    7.771398
_cell_length_b                    8.579378
_cell_length_c                    16.624459
_cell_angle_alpha                 91.825966
_cell_angle_beta                  80.624007
_cell_angle_gamma                 93.76665
_cell_volume                      1090.99290187

loop_
_atom_site_label
_atom_site_type_symbol
_atom_type_description
_atom_site_fract_x
_atom_site_fract_y
_atom_site_fract_z
_atom_type_partial_charge
C1    C     C_R   0.546223 0.794807 0.497875 0.966632
C2    C     C_R   0.430470 0.670603 0.244246 -0.169971
C3    C     C_R   0.613521 0.556370 0.859844 -0.126190
C4    C     C_R   0.456701 0.736581 0.167984 -0.109585
C5    C     C_R   0.463078 0.616635 0.905266 0.121235
C6    C     C_R   0.596214 0.692850 0.109237 0.120757
C7    C     C_R   0.312921 0.626325 0.870035 -0.106563
C8    C     C_R   0.718813 0.594556 0.129385 -0.116289
C9    C     C_R   0.315469 0.583679 0.788719 -0.206754
C10   C     C_R   0.694432 0.530508 0.206522 -0.196572
C11   C     C_2   0.453639 0.651470 0.992111 0.418017
C12   C     C_R   0.453790 0.205189 0.502009 0.976289
C13   C     C_2   0.591229 0.716110 0.023432 0.407631
C14   C     C_2   0.570573 0.958265 0.496564 -0.373873
C15   C     C_2   0.429466 0.041699 0.503086 -0.382082
C16   C     C_R   0.477697 0.504703 0.654646 0.868001
C17   C     C_R   0.524225 0.507190 0.345838 0.858498
C18   C     C_R   0.468486 0.530217 0.742129 -0.038817
C19   C     C_R   0.546487 0.563888 0.263167 -0.040627
C20   C     C_R   0.616718 0.514776 0.778419 -0.198319
F1    F     F_    0.739031 0.771993 0.974731 -0.690583
F2    F     F_    0.306413 0.596971 0.041985 -0.687473
H1    H     H_    0.735333 0.471860 0.743862 0.160357
H2    H     H_    0.296264 0.990531 0.509292 0.180494
H3    H     H_    0.022820 0.380280 0.439383 0.194174
H4    H     H_    0.977172 0.619686 0.560640 0.191084
H5    H     H_    0.319679 0.703576 0.288432 0.159716
H6    H     H_    0.788141 0.452288 0.221232 0.167150
H7    H     H_    0.199082 0.596251 0.762022 0.166149
H8    H     H_    0.194362 0.668104 0.905287 0.192851
H9    H     H_    0.826433 0.559450 0.083909 0.186097
H10   H     H_    0.361977 0.813375 0.152843 0.163374
H11   H     H_    0.727495 0.538651 0.887409 0.176820
H12   H     H_    0.703780 0.009423 0.490330 0.180781
N1    N     N_2   0.953500 0.457650 0.478520 -0.172336
N2    N     N_2   0.046500 0.542350 0.521480 -0.175301
O1    O     O_R   0.388470 0.738640 0.505270 -0.614570
O2    O     O_R   0.611530 0.261360 0.494730 -0.609254
O3    O     O_R   0.679650 0.711510 0.491500 -0.626644
O4    O     O_R   0.320350 0.288490 0.508500 -0.624456
O5    O     O_R   0.337210 0.515200 0.623500 -0.618192
O6    O     O_R   0.662790 0.484800 0.376500 -0.612399
O7    O     O_R   0.628380 0.488060 0.609730 -0.625038
O8    O     O_R   0.371620 0.511940 0.390270 -0.625341
Zn1   Zn    Zn3+2 0.305580 0.518120 0.509190 0.942839
Zn2   Zn    Zn3+2 0.694420 0.481880 0.490810 0.948282

loop_
_geom_bond_atom_site_label_1
_geom_bond_atom_site_label_2
_ccdc_geom_bond_type
C12   O4    A    
C2    C4    A    
C3    H11   S    
C20   H1    S    
C14   H12   S    
C2    H5    S    
C9    H7    S    
C11   F2    S    
N1    N2    D    
C12   C15   S    
C1    O1    A    
C10   C19   A    
C17   O8    A    
C13   F1    S    
N2    Zn1   S    
C7    H8    S    
C6    C13   S    
C11   C13   D    
C16   O7    A    
C4    H10   S    
H3    N1    S    
O3    Zn2   S    
H4    N2    S    
C15   H2    S    
C17   C19   S    
C5    C11   S    
C18   C20   A    
C12   O2    A    
O4    Zn1   S    
O7    Zn2   S    
O2    Zn2   S    
C4    C6    A    
C1    O3    A    
O1    Zn1   S    
C7    C9    A    
C9    C18   A    
C3    C20   A    
O8    Zn1   S    
C16   C18   S    
O6    Zn2   S    
C10   H6    S    
C5    C7    A    
O5    Zn1   S    
C14   C15   D    
C6    C8    A    
C1    C14   S    
C2    C19   A    
C17   O6    A    
N1    Zn2   S    
C16   O5    A    
C8    C10   A    
C8    H9    S    
C3    C5    A    
