data_mof_unit_62462.cif
_audit_creation_date              2012-12-10T20:23:10-0500
_audit_creation_method            fapswitch 2.2
_symmetry_space_group_name_H-M    P1
_symmetry_Int_Tables_number       1
_space_group_crystal_system       triclinic
_cell_length_a                    19.099849
_cell_length_b                    18.587856
_cell_length_c                    17.499943
_cell_angle_alpha                 90.036851
_cell_angle_beta                  91.224211
_cell_angle_gamma                 90.603841
_cell_volume                      6211.15608311

loop_
_atom_site_label
_atom_site_type_symbol
_atom_type_description
_atom_site_fract_x
_atom_site_fract_y
_atom_site_fract_z
_atom_type_partial_charge
C1    C     C_R   0.365695 0.499618 0.501979 0.804849
C2    C     C_R   0.634365 0.500294 0.500609 0.822962
C3    C     C_R   0.852548 0.494560 0.543849 0.112350
C4    C     C_R   0.149795 0.498966 0.550413 0.120287
C5    C     C_R   0.709542 0.500756 0.511171 -0.014563
C6    C     C_R   0.291398 0.498576 0.516266 -0.023810
C7    C     C_R   0.964866 0.559519 0.568480 -0.176918
C8    C     C_R   0.037900 0.430592 0.557362 -0.175914
C9    C     C_R   0.037391 0.560453 0.571720 -0.185235
C10   C     C_R   0.965249 0.429483 0.555823 -0.182375
C11   C     C_R   0.074320 0.496395 0.562706 0.106570
C12   C     C_R   0.928348 0.494222 0.558110 0.110098
C13   C     C_R   0.525699 0.727146 0.562027 0.536484
C14   C     C_R   0.439172 0.272065 0.485607 0.530491
C15   C     C_R   0.473940 0.725510 0.437534 0.558726
C16   C     C_R   0.560744 0.274177 0.517032 0.552792
C17   C     C_R   0.522654 0.803048 0.563175 -0.392580
C18   C     C_R   0.438947 0.196068 0.488880 -0.388064
C19   C     C_R   0.476117 0.801440 0.434982 -0.382558
C20   C     C_R   0.562527 0.198245 0.512585 -0.397801
C21   C     C_R   0.499775 0.841540 0.498610 0.011755
C22   C     C_R   0.501122 0.157898 0.499487 0.022678
C23   C     C_R   0.451246 0.961747 0.454194 -0.183874
C24   C     C_R   0.550333 0.037704 0.542865 -0.184488
C25   C     C_R   0.550321 0.962186 0.542033 -0.181182
C26   C     C_R   0.452033 0.037300 0.453988 -0.181757
C27   C     C_R   0.501289 0.076772 0.498719 0.183969
C28   C     C_R   0.500449 0.922684 0.498146 0.185792
C29   C     C_R   0.501683 0.500193 0.353595 0.982670
C30   C     C_R   0.498942 0.499928 0.646946 0.959932
C31   C     C_R   0.503767 0.568290 0.849056 0.495004
C32   C     C_R   0.488317 0.452582 0.145899 0.531013
C33   C     C_R   0.570127 0.552673 0.162142 0.506784
C34   C     C_R   0.536323 0.442480 0.849446 0.509347
C35   C     C_R   0.488130 0.564502 0.771169 0.321126
C36   C     C_R   0.475886 0.452428 0.223873 0.333470
C37   C     C_R   0.560820 0.550873 0.240873 0.327052
C38   C     C_R   0.520195 0.437434 0.771690 0.297175
C39   C     C_R   0.501328 0.500183 0.730742 -0.486845
C40   C     C_R   0.512437 0.501318 0.271738 -0.457568
C41   C     C_R   0.528960 0.507807 0.887241 -0.320155
C42   C     C_R   0.534342 0.503272 0.115502 -0.335690
C43   C     C_1   0.537517 0.509474 0.967494 0.235137
C44   C     C_1   0.539242 0.507872 0.035335 0.240135
C45   C     C_R   0.750395 0.450920 0.472981 -0.181639
C46   C     C_R   0.248828 0.553421 0.487868 -0.221364
C47   C     C_R   0.263538 0.444495 0.562725 -0.178673
C48   C     C_R   0.739942 0.547384 0.565224 -0.215961
C49   C     C_R   0.821952 0.448447 0.488504 -0.188133
C50   C     C_R   0.178135 0.553208 0.504107 -0.167115
C51   C     C_R   0.193084 0.444926 0.580154 -0.196555
C52   C     C_R   0.810837 0.543719 0.582412 -0.172588
H1    H     H_    0.726973 0.414359 0.431266 0.157446
H2    H     H_    0.269922 0.595584 0.452267 0.146180
H3    H     H_    0.296474 0.402602 0.586468 0.174614
H4    H     H_    0.708404 0.584779 0.596086 0.148958
H5    H     H_    0.853300 0.411164 0.456653 0.137095
H6    H     H_    0.145430 0.594520 0.478953 0.130591
H7    H     H_    0.172484 0.403123 0.616705 0.133233
H8    H     H_    0.832814 0.578938 0.626225 0.132504
H9    H     H_    0.937746 0.610331 0.570027 0.130329
H10   H     H_    0.065292 0.380428 0.550066 0.131765
H11   H     H_    0.064604 0.611634 0.577666 0.130697
H12   H     H_    0.938034 0.378321 0.549812 0.131445
H13   H     H_    0.536968 0.831542 0.615161 0.166278
H14   H     H_    0.389573 0.167134 0.485011 0.161339
H15   H     H_    0.459762 0.828372 0.382927 0.165499
H16   H     H_    0.612139 0.171381 0.520024 0.158297
H17   H     H_    0.411217 0.934154 0.420356 0.129852
H18   H     H_    0.588562 0.065237 0.579150 0.130807
H19   H     H_    0.590115 0.934925 0.575675 0.131117
H20   H     H_    0.414002 0.064659 0.418037 0.133364
N1    N     N_R   0.500000 0.689440 0.500000 -0.175849
N2    N     N_R   0.500000 0.310560 0.500000 -0.160098
O1    O     O_R   0.398180 0.560840 0.499980 -0.634694
O2    O     O_R   0.601820 0.439160 0.500020 -0.554576
O3    O     O_R   0.601820 0.560840 0.500020 -0.629341
O4    O     O_R   0.398180 0.439160 0.499980 -0.565234
O5    O     O_R   0.500000 0.560840 0.389110 -0.519139
O6    O     O_R   0.500000 0.439160 0.610890 -0.580482
O7    O     O_R   0.500000 0.560840 0.610890 -0.529659
O8    O     O_R   0.500000 0.439160 0.389110 -0.603055
Zn1   Zn    Zn3+2 0.500000 0.581210 0.500000 1.017702
Zn2   Zn    Zn3+2 0.500000 0.418790 0.500000 1.023314
F1    F     F_    0.492910 0.630527 0.887615 -0.620790
F2    F     F_    0.453045 0.405427 0.099408 -0.624895
F3    F     F_    0.613416 0.602848 0.131385 -0.618589
F4    F     F_    0.557286 0.382966 0.888439 -0.620569
O9    O     O_3   0.462262 0.624955 0.734831 -0.497109
C53   C     C_3   0.388774 0.617738 0.726764 0.181198
H21   H     H_    0.364041 0.622288 0.783578 0.147889
H22   H     H_    0.372922 0.565422 0.699963 0.088256
C54   C     C_3   0.361229 0.677578 0.675451 -0.759461
H23   H     H_    0.383821 0.672980 0.617722 0.256999
H24   H     H_    0.303303 0.673347 0.669924 0.189462
H25   H     H_    0.375698 0.730863 0.700196 0.258778
O10   O     O_3   0.426306 0.405651 0.252475 -0.569175
C55   C     C_3   0.360057 0.439337 0.251585 0.114507
H26   H     H_    0.358687 0.493565 0.223951 0.118034
H27   H     H_    0.343698 0.446637 0.311526 0.132275
C56   C     C_3   0.306725 0.391243 0.209966 -0.761147
H28   H     H_    0.253324 0.413127 0.216611 0.193570
H29   H     H_    0.318594 0.389004 0.148194 0.289355
H30   H     H_    0.308278 0.335878 0.233558 0.248197
O11   O     O_3   0.596435 0.600115 0.286952 -0.522048
C57   C     C_3   0.663072 0.572215 0.305756 0.161255
H31   H     H_    0.693377 0.560705 0.253498 0.162700
H32   H     H_    0.657948 0.521923 0.339792 0.088134
C58   C     C_3   0.704276 0.627367 0.353240 -0.771123
H33   H     H_    0.674810 0.642078 0.404845 0.262281
H34   H     H_    0.755549 0.604667 0.371389 0.202024
H35   H     H_    0.713552 0.676615 0.318860 0.262362
O12   O     O_3   0.524298 0.371137 0.736283 -0.557302
C59   C     C_3   0.459677 0.334666 0.745667 0.176221
H36   H     H_    0.416324 0.364097 0.716191 0.116629
H37   H     H_    0.447304 0.328439 0.807289 0.169730
C60   C     C_3   0.463417 0.259795 0.711104 -0.810164
H38   H     H_    0.413258 0.230489 0.719772 0.210634
H39   H     H_    0.472537 0.263704 0.648973 0.240307
H40   H     H_    0.506633 0.229172 0.738793 0.257478
O13   O     O_3   0.547420 0.690234 0.626600 -0.527091
C61   C     C_3   0.618149 0.706793 0.644716 0.111887
H41   H     H_    0.625217 0.764054 0.661782 0.126117
H42   H     H_    0.652036 0.695381 0.595259 0.114289
C62   C     C_3   0.641700 0.660939 0.712370 -0.750294
H43   H     H_    0.632022 0.603052 0.699939 0.239541
H44   H     H_    0.698486 0.669741 0.724252 0.188952
H45   H     H_    0.612159 0.675943 0.763881 0.286859
O14   O     O_3   0.376114 0.307439 0.478897 -0.590647
C63   C     C_3   0.344256 0.293437 0.406692 0.103372
H46   H     H_    0.337078 0.234946 0.395343 0.121688
H47   H     H_    0.376294 0.317341 0.360727 0.197081
C64   C     C_3   0.271774 0.326715 0.404048 -0.821103
H48   H     H_    0.240619 0.306862 0.452737 0.259449
H49   H     H_    0.276063 0.386136 0.407255 0.253959
H50   H     H_    0.243933 0.311709 0.349967 0.205489
O15   O     O_3   0.449699 0.687002 0.374771 -0.548399
C65   C     C_3   0.377060 0.697728 0.364288 0.120487
H51   H     H_    0.367262 0.750837 0.337093 0.132800
H52   H     H_    0.348753 0.694686 0.419332 0.112510
C66   C     C_3   0.347393 0.639323 0.311589 -0.822928
H53   H     H_    0.355335 0.585677 0.338045 0.232075
H54   H     H_    0.290425 0.647579 0.301724 0.199531
H55   H     H_    0.374096 0.640987 0.255840 0.263344
O16   O     O_3   0.621116 0.312240 0.536422 -0.583669
C67   C     C_3   0.646384 0.291618 0.609737 0.093078
H56   H     H_    0.679778 0.243275 0.604972 0.125038
H57   H     H_    0.603342 0.279929 0.650017 0.177695
C68   C     C_3   0.690765 0.352409 0.644099 -0.709338
H58   H     H_    0.736769 0.363165 0.608006 0.243238
H59   H     H_    0.659169 0.402027 0.648393 0.263436
H60   H     H_    0.709641 0.337113 0.702238 0.210115

loop_
_geom_bond_atom_site_label_1
_geom_bond_atom_site_label_2
_ccdc_geom_bond_type
C54   H23   S    
C31   F1    S    
C26   H20   S    
C14   C18   A    
C63   H47   S    
C24   C27   A    
O6    Zn2   S    
O2    Zn2   S    
C60   H39   S    
O16   C67   S    
C3    C49   A    
C24   H18   S    
C25   C28   A    
C15   C19   A    
C26   C27   A    
C56   H28   S    
C16   N2    A    
C33   C42   A    
C32   C36   A    
C19   C21   A    
C67   H56   S    
C37   C40   A    
C66   H54   S    
C38   C39   A    
C57   H31   S    
O3    Zn1   S    
C49   H5    S    
C48   H4    S    
C23   C26   A    
C23   H17   S    
C7    H9    S    
C3    C12   S    
C52   H8    S    
C66   H53   S    
C62   H45   S    
C19   H15   S    
C36   O10   S    
C25   H19   S    
C6    C46   A    
C30   O6    A    
C45   H1    S    
C54   H24   S    
C9    H11   S    
C64   H49   S    
C1    O4    A    
C41   C43   S    
C68   H59   S    
C34   C41   A    
C42   C44   S    
O7    Zn1   S    
O10   C55   S    
C67   H57   S    
C61   H41   S    
C7    C12   A    
C5    C48   A    
C6    C47   A    
C4    C51   A    
C1    C6    S    
C1    O1    A    
C36   C40   A    
C24   C25   A    
C68   H60   S    
C38   O12   S    
C34   C38   A    
C47   C51   A    
C5    C45   A    
C66   H55   S    
C33   C37   A    
C58   H35   S    
C4    C50   A    
C16   O16   S    
C50   H6    S    
C35   C39   A    
C43   C44   T    
C13   N1    A    
C37   O11   S    
C64   H50   S    
C67   C68   S    
C13   O13   S    
C53   H22   S    
C29   O5    A    
C45   C49   A    
C16   C20   A    
C32   F2    S    
C46   H2    S    
C34   F4    S    
C23   C28   A    
C4    C11   S    
C9    C11   A    
O13   C61   S    
C10   C12   A    
C35   O9    S    
C8    C10   A    
C15   N1    A    
C21   C28   S    
C20   C22   A    
C54   H25   S    
O8    Zn2   S    
C22   C27   S    
C64   H48   S    
C31   C35   A    
C60   H40   S    
C2    C5    S    
C51   H7    S    
C61   H42   S    
C14   N2    A    
C2    O2    A    
C53   C54   S    
C47   H3    S    
O12   C59   S    
O11   C57   S    
C7    C9    A    
C31   C41   A    
C18   C22   A    
C17   H13   S    
C20   H16   S    
C10   H12   S    
N2    Zn2   S    
C65   C66   S    
C59   H37   S    
C3    C52   A    
C59   H36   S    
C65   H52   S    
C18   H14   S    
C55   C56   S    
O15   C65   S    
C46   C50   A    
C55   H27   S    
C13   C17   A    
C61   C62   S    
C58   H34   S    
C63   H46   S    
O14   C63   S    
C29   O8    A    
C2    O3    A    
C68   H58   S    
O5    Zn1   S    
O1    Zn1   S    
C53   H21   S    
C62   H43   S    
C57   H32   S    
C30   O7    A    
C8    C11   A    
C29   C40   S    
C30   C39   S    
C33   F3    S    
C17   C21   A    
C59   C60   S    
C65   H51   S    
C63   C64   S    
O4    Zn2   S    
C48   C52   A    
C56   H29   S    
C55   H26   S    
C58   H33   S    
C62   H44   S    
C32   C42   A    
C56   H30   S    
O9    C53   S    
C60   H38   S    
N1    Zn1   S    
C8    H10   S    
C15   O15   S    
C57   C58   S    
C14   O14   S    
