data_mof_unit_32716.cif
_audit_creation_date              2013-03-05T15:44:15-0500
_audit_creation_method            fapswitch 2.2
_symmetry_space_group_name_H-M    P1
_symmetry_Int_Tables_number       1
_space_group_crystal_system       triclinic
_cell_length_a                    19.764973
_cell_length_b                    11.039988
_cell_length_c                    19.383602
_cell_angle_alpha                 89.777173
_cell_angle_beta                  97.233899
_cell_angle_gamma                 89.893893
_cell_volume                      4195.89067534

loop_
_atom_site_label
_atom_site_type_symbol
_atom_site_description
_atom_site_fract_x
_atom_site_fract_y
_atom_site_fract_z
_atom_type_partial_charge
O1    O     O_R   0.783230 0.287800 0.346510 -0.506422
O2    O     O_R   0.216770 0.287800 0.653490 -0.515581
O3    O     O_R   0.283230 0.787800 0.346510 -0.506455
O4    O     O_R   0.716770 0.787800 0.653490 -0.515584
O5    O     O_R   0.760130 0.037060 0.338610 -0.526841
O6    O     O_R   0.239870 0.037060 0.661390 -0.526310
O7    O     O_R   0.260130 0.537060 0.338610 -0.526864
O8    O     O_R   0.739870 0.537060 0.661390 -0.526308
C1    C     C_R   0.726723 0.946867 0.358059 0.530620
C2    C     C_R   0.274724 0.952013 0.639538 0.533859
C3    C     C_R   0.226722 0.446868 0.358060 0.530613
C4    C     C_R   0.774726 0.452016 0.639536 0.533844
O9    O     O_R   0.666620 0.921370 0.332440 -0.499635
O10   O     O_R   0.333380 0.921370 0.667560 -0.517675
O11   O     O_R   0.166620 0.421370 0.332440 -0.499628
O12   O     O_R   0.833380 0.421370 0.667560 -0.517683
O13   O     O_R   0.557170 0.082420 0.312350 -0.485992
O14   O     O_R   0.442830 0.082420 0.687650 -0.491526
O15   O     O_R   0.057170 0.582420 0.312350 -0.486002
O16   O     O_R   0.942830 0.582420 0.687650 -0.491513
C5    C     C_R   0.534728 0.179952 0.337268 0.540560
C6    C     C_R   0.463816 0.180257 0.661660 0.539588
C7    C     C_R   0.034731 0.679953 0.337270 0.540552
C8    C     C_R   0.963820 0.680256 0.661663 0.539581
O17   O     O_R   0.548310 0.285980 0.316250 -0.520010
O18   O     O_R   0.451690 0.285980 0.683750 -0.513880
O19   O     O_R   0.048310 0.785980 0.316250 -0.520028
O20   O     O_R   0.951690 0.785980 0.683750 -0.513897
O21   O     O_R   0.680520 0.375500 0.327470 -0.518824
O22   O     O_R   0.319480 0.375500 0.672530 -0.498362
O23   O     O_R   0.180520 0.875500 0.327470 -0.518885
O24   O     O_R   0.819480 0.875500 0.672530 -0.498350
C9    C     C_R   0.724202 0.307611 0.367165 0.554828
C10   C     C_R   0.274769 0.313114 0.632274 0.557656
C11   C     C_R   0.224202 0.807613 0.367165 0.554798
C12   C     C_R   0.774768 0.813116 0.632273 0.557665
O25   O     O_R   0.780350 0.286970 0.193350 -0.498529
O26   O     O_R   0.219650 0.286970 0.806650 -0.470831
O27   O     O_R   0.280350 0.786970 0.193350 -0.498404
O28   O     O_R   0.719650 0.786970 0.806650 -0.470846
O29   O     O_R   0.757460 0.036290 0.196640 -0.513765
O30   O     O_R   0.242540 0.036290 0.803360 -0.508356
O31   O     O_R   0.257460 0.536290 0.196640 -0.513633
O32   O     O_R   0.742540 0.536290 0.803360 -0.508359
C13   C     C_R   0.723185 0.949111 0.165554 0.525065
C14   C     C_R   0.278696 0.954348 0.837257 0.538848
C15   C     C_R   0.223183 0.449107 0.165554 0.524956
C16   C     C_R   0.778682 0.454308 0.837237 0.538816
O33   O     O_R   0.663740 0.920540 0.179290 -0.463264
O34   O     O_R   0.336260 0.920540 0.820710 -0.477980
O35   O     O_R   0.163740 0.420540 0.179290 -0.463288
O36   O     O_R   0.836260 0.420540 0.820710 -0.477973
O37   O     O_R   0.554500 0.081650 0.170370 -0.467879
O38   O     O_R   0.445500 0.081650 0.829630 -0.456717
O39   O     O_R   0.054500 0.581650 0.170370 -0.467958
O40   O     O_R   0.945500 0.581650 0.829630 -0.456693
C17   C     C_R   0.565543 0.182421 0.137971 0.572394
C18   C     C_R   0.468436 0.178903 0.858977 0.591167
C19   C     C_R   0.065546 0.682417 0.137972 0.572589
C20   C     C_R   0.968453 0.678898 0.858971 0.591227
O41   O     O_R   0.545430 0.285140 0.163100 -0.503743
O42   O     O_R   0.454570 0.285140 0.836900 -0.528431
O43   O     O_R   0.045430 0.785140 0.163100 -0.503725
O44   O     O_R   0.954570 0.785140 0.836900 -0.528425
O45   O     O_R   0.677850 0.374730 0.185500 -0.494748
O46   O     O_R   0.322150 0.374730 0.814500 -0.509602
O47   O     O_R   0.177850 0.874730 0.185500 -0.494667
O48   O     O_R   0.822150 0.874730 0.814500 -0.509583
C21   C     C_R   0.737613 0.365963 0.167044 0.551285
C22   C     C_R   0.263395 0.361397 0.835026 0.566878
C23   C     C_R   0.237613 0.865972 0.167046 0.551672
C24   C     C_R   0.763404 0.861374 0.835041 0.566873
Cr1   Cr    Cr6+3 0.765830 0.160660 0.268180 1.018255
Cr2   Cr    Cr6+3 0.234170 0.160660 0.731820 1.031562
Cr3   Cr    Cr6+3 0.265830 0.660660 0.268180 1.018358
Cr4   Cr    Cr6+3 0.734170 0.660660 0.731820 1.031555
Cr5   Cr    Cr6+3 0.612110 0.009150 0.248770 1.067306
Cr6   Cr    Cr6+3 0.387890 0.009150 0.751230 1.073665
Cr7   Cr    Cr6+3 0.112110 0.509150 0.248770 1.067339
Cr8   Cr    Cr6+3 0.887890 0.509150 0.751230 1.073667
Cr9   Cr    Cr6+3 0.615930 0.324050 0.248450 1.019104
Cr10  Cr    Cr6+3 0.384070 0.324050 0.751550 1.026058
Cr11  Cr    Cr6+3 0.115930 0.824050 0.248450 1.019175
Cr12  Cr    Cr6+3 0.884070 0.824050 0.751550 1.026058
O49   O     O_3   0.664630 0.164620 0.255130 -0.316124
O50   O     O_3   0.335370 0.164620 0.744870 -0.307126
O51   O     O_3   0.164630 0.664620 0.255130 -0.316056
O52   O     O_3   0.835370 0.664620 0.744870 -0.307134
C25   C     C_1   0.482965 0.172489 0.593534 -0.023265
C26   C     C_1   0.511285 0.171501 0.403519 -0.013484
C27   C     C_1   0.982979 0.672488 0.593541 -0.023258
C28   C     C_1   0.011295 0.671501 0.403525 -0.013481
C29   C     C_1   0.500035 0.167958 0.462820 -0.059706
C30   C     C_1   0.491783 0.168516 0.533525 -0.064036
C31   C     C_1   0.000052 0.667958 0.462827 -0.059684
C32   C     C_1   0.991802 0.668515 0.533533 -0.063977
C33   C     C_3   0.700434 0.463866 0.515332 -0.139321
C34   C     C_3   0.314854 0.356353 0.465060 -0.161271
C35   C     C_3   0.200461 0.963920 0.515323 -0.139366
C36   C     C_3   0.814851 0.856327 0.465056 -0.161303
C37   C     C_3   0.677460 0.334458 0.491739 -0.120662
C38   C     C_3   0.275905 0.257244 0.501897 -0.142338
C39   C     C_3   0.177447 0.834535 0.491724 -0.120635
C40   C     C_3   0.775893 0.757238 0.501899 -0.142347
H1    H     H_    0.624260 0.302442 0.479538 0.117731
H2    H     H_    0.296072 0.166141 0.515798 0.101314
H3    H     H_    0.124237 0.802580 0.479513 0.117765
H4    H     H_    0.796051 0.666130 0.515803 0.101311
H5    H     H_    0.666165 0.538684 0.526581 0.128543
H6    H     H_    0.361591 0.341420 0.439893 0.125304
H7    H     H_    0.166217 0.038773 0.526571 0.128567
H8    H     H_    0.861585 0.841374 0.439888 0.125302
C41   C     C_3   0.731389 0.336846 0.440902 0.022646
C42   C     C_3   0.267466 0.348717 0.559620 0.029393
C43   C     C_3   0.231389 0.836859 0.440900 0.022674
C44   C     C_3   0.767467 0.848721 0.559620 0.029410
C45   C     C_3   0.753848 0.464442 0.463314 -0.125074
C46   C     C_3   0.306698 0.446375 0.524639 -0.120940
C47   C     C_3   0.253886 0.964433 0.463317 -0.125073
C48   C     C_3   0.806709 0.946360 0.524634 -0.120881
C49   C     C_3   0.807908 0.409037 0.518437 -0.131143
C50   C     C_3   0.237677 0.489770 0.485822 -0.117585
C51   C     C_3   0.307918 0.908977 0.518448 -0.131124
C52   C     C_3   0.737691 0.989775 0.485820 -0.117513
C53   C     C_3   0.785939 0.280255 0.495568 -0.105706
C54   C     C_3   0.198881 0.393028 0.521935 -0.071458
C55   C     C_3   0.285909 0.780215 0.495574 -0.105758
C56   C     C_3   0.698886 0.893052 0.521938 -0.071439
C57   C     C_3   0.732790 0.281829 0.547086 0.128654
C58   C     C_3   0.207899 0.304436 0.463819 0.159900
C59   C     C_3   0.232749 0.781851 0.547080 0.128661
C60   C     C_3   0.707891 0.804448 0.463823 0.159899
C61   C     C_3   0.754680 0.407890 0.569928 0.063233
C62   C     C_3   0.246041 0.400235 0.427382 0.062444
C63   C     C_3   0.254679 0.907890 0.569928 0.063246
C64   C     C_3   0.746041 0.900229 0.427381 0.062414
H9    H     H_    0.765315 0.535293 0.425967 0.130256
H10   H     H_    0.347162 0.505012 0.551640 0.129577
H11   H     H_    0.265380 0.035270 0.425972 0.130240
H12   H     H_    0.847179 0.004989 0.551630 0.129588
H13   H     H_    0.361349 0.941141 0.530019 0.130306
H14   H     H_    0.716776 0.080928 0.473516 0.134460
H15   H     H_    0.861329 0.441259 0.529997 0.130280
H16   H     H_    0.216746 0.580914 0.473520 0.134471
H17   H     H_    0.821363 0.205581 0.486509 0.120573
H18   H     H_    0.151384 0.409175 0.545682 0.142141
H19   H     H_    0.321318 0.705516 0.486519 0.120555
H20   H     H_    0.651393 0.909221 0.545687 0.142122
C65   C     C_3   0.524417 0.284878 0.970775 -0.147551
C66   C     C_3   0.485060 0.244401 0.031067 -0.161008
C67   C     C_3   0.024419 0.784855 0.970787 -0.147771
C68   C     C_3   0.985056 0.744321 0.031061 -0.161036
C69   C     C_3   0.586285 0.210498 0.002174 0.068261
C70   C     C_3   0.460082 0.131002 0.990072 0.091436
C71   C     C_3   0.086308 0.710511 0.002190 0.068369
C72   C     C_3   0.960119 0.630915 0.990051 0.091420
H21   H     H_    0.526523 0.378539 0.950061 0.168705
H22   H     H_    0.452263 0.304076 0.058903 0.157987
H23   H     H_    0.026502 0.878525 0.950080 0.168637
H24   H     H_    0.952238 0.803955 0.058896 0.157998
C73   C     C_3   0.548151 0.171223 0.063117 -0.010098
C74   C     C_3   0.498315 0.170922 0.929971 0.018635
C75   C     C_3   0.048162 0.671195 0.063117 -0.010079
C76   C     C_3   0.998355 0.670895 0.929964 0.018651
C77   C     C_3   0.521576 0.058022 0.021316 0.209601
C78   C     C_3   0.559878 0.097986 0.960684 0.189952
C79   C     C_3   0.021630 0.557979 0.021302 0.209585
C80   C     C_3   0.059940 0.597995 0.960683 0.190285
C81   C     C_1   0.766991 0.436733 0.908052 0.028927
C82   C     C_1   0.240993 0.412205 0.099375 0.023092
C83   C     C_1   0.267032 0.936865 0.908090 0.028982
C84   C     C_1   0.741057 0.912089 0.099419 0.023035
C85   C     C_1   0.756422 0.436667 0.041540 -0.007062
C86   C     C_1   0.253034 0.398071 0.967008 -0.021765
C87   C     C_1   0.256455 0.936891 0.041585 -0.007410
C88   C     C_1   0.753122 0.897937 0.967059 -0.021657
C89   C     C_1   0.761662 0.436953 0.969389 -0.017968
C90   C     C_1   0.249278 0.398537 0.039387 -0.029140
C91   C     C_1   0.261710 0.937153 0.969432 -0.018085
C92   C     C_1   0.749397 0.898310 0.039453 -0.029575
C93   C     C_1   0.749239 0.416601 0.101359 0.035113
C94   C     C_1   0.256239 0.392525 0.905364 0.060768
C95   C     C_1   0.249258 0.916738 0.101394 0.035041
C96   C     C_1   0.756283 0.892445 0.905403 0.061028
N1    N     N_2   0.723482 0.184057 0.594984 -0.533135
H25   H     H_    0.768601 0.153316 0.621879 0.268081
C97   C     C_3   0.670376 0.202107 0.638771 -0.278728
H26   H     H_    0.660077 0.115169 0.664433 0.175465
H27   H     H_    0.622671 0.233034 0.607395 0.154565
H28   H     H_    0.686518 0.270253 0.679493 0.154637
N2    N     N_2   0.149836 0.235482 0.432126 -0.512295
H29   H     H_    0.117514 0.201289 0.465092 0.239868
C98   C     C_3   0.155121 0.167638 0.369420 -0.250130
H30   H     H_    0.145373 0.070716 0.378833 0.157525
H31   H     H_    0.205893 0.178698 0.351288 0.145479
H32   H     H_    0.115268 0.199438 0.327828 0.176685
N3    N     N_2   0.223380 0.684092 0.594966 -0.533151
H33   H     H_    0.268481 0.653209 0.621829 0.268075
C99   C     C_3   0.170320 0.702273 0.638792 -0.278688
H34   H     H_    0.159885 0.615319 0.664360 0.175444
H35   H     H_    0.122659 0.733525 0.607472 0.154560
H36   H     H_    0.186588 0.770212 0.679588 0.154655
N4    N     N_2   0.649820 0.735500 0.432143 -0.512288
H37   H     H_    0.617517 0.701286 0.465123 0.239873
C100  C     C_3   0.655084 0.667666 0.369428 -0.250120
H38   H     H_    0.645336 0.570742 0.378836 0.157489
H39   H     H_    0.705849 0.678725 0.351281 0.145501
H40   H     H_    0.615221 0.699477 0.327849 0.176690
N5    N     N_2   0.653958 0.256847 0.003367 -0.515207
H41   H     H_    0.660711 0.289499 0.954886 0.274288
C101  C     C_3   0.705628 0.170842 0.028743 -0.274842
H42   H     H_    0.757524 0.206254 0.025937 0.157671
H43   H     H_    0.700017 0.092657 0.994495 0.191747
H44   H     H_    0.700241 0.146718 0.083189 0.160942
N6    N     N_2   0.390755 0.090748 0.986049 -0.475159
H45   H     H_    0.378605 0.066438 0.034378 0.278909
C102  C     C_3   0.343486 0.176870 0.951428 -0.278282
H46   H     H_    0.292619 0.165900 0.968921 0.139667
H47   H     H_    0.339024 0.162976 0.894594 0.180952
H48   H     H_    0.361270 0.270499 0.963249 0.133252
N7    N     N_2   0.153961 0.757008 0.003476 -0.515217
H49   H     H_    0.160632 0.790307 0.955117 0.273988
C103  C     C_3   0.205697 0.670844 0.028435 -0.274584
H50   H     H_    0.257579 0.706876 0.026534 0.157575
H51   H     H_    0.200683 0.593768 0.993352 0.191860
H52   H     H_    0.199900 0.645038 0.082509 0.160665
N8    N     N_2   0.890801 0.590586 0.985997 -0.475107
H53   H     H_    0.878641 0.566205 0.034311 0.278923
C104  C     C_3   0.843512 0.676691 0.951388 -0.278243
H54   H     H_    0.792652 0.665702 0.968897 0.139599
H55   H     H_    0.839036 0.662810 0.894554 0.180982
H56   H     H_    0.861290 0.770323 0.963202 0.133251
N9    N     N_R   0.519417 0.933927 0.047170 0.121943
O53   O     O_R   0.575735 0.873849 0.063548 -0.283601
O54   O     O_R   0.461412 0.879205 0.048587 -0.315805
N10   N     N_R   0.596943 0.021466 0.917050 0.067593
O55   O     O_R   0.592634 0.904220 0.920938 -0.274060
O56   O     O_R   0.625828 0.070181 0.867032 -0.377072
N11   N     N_R   0.019491 0.433877 0.047152 0.121944
O57   O     O_R   0.075818 0.373821 0.063520 -0.283576
O58   O     O_R   0.961495 0.379122 0.048565 -0.315805
N12   N     N_R   0.097008 0.521498 0.917043 0.067583
O59   O     O_R   0.092710 0.404247 0.920937 -0.274018
O60   O     O_R   0.125763 0.570213 0.866936 -0.377215

loop_
_geom_bond_atom_site_label_1
_geom_bond_atom_site_label_2
_geom_bond_distance
_ccdc_geom_bond_type
C18   O42   1.264591 A    
Cr11  O51   2.000454 S    
N4    H37   1.029939 S    
O4    C12   1.296284 A    
C77   N9    1.459503 S    
C29   C30   1.400474 S    
C34   H6    1.109960 S    
O39   C19   1.307520 A    
C69   C78   1.538353 S    
O20   Cr12  2.033371 S    
C37   C57   1.543323 S    
C37   C41   1.540224 S    
O29   C13   1.285476 A    
C49   H15   1.110861 S    
C39   C43   1.540214 S    
C31   C32   1.400477 S    
C33   C61   1.535608 S    
C52   H14   1.101013 S    
Cr6   O50   1.999568 S    
C86   C94   1.206278 T    
O29   Cr1   1.947674 S    
C68   H24   1.111126 S    
C54   H18   1.110761 S    
C103  H52   1.104973 S    
O1    C9    1.298712 A    
C100  H38   1.106110 S    
C14   C83   1.432956 S    
C102  H48   1.107891 S    
O7    C3    1.277410 A    
N4    C100  1.445017 S    
C77   C78   1.539561 S    
C71   C80   1.538339 S    
C5    O17   1.277969 A    
C82   C90   1.204520 T    
C73   C77   1.548339 S    
O24   C12   1.302674 A    
C87   C95   1.205562 T    
C59   N3    1.448063 S    
N11   O57   1.298603 A    
C104  H56   1.107869 S    
C57   N1    1.448070 S    
N6    C102  1.435639 S    
O30   C14   1.278870 A    
C42   C54   1.534884 S    
N1    C97   1.444539 S    
C65   C66   1.548165 S    
C41   C53   1.542789 S    
C54   C58   1.521807 S    
N10   O56   1.300636 A    
O21   C9    1.313399 A    
O8    Cr4   1.947063 S    
O23   Cr11  1.953326 S    
N10   O55   1.299871 A    
O32   Cr4   1.939624 S    
C46   C50   1.546923 S    
C81   C89   1.206740 T    
C25   C30   1.198635 T    
N3    C99   1.444539 S    
N8    H53   1.030648 S    
C1    O9    1.261260 A    
C101  H43   1.088261 S    
C50   C62   1.530636 S    
C97   H28   1.110378 S    
C65   C69   1.531327 S    
C53   H17   1.109343 S    
C20   C76   1.429961 S    
C27   C32   1.198633 T    
C40   C44   1.534505 S    
C3    O11   1.261263 A    
C22   C94   1.431445 S    
C36   C40   1.560494 S    
O11   Cr7   2.067383 S    
C4    O12   1.261755 A    
O33   Cr5   2.040782 S    
C98   H31   1.111025 S    
C99   H36   1.110304 S    
N12   O60   1.300647 A    
C67   C68   1.548125 S    
C70   C77   1.516718 S    
O6    Cr2   1.947063 S    
C36   C48   1.550039 S    
O27   Cr3   2.054590 S    
O3    Cr3   2.068958 S    
N9    O53   1.298602 A    
Cr4   O52   1.984877 S    
C66   C70   1.534182 S    
O47   C23   1.280157 A    
O2    Cr2   2.060060 S    
C60   C64   1.522163 S    
C52   C56   1.533334 S    
O2    C10   1.296282 A    
C40   H4    1.101107 S    
C79   N11   1.459516 S    
O42   Cr10  2.067577 S    
C43   C55   1.542771 S    
C85   C93   1.205508 T    
C99   H34   1.110166 S    
O18   Cr10  2.033371 S    
C74   C78   1.514469 S    
C86   C90   1.414271 S    
Cr8   O52   1.999568 S    
C37   H1    1.107193 S    
C83   C91   1.206795 T    
C58   C62   1.522149 S    
C56   C60   1.521812 S    
Cr7   O51   2.003687 S    
C70   C74   1.530159 S    
C14   O34   1.275894 A    
C34   C46   1.550039 S    
C55   C59   1.537953 S    
C5    C26   1.421837 S    
C100  H39   1.111028 S    
O31   Cr3   1.947674 S    
O24   Cr12  1.948481 S    
O9    Cr5   2.067383 S    
O30   Cr2   1.939624 S    
C97   H27   1.108279 S    
O22   C10   1.302683 A    
N2    H29   1.029937 S    
O48   Cr12  1.917966 S    
C17   C73   1.454173 S    
C68   C72   1.534180 S    
C76   C80   1.514614 S    
C2    C63   1.444310 S    
C24   C96   1.431568 S    
C103  H50   1.105460 S    
C35   C39   1.552927 S    
C2    O10   1.261761 A    
C3    C62   1.442609 S    
C79   C80   1.539630 S    
O16   Cr8   1.919591 S    
C56   H20   1.110763 S    
C52   C64   1.530638 S    
C15   O35   1.276808 A    
C72   C79   1.516724 S    
C71   C75   1.540465 S    
C102  H46   1.107442 S    
Cr10  O50   2.004473 S    
C35   C47   1.548972 S    
C28   C31   1.198448 T    
O13   C5    1.282839 A    
O28   Cr4   2.061514 S    
C43   C47   1.525971 S    
C51   C63   1.538690 S    
O48   C24   1.282602 A    
O12   Cr8   2.075153 S    
C67   H23   1.110537 S    
O41   Cr9   2.071320 S    
C50   C54   1.533324 S    
O15   C7    1.282839 A    
N6    H45   1.030646 S    
N2    C98   1.445009 S    
O5    C1    1.277417 A    
C104  H54   1.107450 S    
C38   C42   1.534511 S    
C53   C57   1.537943 S    
O46   Cr10  1.917966 S    
N7    H49   1.029469 S    
O39   Cr7   1.948841 S    
O25   C21   1.272549 A    
C88   C92   1.414419 S    
O45   Cr9   1.916519 S    
C101  H42   1.106018 S    
C13   O33   1.276849 A    
C75   C79   1.548375 S    
O8    C4    1.268759 A    
C98   H32   1.109294 S    
C35   H7    1.106813 S    
C51   H13   1.110858 S    
O13   Cr5   1.921933 S    
N5    H41   1.029568 S    
C35   C63   1.535601 S    
N11   O58   1.300191 A    
O47   Cr11  1.916519 S    
Cr2   O50   1.984877 S    
O15   Cr7   1.921933 S    
N9    O54   1.300189 A    
C45   C49   1.537018 S    
Cr1   O49   1.984671 S    
C42   C46   1.534048 S    
C48   H12   1.109834 S    
C72   N8    1.434192 S    
C80   N12   1.457698 S    
O26   C22   1.269493 A    
N8    C104  1.435655 S    
C65   H21   1.110534 S    
C49   C53   1.537909 S    
C67   C76   1.543329 S    
C7    O19   1.277968 A    
C4    C61   1.444307 S    
C6    O18   1.277417 A    
O37   Cr5   1.948841 S    
C104  H55   1.105337 S    
C57   C61   1.509587 S    
C19   O43   1.316362 A    
C71   N7    1.430514 S    
C102  H47   1.105351 S    
C44   C56   1.534876 S    
O3    C11   1.298717 A    
C12   C44   1.450130 S    
C8    C27   1.421638 S    
C51   C55   1.537916 S    
O34   Cr6   2.037571 S    
C15   C82   1.432717 S    
C58   N2    1.450247 S    
C26   C29   1.198448 T    
O14   Cr6   1.919591 S    
O38   C18   1.274157 A    
C41   C45   1.525970 S    
Cr3   O51   1.984671 S    
C88   C96   1.206340 T    
C66   C73   1.546254 S    
O25   Cr1   2.054590 S    
C60   N4    1.450256 S    
O37   C17   1.307556 A    
O22   Cr10  1.948481 S    
O28   C24   1.269553 A    
N12   O59   1.299918 A    
O14   C6    1.281615 A    
C46   H10   1.109834 S    
C9    C41   1.455972 S    
C33   C37   1.552940 S    
O21   Cr9   1.953326 S    
O5    Cr1   1.939903 S    
C45   H9    1.106723 S    
C8    O20   1.277419 A    
C70   N6    1.434133 S    
O17   Cr9   2.032281 S    
C21   C93   1.433535 S    
C34   C62   1.537058 S    
O6    C2    1.268760 A    
O7    Cr3   1.939903 S    
C103  H51   1.088191 S    
C36   H8    1.109960 S    
C65   C74   1.543317 S    
C47   C51   1.537013 S    
C10   C42   1.450132 S    
C66   H22   1.111125 S    
C59   C63   1.509587 S    
C67   C71   1.531438 S    
O40   Cr8   1.955416 S    
O44   Cr12  2.067577 S    
C17   O41   1.316314 A    
C20   O44   1.264664 A    
O1    Cr1   2.068958 S    
O19   Cr11  2.032281 S    
C33   H5    1.106824 S    
C47   H11   1.106729 S    
C13   C84   1.432747 S    
N7    C103  1.432763 S    
O32   C16   1.278875 A    
C34   C38   1.560491 S    
C50   H16   1.101018 S    
C72   C76   1.530165 S    
C69   N5    1.430479 S    
C84   C92   1.204553 T    
N1    H25   1.030851 S    
O46   C22   1.282616 A    
Cr12  O52   2.004473 S    
O31   C15   1.285521 A    
O45   C21   1.280186 A    
N5    C101  1.432731 S    
C6    C25   1.421638 S    
O26   Cr2   2.061514 S    
C38   H2    1.101113 S    
O23   C11   1.313384 A    
O10   Cr6   2.075153 S    
C33   C45   1.548973 S    
N3    H33   1.030830 S    
O35   Cr7   2.040782 S    
O4    Cr4   2.060060 S    
C68   C75   1.546201 S    
C19   C75   1.454196 S    
Cr5   O49   2.003687 S    
C16   C81   1.432878 S    
C1    C64   1.442612 S    
C44   C48   1.534055 S    
C16   O36   1.275887 A    
C101  H44   1.105551 S    
O40   C20   1.274166 A    
C11   C43   1.455957 S    
C97   H26   1.110223 S    
C87   C91   1.415417 S    
C98   H30   1.106096 S    
C40   C60   1.538648 S    
O43   Cr11  2.071320 S    
C36   C64   1.537062 S    
C99   H35   1.108221 S    
O27   C23   1.272604 A    
C7    C28   1.421837 S    
C38   C58   1.538656 S    
C39   H3    1.107196 S    
C100  H40   1.109296 S    
C78   N10   1.457734 S    
C49   C61   1.538683 S    
C85   C89   1.415323 S    
O36   Cr8   2.037571 S    
C39   C59   1.543304 S    
O16   C8    1.281618 A    
C69   C73   1.540465 S    
Cr9   O49   2.000454 S    
C48   C52   1.546918 S    
C55   H19   1.109333 S    
O38   Cr6   1.955416 S    
C23   C95   1.433618 S    
C18   C74   1.429833 S    
