data_mof_unit_26558.cif
_audit_creation_date              2012-10-26T18:36:05-0400
_audit_creation_method            fapswitch 2.2
_symmetry_space_group_name_H-M    P1
_symmetry_Int_Tables_number       1
_space_group_crystal_system       triclinic
_cell_length_a                    10.854034
_cell_length_b                    12.682939
_cell_length_c                    13.888529
_cell_angle_alpha                 97.387996
_cell_angle_beta                  91.419061
_cell_angle_gamma                 93.326161
_cell_volume                      1891.84005506

loop_
_atom_site_label
_atom_site_type_symbol
_atom_type_description
_atom_site_fract_x
_atom_site_fract_y
_atom_site_fract_z
_atom_type_partial_charge
C1    C     C_R   0.501618 0.483785 0.315933 0.555333
C2    C     C_1   0.496687 0.474572 0.212883 -0.059054
C3    C     C_2   0.473981 0.026417 0.466024 0.243071
C4    C     C_R   0.259516 0.500232 0.493151 0.518792
C5    C     C_2   0.532333 0.973708 0.531909 0.242782
C6    C     C_1   0.524273 0.854932 0.520685 0.142408
C7    C     C_1   0.478031 0.145058 0.478400 0.155541
C8    C     C_R   0.502173 0.516214 0.684191 0.509320
C9    C     C_R   0.740972 0.500817 0.501880 0.591381
C10   C     C_3   0.060867 0.388581 0.468417 -0.216074
C11   C     C_3   0.919651 0.391565 0.456844 0.171822
C12   C     C_3   0.879716 0.505586 0.501602 0.054962
C13   C     C_3   0.084363 0.549190 0.602026 0.270636
C14   C     C_3   0.071344 0.571642 0.409932 0.271194
C15   C     C_3   0.121986 0.503996 0.493320 -0.000642
C16   C     C_3   0.909631 0.712212 0.473407 -0.384166
C17   C     C_3   0.210434 0.710560 0.676092 0.024972
C18   C     C_3   0.166492 0.756942 0.775806 -0.282560
C19   C     C_3   0.273772 0.811950 0.839898 -0.489374
C20   C     C_3   0.882320 0.618276 0.679270 -0.323067
C21   C     C_3   0.404053 0.360855 0.968994 -0.384342
C22   C     C_3   0.670755 0.976750 0.666687 0.000481
C23   C     C_3   0.937919 0.525819 0.610431 0.206109
C24   C     C_3   0.595720 0.933065 0.746741 -0.258679
C25   C     C_3   0.672161 0.863131 0.803431 -0.481180
C26   C     C_3   0.398968 0.016384 0.304936 0.001882
C27   C     C_3   0.279109 0.074298 0.299664 -0.256906
C28   C     C_3   0.277834 0.138367 0.213841 -0.488140
C29   C     C_3   0.819664 0.266160 0.334089 0.024060
C30   C     C_3   0.909571 0.176721 0.325047 -0.296355
C31   C     C_3   0.841743 0.068215 0.294955 -0.487462
C32   C     C_3   0.153490 0.491823 0.681176 -0.284307
C33   C     C_3   0.806511 0.396249 0.686268 0.011326
C34   C     C_3   0.928455 0.592027 0.431614 0.317414
C35   C     C_3   0.818197 0.377575 0.792699 -0.267160
C36   C     C_3   0.711786 0.304357 0.820136 -0.469783
C37   C     C_3   0.150054 0.679861 0.403717 -0.320349
C38   C     C_3   0.177206 0.478171 0.272605 0.027953
C39   C     C_3   0.172077 0.494677 0.165297 -0.253466
C40   C     C_3   0.205543 0.609903 0.150517 -0.432097
C41   C     C_3   0.865971 0.626893 0.267503 0.065105
C42   C     C_3   0.753810 0.692449 0.255434 -0.271490
C43   C     C_3   0.771292 0.762085 0.174427 -0.508926
C44   C     C_1   0.509070 0.525061 0.787245 -0.056815
C45   C     C_2   0.526898 0.535172 0.977389 -0.106952
C46   C     C_2   0.477293 0.456291 0.022391 0.010666
C47   C     C_1   0.489545 0.465931 0.126027 -0.060272
C48   C     C_1   0.517033 0.531423 0.873993 -0.069124
Cu1   Cu    Cu3+1 0.491980 0.395330 0.493960 0.937645
Cu2   Cu    Cu3+1 0.508020 0.604670 0.506040 0.927458
H1    H     H_    0.083125 0.338179 0.525197 0.098511
H2    H     H_    0.096672 0.815777 0.766103 0.158467
H3    H     H_    0.122284 0.693566 0.813479 0.151278
H4    H     H_    0.345281 0.754769 0.850157 0.153582
H5    H     H_    0.239586 0.842885 0.912160 0.140901
H6    H     H_    0.315689 0.879866 0.806435 0.142762
H7    H     H_    0.780380 0.615173 0.676437 0.101809
H8    H     H_    0.912164 0.613330 0.755496 0.129549
H9    H     H_    0.910211 0.699418 0.665067 0.135018
H10   H     H_    0.371847 0.305190 0.020024 0.117381
H11   H     H_    0.321875 0.387156 0.931536 0.129028
H12   H     H_    0.576980 0.603701 0.018718 0.108704
H13   H     H_    0.461944 0.316972 0.914715 0.135392
H14   H     H_    0.746071 0.032330 0.702326 0.141596
H15   H     H_    0.718354 0.913152 0.621767 0.116670
H16   H     H_    0.564633 0.000697 0.797453 0.158332
H17   H     H_    0.512415 0.885057 0.714884 0.164652
H18   H     H_    0.700963 0.793392 0.754284 0.154157
H19   H     H_    0.615831 0.833700 0.861274 0.144427
H20   H     H_    0.755449 0.909408 0.837729 0.134853
H21   H     H_    0.398284 0.953335 0.241457 0.145044
H22   H     H_    0.481954 0.070382 0.296983 0.113314
H23   H     H_    0.097966 0.345539 0.402201 0.154231
H24   H     H_    0.198921 0.014846 0.291795 0.156586
H25   H     H_    0.268496 0.129323 0.367435 0.170455
H26   H     H_    0.355159 0.200563 0.222024 0.160532
H27   H     H_    0.189725 0.178208 0.210902 0.131632
H28   H     H_    0.286366 0.085090 0.144626 0.138406
H29   H     H_    0.770398 0.265041 0.262861 0.157410
H30   H     H_    0.747185 0.251468 0.386896 0.145358
H31   H     H_    0.978662 0.191746 0.269961 0.167223
H32   H     H_    0.959070 0.174907 0.395706 0.143549
H33   H     H_    0.772804 0.051199 0.349649 0.150893
H34   H     H_    0.879891 0.330192 0.499712 0.124608
H35   H     H_    0.909144 0.005283 0.289811 0.142090
H36   H     H_    0.793997 0.066125 0.223000 0.141638
H37   H     H_    0.133171 0.404589 0.672524 0.145620
H38   H     H_    0.254815 0.498426 0.678629 0.104825
H39   H     H_    0.125964 0.522243 0.755338 0.122125
H40   H     H_    0.776279 0.319622 0.641696 0.167819
H41   H     H_    0.733643 0.451428 0.678864 0.143157
H42   H     H_    0.906370 0.340447 0.805833 0.176294
H43   H     H_    0.819393 0.455363 0.839935 0.146669
H44   H     H_    0.621927 0.333227 0.798902 0.172486
H45   H     H_    0.817044 0.729497 0.498740 0.153234
H46   H     H_    0.715112 0.302001 0.899799 0.142955
H47   H     H_    0.719175 0.222308 0.782646 0.158040
H48   H     H_    0.163648 0.730782 0.473929 0.164766
H49   H     H_    0.243580 0.670261 0.376155 0.152678
H50   H     H_    0.109495 0.729874 0.353824 0.080440
H51   H     H_    0.183982 0.391563 0.273992 0.117745
H52   H     H_    0.262240 0.516830 0.308625 0.122911
H53   H     H_    0.237222 0.442489 0.125133 0.125058
H54   H     H_    0.078185 0.470304 0.133398 0.172202
H55   H     H_    0.135983 0.663042 0.183179 0.149145
H56   H     H_    0.974153 0.746395 0.532109 0.145418
H57   H     H_    0.207526 0.616159 0.071542 0.131929
H58   H     H_    0.298139 0.636556 0.183642 0.152465
H59   H     H_    0.873011 0.570431 0.200023 0.166485
H60   H     H_    0.950560 0.678846 0.272995 0.120902
H61   H     H_    0.670866 0.637992 0.237192 0.184345
H62   H     H_    0.737411 0.744001 0.324167 0.175102
H63   H     H_    0.852904 0.819025 0.191410 0.140950
H64   H     H_    0.688255 0.808014 0.167181 0.149948
H65   H     H_    0.784363 0.711867 0.104218 0.138354
H66   H     H_    0.925223 0.766433 0.418118 0.088901
H67   H     H_    0.249195 0.778375 0.640776 0.152178
H68   H     H_    0.289132 0.660861 0.682371 0.168918
N1    N     N_1   0.479930 0.238040 0.484880 -0.221094
N2    N     N_1   0.520070 0.761960 0.515120 -0.227603
O1    O     O_R   0.492240 0.399110 0.356330 -0.496639
O2    O     O_3   0.596561 0.035605 0.610260 -0.611055
O3    O     O_3   0.404910 0.965638 0.389978 -0.608512
O4    O     O_3   0.882947 0.367722 0.356725 -0.491275
O5    O     O_3   0.924000 0.429335 0.654856 -0.638960
O6    O     O_3   0.065781 0.509118 0.315734 -0.515063
O7    O     O_3   0.849702 0.565672 0.345417 -0.478495
O8    O     O_R   0.505790 0.575900 0.366540 -0.493785
O9    O     O_R   0.310920 0.411610 0.494880 -0.514013
O10   O     O_R   0.324460 0.588390 0.505090 -0.506382
O11   O     O_R   0.494210 0.424100 0.633460 -0.494580
O12   O     O_R   0.507760 0.600890 0.643670 -0.514323
O13   O     O_R   0.675540 0.411610 0.494910 -0.516806
O14   O     O_R   0.689080 0.588390 0.505120 -0.504275
O15   O     O_3   0.109427 0.662554 0.615904 -0.634812

loop_
_geom_bond_atom_site_label_1
_geom_bond_atom_site_label_2
_ccdc_geom_bond_type
C19   H6    S    
C31   H35   S    
C26   H22   S    
C41   C42   S    
C41   O7    S    
C13   C32   S    
C35   C36   S    
C1    O8    A    
C18   H2    S    
C39   H54   S    
C45   C46   D    
Cu1   O11   S    
C12   C23   S    
C26   C27   S    
Cu2   N2    S    
C5    C6    S    
C18   C19   S    
C38   H51   S    
C3    C7    S    
C10   C15   S    
C33   H41   S    
C43   H64   S    
C30   C31   S    
C10   H23   S    
C32   H38   S    
C29   O4    S    
C45   H12   S    
C31   H33   S    
C13   C23   S    
C1    C2    S    
C42   H62   S    
Cu2   O10   S    
C18   H3    S    
C16   C34   S    
C11   O4    S    
C34   O7    S    
C8    O12   A    
C36   H47   S    
C27   H24   S    
C28   H28   S    
C21   H11   S    
C24   H17   S    
C16   H56   S    
C40   H58   S    
C43   H65   S    
C9    O14   A    
C31   H36   S    
C41   H59   S    
C26   H21   S    
C13   O15   S    
C25   H18   S    
C27   H25   S    
C10   H1    S    
C16   H66   S    
C6    N2    T    
C37   H48   S    
C38   O6    S    
C3    O3    S    
C22   O2    S    
C35   H43   S    
C38   C39   S    
C7    N1    T    
C24   C25   S    
C21   H10   S    
Cu2   O14   S    
C39   C40   S    
C4    O10   A    
C32   H37   S    
Cu1   O9    S    
C5    O2    S    
C30   H32   S    
C42   H61   S    
C22   H15   S    
C17   O15   S    
C29   C30   S    
C36   H46   S    
C32   H39   S    
C29   H29   S    
C20   C23   S    
Cu1   O1    S    
C8    O11   A    
C33   O5    S    
C17   C18   S    
C20   H9    S    
C28   H27   S    
Cu2   O12   S    
C17   H68   S    
C40   H57   S    
C19   H4    S    
C41   H60   S    
C13   C15   S    
C11   H34   S    
C22   C24   S    
Cu2   O8    S    
C42   C43   S    
C12   C34   S    
C28   H26   S    
C37   H49   S    
C21   C46   S    
C45   C48   S    
C19   H5    S    
Cu1   O13   S    
C46   C47   S    
C16   H45   S    
C8    C44   S    
C3    C5    D    
C14   C34   S    
C11   C12   S    
C39   H53   S    
C4    O9    A    
C17   H67   S    
C2    C47   T    
C14   O6    S    
C23   O5    S    
C30   H31   S    
C38   H52   S    
C33   H40   S    
C35   H42   S    
C14   C37   S    
Cu1   N1    S    
C29   H30   S    
C4    C15   S    
C33   C35   S    
C9    C12   S    
C1    O1    A    
C21   H13   S    
C10   C11   S    
C22   H14   S    
C36   H44   S    
C25   H19   S    
C24   H16   S    
Cu1   Cu2   S    
C26   O3    S    
C27   C28   S    
C14   C15   S    
C25   H20   S    
C20   H7    S    
C20   H8    S    
C37   H50   S    
C43   H63   S    
C44   C48   T    
C40   H55   S    
C9    O13   A    
