data_mof_unit_17857.cif
_audit_creation_date              2012-12-10T18:01:14-0500
_audit_creation_method            fapswitch 2.2
_symmetry_space_group_name_H-M    P1
_symmetry_Int_Tables_number       1
_space_group_crystal_system       triclinic
_cell_length_a                    9.694627
_cell_length_b                    10.842009
_cell_length_c                    17.152857
_cell_angle_alpha                 95.412309
_cell_angle_beta                  86.107214
_cell_angle_gamma                 89.4637
_cell_volume                      1790.51907499

loop_
_atom_site_label
_atom_site_type_symbol
_atom_type_description
_atom_site_fract_x
_atom_site_fract_y
_atom_site_fract_z
_atom_type_partial_charge
C1    C     C_R   0.500785 0.736358 0.492435 0.851790
C2    C     C_R   0.499583 0.263647 0.507024 0.829688
C3    C     C_R   0.629223 0.935269 0.490528 -0.076560
C4    C     C_R   0.374945 0.064221 0.508830 -0.039527
C5    C     C_R   0.625769 0.062958 0.514261 -0.124564
C6    C     C_R   0.378560 0.938555 0.481138 -0.118870
C7    C     C_R   0.499637 0.128955 0.514373 -0.193875
C8    C     C_R   0.503422 0.871002 0.483264 -0.162167
C9    C     C_R   0.917912 0.565744 0.558868 0.082454
C10   C     C_R   0.082347 0.434324 0.441065 0.089947
C11   C     C_R   0.065919 0.572353 0.556575 0.176125
C12   C     C_R   0.934175 0.428487 0.442812 0.155964
C13   C     C_R   0.481988 0.497995 0.649891 0.809381
C14   C     C_R   0.517734 0.504641 0.350267 0.814470
C15   C     C_R   0.472613 0.486544 0.734463 -0.084837
C16   C     C_R   0.524320 0.524438 0.266611 -0.085732
C17   C     C_R   0.580742 0.430059 0.768546 -0.139997
C18   C     C_R   0.410425 0.578003 0.235902 -0.122985
C19   C     C_R   0.572246 0.414641 0.848681 0.161516
C20   C     C_R   0.410743 0.595924 0.156330 0.150517
C21   C     C_R   0.454186 0.460790 0.895981 0.060659
C22   C     C_R   0.529706 0.560349 0.106497 0.059598
C23   C     C_R   0.341996 0.512981 0.860970 0.007520
C24   C     C_R   0.649552 0.516210 0.138581 0.008137
C25   C     C_R   0.353247 0.525875 0.780538 -0.241764
C26   C     C_R   0.644416 0.496869 0.218273 -0.245461
C27   C     C_2   0.454934 0.466950 0.981991 -0.183619
C28   C     C_2   0.524398 0.556551 0.020804 -0.227220
Cu1   Cu    Cu3+1 0.359340 0.499980 0.500000 0.997001
Cu2   Cu    Cu3+1 0.640660 0.500020 0.500000 0.989355
H1    H     H_    0.671008 0.395371 0.732229 0.195736
H2    H     H_    0.320537 0.607191 0.274302 0.217334
H3    H     H_    0.734558 0.460781 0.242596 0.174944
H4    H     H_    0.268384 0.566605 0.753653 0.182812
H5    H     H_    0.581488 0.624163 0.989158 0.206845
H6    H     H_    0.397720 0.399063 0.013358 0.195437
N1    N     N_R   0.147930 0.499970 0.499980 -0.230705
N2    N     N_R   0.852070 0.500030 0.500020 -0.237945
O1    O     O_R   0.381260 0.680340 0.500000 -0.581249
O2    O     O_R   0.618740 0.319660 0.500000 -0.594739
O3    O     O_R   0.618830 0.680370 0.500010 -0.533674
O4    O     O_R   0.381170 0.319630 0.499990 -0.522092
O5    O     O_R   0.367440 0.500000 0.613600 -0.614769
O6    O     O_R   0.632560 0.500000 0.386400 -0.609412
O7    O     O_R   0.605010 0.500030 0.613600 -0.563181
O8    O     O_R   0.394990 0.499970 0.386400 -0.563461
C29   C     C_2   0.211464 0.554437 0.906153 0.832179
O9    O     O_2   0.168518 0.500277 0.961938 -0.625122
O10   O     O_R   0.134675 0.652885 0.882985 -0.757722
H7    H     H_    0.047369 0.672427 0.918084 0.344323
C30   C     C_2   0.781370 0.489968 0.090508 0.824309
O11   O     O_2   0.858243 0.406136 0.104868 -0.582453
O12   O     O_R   0.820049 0.563681 0.030382 -0.793709
H8    H     H_    0.909933 0.534545 0.000660 0.357267
C31   C     C_3   0.285304 0.658295 0.127821 -0.435480
C32   C     C_3   0.154689 0.582306 0.139076 -0.641097
H9    H     H_    0.173351 0.484628 0.114558 0.291261
H10   H     H_    0.120468 0.584368 0.202222 0.255750
H11   H     H_    0.070043 0.622783 0.108715 0.256853
H12   H     H_    0.268823 0.750670 0.161366 0.211235
H13   H     H_    0.300503 0.675402 0.065119 0.233369
C33   C     C_3   0.688678 0.346081 0.881496 -0.382622
C34   C     C_3   0.645453 0.215828 0.898590 -0.766157
H14   H     H_    0.557264 0.219593 0.943585 0.248924
H15   H     H_    0.615232 0.162447 0.844041 0.264012
H16   H     H_    0.733533 0.166983 0.921061 0.255893
H17   H     H_    0.781351 0.337865 0.839308 0.216838
H18   H     H_    0.721212 0.397594 0.935662 0.241271
C35   C     C_2   0.762451 0.871481 0.463588 0.948516
O13   O     O_2   0.853022 0.863114 0.508850 -0.558119
O14   O     O_R   0.779955 0.814209 0.386980 -0.765991
H19   H     H_    0.872089 0.768704 0.376049 0.323651
C36   C     C_2   0.248986 0.116203 0.554463 0.964787
O15   O     O_2   0.230011 0.097367 0.623479 -0.613565
O16   O     O_R   0.154757 0.188710 0.520307 -0.677794
H20   H     H_    0.079955 0.226510 0.559764 0.336156
C37   C     C_2   0.745802 0.123653 0.551100 0.926753
O17   O     O_2   0.863513 0.103445 0.522896 -0.576991
O18   O     O_R   0.722907 0.203769 0.619670 -0.762656
H21   H     H_    0.811725 0.239864 0.639266 0.324554
C38   C     C_2   0.262939 0.888171 0.434666 0.849018
O19   O     O_2   0.280815 0.794595 0.389274 -0.606173
O20   O     O_R   0.137577 0.953650 0.436882 -0.715050
H22   H     H_    0.071011 0.913502 0.399456 0.344132
C39   C     C_2   0.837169 0.620365 0.630298 0.902691
O21   O     O_2   0.850945 0.577359 0.692761 -0.638231
O22   O     O_R   0.748394 0.721701 0.627580 -0.721117
H23   H     H_    0.700220 0.750031 0.680648 0.320397
C40   C     C_2   0.164054 0.377369 0.370664 0.922620
O23   O     O_2   0.153501 0.419623 0.307709 -0.650973
O24   O     O_R   0.247064 0.272541 0.374546 -0.708363
H24   H     H_    0.295642 0.242099 0.321954 0.317408
C41   C     C_3   0.129208 0.663962 0.617165 -0.437938
C42   C     C_3   0.087076 0.798931 0.612156 -0.704311
H25   H     H_    0.983099 0.821301 0.640777 0.284638
H26   H     H_    0.160465 0.860981 0.643104 0.255252
H27   H     H_    0.090516 0.818882 0.550205 0.296090
H28   H     H_    0.102427 0.638231 0.677279 0.221469
H29   H     H_    0.240721 0.665940 0.610187 0.267108
C43   C     C_3   0.869991 0.343605 0.378777 -0.388741
C44   C     C_3   0.927898 0.210134 0.365562 -0.755260
H30   H     H_    0.992781 0.196640 0.309435 0.255787
H31   H     H_    0.991448 0.187683 0.413387 0.333159
H32   H     H_    0.842682 0.142356 0.361503 0.243287
H33   H     H_    0.760131 0.331754 0.391251 0.264955
H34   H     H_    0.883249 0.386851 0.322821 0.210899

loop_
_geom_bond_atom_site_label_1
_geom_bond_atom_site_label_2
_ccdc_geom_bond_type
O22   H23   S    
C34   H15   S    
C41   C42   S    
Cu1   O4    S    
C1    C8    S    
C36   O15   D    
Cu2   O7    S    
C2    C7    S    
C31   C32   S    
C38   O19   D    
C14   O8    A    
C37   O17   D    
C43   H33   S    
C44   H30   S    
C33   H17   S    
C10   N1    A    
C3    C35   S    
C24   C26   A    
C20   C31   S    
C15   C25   A    
C19   C33   S    
C32   H9    S    
Cu2   N2    S    
C11   N1    A    
C35   O14   S    
C9    N2    A    
C9    C39   S    
O20   H22   S    
C28   H5    S    
Cu2   O3    S    
C40   O24   S    
C41   H29   S    
C18   C20   A    
C25   H4    S    
C11   C41   S    
C24   C30   S    
C39   O22   S    
C21   C27   S    
C34   H16   S    
C44   H31   S    
C6    C38   S    
C22   C28   S    
C31   H12   S    
Cu1   O5    S    
C36   O16   S    
Cu2   O6    S    
C35   O13   D    
C4    C7    A    
C38   O20   S    
C37   O18   S    
C16   C26   A    
C23   C29   S    
C30   O11   D    
C10   C40   S    
C29   O10   S    
C3    C8    A    
O24   H24   S    
C5    C7    A    
C6    C8    A    
C42   H27   S    
C39   O21   D    
O18   H21   S    
C30   O12   S    
O16   H20   S    
Cu1   Cu2   S    
C26   H3    S    
C29   O9    D    
Cu1   O1    S    
C33   C34   S    
Cu2   O2    S    
C42   H26   S    
C9    C11   A    
C4    C36   S    
C10   C12   A    
C4    C6    A    
C20   C22   A    
C44   H32   S    
C13   C15   S    
C17   H1    S    
C14   C16   S    
C18   H2    S    
C5    C37   S    
C13   O5    A    
C14   O6    A    
C1    O3    A    
C15   C17   A    
C19   C21   A    
C3    C5    A    
O12   H8    S    
C27   H6    S    
C43   H34   S    
C32   H11   S    
C33   H18   S    
Cu1   O8    S    
C21   C23   A    
O14   H19   S    
C13   O7    A    
C2    O4    A    
C31   H13   S    
C43   C44   S    
C17   C19   A    
C32   H10   S    
C22   C24   A    
C23   C25   A    
C12   N2    A    
C42   H25   S    
C12   C43   S    
C1    O1    A    
C34   H14   S    
C2    O2    A    
C16   C18   A    
O10   H7    S    
Cu1   N1    S    
C27   C28   D    
C40   O23   D    
C41   H28   S    
