data_mof_unit_34938.cif
_audit_creation_date              2012-12-11T14:08:37-0500
_audit_creation_method            fapswitch 2.2
_symmetry_space_group_name_H-M    P1
_symmetry_Int_Tables_number       1
_space_group_crystal_system       triclinic
_cell_length_a                    27.78109
_cell_length_b                    7.215632
_cell_length_c                    17.194256
_cell_angle_alpha                 90.001263
_cell_angle_beta                  101.176074
_cell_angle_gamma                 90.000443
_cell_volume                      3381.36513021

loop_
_atom_site_label
_atom_site_type_symbol
_atom_type_description
_atom_site_fract_x
_atom_site_fract_y
_atom_site_fract_z
_atom_type_partial_charge
O1    O     O_R   0.000700 0.436510 0.857920 -0.515835
O2    O     O_R   0.999300 0.563490 0.142080 -0.523180
O3    O     O_R   0.999300 0.936510 0.642080 -0.515863
O4    O     O_R   0.000700 0.063490 0.357920 -0.523248
O5    O     O_R   0.930080 0.766380 0.721890 -0.542345
O6    O     O_R   0.069920 0.233620 0.278110 -0.504625
O7    O     O_R   0.069920 0.266380 0.778110 -0.542343
O8    O     O_R   0.930080 0.733620 0.221890 -0.504341
C1    C     C_R   0.910715 0.597889 0.704236 0.745151
C2    C     C_R   0.089757 0.402930 0.286500 0.722245
C3    C     C_R   0.089284 0.097891 0.795765 0.745165
C4    C     C_R   0.910241 0.902925 0.213502 0.723108
O9    O     O_R   0.996180 0.766230 0.862310 -0.546541
O10   O     O_R   0.003820 0.233770 0.137690 -0.553686
O11   O     O_R   0.003820 0.266230 0.637690 -0.546545
O12   O     O_R   0.996180 0.733770 0.362310 -0.553672
O13   O     O_R   0.065870 0.936460 0.783500 -0.505075
O14   O     O_R   0.934130 0.063540 0.216500 -0.544333
O15   O     O_R   0.934130 0.436460 0.716500 -0.505094
O16   O     O_R   0.065870 0.563540 0.283500 -0.544205
C5    C     C_R   0.997746 0.595984 0.894167 0.692724
C6    C     C_R   0.002458 0.404126 0.106001 0.694338
C7    C     C_R   0.002251 0.095983 0.605833 0.692740
C8    C     C_R   0.997541 0.904127 0.393998 0.694092
O17   O     O_3   0.022790 0.603020 0.723980 -0.369053
O18   O     O_3   0.977210 0.396980 0.276020 -0.381379
O19   O     O_3   0.977210 0.103020 0.776020 -0.369052
O20   O     O_3   0.022790 0.896980 0.223980 -0.381452
V1    V     V_3+5 0.995770 0.877900 0.754830 1.518064
V2    V     V_3+5 0.004230 0.122100 0.245170 1.430923
V3    V     V_3+5 0.004230 0.377900 0.745170 1.518044
V4    V     V_3+5 0.995770 0.622100 0.254830 1.431377
C9    C     C_2   0.007643 0.077505 0.521667 0.147651
C10   C     C_2   0.990707 0.923445 0.477507 0.187410
C11   C     C_2   0.992350 0.577499 0.978333 0.147700
C12   C     C_2   0.009293 0.423448 0.022492 0.187341
C13   C     C_R   0.678762 0.026254 0.098744 0.630711
C14   C     C_R   0.306917 0.076371 0.037572 0.672558
C15   C     C_R   0.321236 0.526361 0.401281 0.630880
C16   C     C_R   0.693082 0.576358 0.462425 0.672594
O21   O     O_2   0.707032 0.036482 0.043283 -0.493735
O22   O     O_2   0.272771 0.104543 0.082388 -0.478561
O23   O     O_2   0.292967 0.536656 0.456743 -0.493587
O24   O     O_2   0.727228 0.604495 0.417606 -0.478556
N1    N     N_R   0.700048 0.981162 0.174543 -0.556688
N2    N     N_R   0.292274 0.069822 0.957027 -0.561076
N3    N     N_R   0.299948 0.481203 0.325489 -0.556706
N4    N     N_R   0.707727 0.569828 0.542970 -0.561074
C17   C     C_R   0.672961 0.974126 0.233056 0.670395
C18   C     C_R   0.325065 0.035693 0.909180 0.594642
C19   C     C_R   0.327034 0.474130 0.266975 0.670431
C20   C     C_R   0.674936 0.535735 0.590820 0.594626
C21   C     C_R   0.784095 0.099371 0.222427 0.233748
C22   C     C_R   0.219333 0.249790 0.890565 0.244894
C23   C     C_R   0.215895 0.599251 0.277476 0.233954
C24   C     C_R   0.780670 0.749793 0.609427 0.244915
C25   C     C_R   0.835004 0.080893 0.228004 -0.311950
C26   C     C_R   0.170609 0.252260 0.848617 -0.241109
C27   C     C_R   0.164986 0.580763 0.271880 -0.311368
C28   C     C_R   0.829393 0.752261 0.651379 -0.241076
C29   C     C_R   0.823845 0.768810 0.174803 0.410946
C30   C     C_R   0.163984 0.920739 0.869264 0.448875
C31   C     C_R   0.176160 0.268963 0.325386 0.410639
C32   C     C_R   0.836012 0.420731 0.630749 0.448840
C33   C     C_R   0.772822 0.788097 0.169564 -0.228944
C34   C     C_R   0.213069 0.919128 0.909627 -0.211009
C35   C     C_R   0.227176 0.288226 0.330620 -0.228340
C36   C     C_R   0.786929 0.419123 0.590376 -0.210970
C37   C     C_R   0.752641 0.953090 0.192404 0.344215
C38   C     C_R   0.240809 0.081576 0.921222 0.261098
C39   C     C_R   0.247355 0.453086 0.307636 0.343719
C40   C     C_R   0.759192 0.581577 0.578773 0.261076
C41   C     C_R   0.598243 0.033845 0.136095 -0.183881
C42   C     C_R   0.392129 0.037167 0.024430 -0.167774
C43   C     C_R   0.401755 0.533909 0.363924 -0.183881
C44   C     C_R   0.607870 0.537206 0.475573 -0.167775
C45   C     C_R   0.627902 0.060315 0.078302 -0.044185
C46   C     C_R   0.357336 0.055730 0.073313 -0.042051
C47   C     C_R   0.372097 0.560424 0.421717 -0.044228
C48   C     C_R   0.642662 0.555736 0.426688 -0.042036
C49   C     C_R   0.606238 0.131510 0.003380 0.163236
C50   C     C_R   0.373339 0.040308 0.155790 0.153575
C51   C     C_R   0.393765 0.631660 0.496633 0.163232
C52   C     C_R   0.626656 0.540307 0.344211 0.153581
C53   C     C_R   0.620935 0.002337 0.215140 -0.123890
C54   C     C_R   0.375506 0.011938 0.941701 -0.109513
C55   C     C_R   0.379060 0.502360 0.284884 -0.123898
C56   C     C_R   0.624494 0.511997 0.558303 -0.109516
C57   C     C_R   0.855679 0.916895 0.204085 -0.169738
C58   C     C_R   0.142223 0.088848 0.836390 -0.221053
C59   C     C_R   0.144316 0.416909 0.295941 -0.170107
C60   C     C_R   0.857776 0.588845 0.663613 -0.221068
H1    H     H_    0.748585 0.675852 0.145492 0.142021
H2    H     H_    0.230158 0.789411 0.931182 0.162952
H3    H     H_    0.251407 0.176100 0.354843 0.142565
H4    H     H_    0.769840 0.289402 0.568822 0.162983
C61   C     C_R   0.476186 0.027228 0.005234 -0.039454
C62   C     C_R   0.515133 0.040763 0.171933 0.036961
C63   C     C_R   0.523813 0.527319 0.494777 -0.039469
C64   C     C_R   0.484862 0.540798 0.328078 0.036951
C65   C     C_R   0.461406 0.041879 0.142184 0.087163
C66   C     C_R   0.525793 0.066752 0.033303 0.069346
C67   C     C_R   0.538590 0.541912 0.357823 0.087155
C68   C     C_R   0.474207 0.566852 0.466708 0.069354
C69   C     C_R   0.443314 0.036364 0.057842 -0.103500
C70   C     C_R   0.546196 0.044583 0.114297 -0.083882
C71   C     C_R   0.556685 0.536417 0.442165 -0.103512
C72   C     C_R   0.453802 0.544649 0.385718 -0.083881
C73   C     C_R   0.460072 0.960948 0.926729 0.509122
C74   C     C_R   0.540060 0.050725 0.254317 0.473257
C75   C     C_R   0.539927 0.461066 0.573284 0.509119
C76   C     C_R   0.459933 0.550732 0.245695 0.473281
C77   C     C_R   0.409308 0.950069 0.895457 0.105028
C78   C     C_R   0.592360 0.018786 0.274514 0.091867
C79   C     C_R   0.590691 0.450166 0.604553 0.105032
C80   C     C_R   0.407631 0.518796 0.225505 0.091860
O25   O     O_2   0.308617 0.028651 0.830142 -0.525862
O26   O     O_2   0.696358 0.937759 0.307756 -0.466321
O27   O     O_2   0.691385 0.528717 0.669858 -0.525881
O28   O     O_2   0.303637 0.437699 0.192280 -0.466309
C81   C     C_R   0.555001 0.141940 0.982430 0.190374
C82   C     C_R   0.424245 0.029236 0.189797 0.176987
C83   C     C_R   0.445002 0.642080 0.517578 0.190359
C84   C     C_R   0.575750 0.529249 0.310208 0.177011
H5    H     H_    0.155084 0.383126 0.825320 0.211171
H6    H     H_    0.858381 0.195923 0.251696 0.175928
H7    H     H_    0.844920 0.883131 0.674673 0.211180
H8    H     H_    0.141602 0.695676 0.248070 0.175571
O29   O     O_3   0.038578 0.200442 0.493226 -0.582490
C85   C     C_3   0.015527 0.374155 0.477634 -0.119615
H9    H     H_    0.022321 0.462375 0.531446 0.170665
H10   H     H_    0.975428 0.363506 0.452847 0.109027
H11   H     H_    0.032780 0.445029 0.432929 0.166494
O30   O     O_3   0.965658 0.785729 0.509993 -0.564525
C86   C     C_3   0.917173 0.770595 0.466543 -0.308996
H12   H     H_    0.916103 0.688200 0.411699 0.158623
H13   H     H_    0.899622 0.908361 0.451802 0.112751
H14   H     H_    0.894891 0.695509 0.503431 0.165815
O31   O     O_3   0.961403 0.700401 0.006772 -0.582103
C87   C     C_3   0.984440 0.874146 0.022357 -0.118716
H15   H     H_    0.977641 0.962348 0.968542 0.170442
H16   H     H_    0.024540 0.863547 0.047147 0.108738
H17   H     H_    0.967182 0.945013 0.067060 0.166525
O32   O     O_3   0.034351 0.285759 0.990003 -0.564515
C88   C     C_3   0.082826 0.270564 0.033486 -0.309058
H18   H     H_    0.083877 0.188012 0.088281 0.158626
H19   H     H_    0.100374 0.408307 0.048312 0.112732
H20   H     H_    0.105124 0.195607 0.996584 0.165833
O33   O     O_3   0.842311 0.602616 0.153446 -0.556907
C89   C     C_3   0.840453 0.604284 0.070958 -0.165267
H21   H     H_    0.862246 0.721099 0.053285 0.147148
H22   H     H_    0.801912 0.610480 0.037644 0.146763
H23   H     H_    0.856849 0.473581 0.054193 0.164226
O34   O     O_3   0.138715 0.754800 0.857109 -0.535941
C90   C     C_3   0.126664 0.696168 0.929229 -0.225871
H24   H     H_    0.104925 0.803172 0.953958 0.105475
H25   H     H_    0.159956 0.658100 0.973448 0.138075
H26   H     H_    0.103664 0.569967 0.917511 0.157272
O35   O     O_3   0.157751 0.102965 0.347051 -0.556906
C91   C     C_3   0.158794 0.106889 0.429308 -0.163924
H27   H     H_    0.136302 0.223079 0.445659 0.147157
H28   H     H_    0.197090 0.115922 0.463472 0.146592
H29   H     H_    0.142696 0.975860 0.446375 0.164178
O36   O     O_3   0.861272 0.254779 0.642923 -0.535942
C92   C     C_3   0.873372 0.196210 0.570830 -0.225762
H30   H     H_    0.895166 0.303179 0.546197 0.105510
H31   H     H_    0.840100 0.158323 0.526532 0.137998
H32   H     H_    0.896335 0.069916 0.582550 0.157237
N5    N     N_3   0.636086 0.199358 0.950017 -0.589976
H33   H     H_    0.628122 0.339242 0.938044 0.227553
H34   H     H_    0.627850 0.124170 0.897133 0.242472
N6    N     N_3   0.337363 0.015298 0.204898 -0.564257
H35   H     H_    0.339971 0.880684 0.227634 0.239755
H36   H     H_    0.343373 0.109428 0.251747 0.231415
N7    N     N_3   0.363919 0.699549 0.549993 -0.589835
H37   H     H_    0.371890 0.839432 0.561961 0.227598
H38   H     H_    0.372153 0.624375 0.602879 0.242468
N8    N     N_3   0.662630 0.515287 0.295099 -0.564279
H39   H     H_    0.656624 0.609433 0.248258 0.231403
H40   H     H_    0.660015 0.380679 0.272353 0.239738
N9    N     N_3   0.246620 0.419203 0.900652 -0.650768
H41   H     H_    0.277461 0.403682 0.874769 0.253140
H42   H     H_    0.258772 0.441187 0.961396 0.245509
N10   N     N_3   0.764036 0.268874 0.245435 -0.628710
H43   H     H_    0.779478 0.293978 0.304929 0.254792
H44   H     H_    0.774931 0.375897 0.211779 0.257514
N11   N     N_3   0.753387 0.919212 0.599332 -0.650747
H45   H     H_    0.722542 0.903706 0.625205 0.253129
H46   H     H_    0.741242 0.941190 0.538586 0.245531
N12   N     N_3   0.235950 0.768661 0.254360 -0.628575
H47   H     H_    0.220523 0.793517 0.194840 0.254656
H48   H     H_    0.225039 0.875836 0.287926 0.257542
N13   N     N_3   0.392994 0.855778 0.821487 -0.665546
H49   H     H_    0.378683 0.951626 0.777533 0.272350
H50   H     H_    0.366779 0.755822 0.827880 0.265398
N14   N     N_3   0.618583 0.031254 0.354851 -0.605360
H51   H     H_    0.615148 0.163736 0.377360 0.243855
H52   H     H_    0.607837 0.926473 0.389617 0.228679
N15   N     N_3   0.607003 0.355886 0.678523 -0.665545
H53   H     H_    0.621319 0.451739 0.722475 0.272336
H54   H     H_    0.633213 0.255913 0.672130 0.265389
N16   N     N_3   0.381406 0.531267 0.145170 -0.605357
H55   H     H_    0.384847 0.663740 0.122660 0.243851
H56   H     H_    0.392144 0.426470 0.110403 0.228686
O37   O     O_3   0.494807 0.873821 0.890182 -0.551685
C93   C     C_3   0.489919 0.918372 0.808915 -0.179722
H57   H     H_    0.471293 0.053491 0.792367 0.138374
H58   H     H_    0.470719 0.804550 0.772118 0.164311
H59   H     H_    0.527105 0.926921 0.794580 0.142245
O38   O     O_3   0.517466 0.148459 0.307495 -0.549956
C94   C     C_3   0.521209 0.061791 0.382671 -0.190925
H60   H     H_    0.550522 0.125041 0.427525 0.132900
H61   H     H_    0.524681 0.908921 0.380110 0.136500
H62   H     H_    0.487575 0.091367 0.406136 0.167629
O39   O     O_3   0.505191 0.373981 0.609842 -0.551680
C95   C     C_3   0.510083 0.418589 0.691105 -0.179667
H63   H     H_    0.528716 0.553705 0.707638 0.138327
H64   H     H_    0.529277 0.304779 0.727913 0.164337
H65   H     H_    0.472898 0.427180 0.705441 0.142249
O40   O     O_3   0.482525 0.648435 0.192508 -0.549952
C96   C     C_3   0.478779 0.561726 0.117338 -0.190911
H66   H     H_    0.449467 0.624966 0.072480 0.132897
H67   H     H_    0.475301 0.408860 0.119910 0.136487
H68   H     H_    0.512414 0.591268 0.093870 0.167639
N17   N     N_3   0.532155 0.249333 0.914907 -0.682591
H69   H     H_    0.541074 0.388563 0.926803 0.232744
H70   H     H_    0.546630 0.210888 0.865687 0.222608
N18   N     N_3   0.436569 0.992570 0.272480 -0.625753
H71   H     H_    0.423263 0.101855 0.302200 0.231126
H72   H     H_    0.419678 0.871202 0.285850 0.220203
N19   N     N_3   0.467852 0.749499 0.585093 -0.682591
H73   H     H_    0.458940 0.888728 0.573186 0.232752
H74   H     H_    0.453375 0.711099 0.634315 0.222589
N20   N     N_3   0.563423 0.492571 0.227526 -0.625748
H75   H     H_    0.576732 0.601838 0.197802 0.231124
H76   H     H_    0.580306 0.371185 0.214155 0.220201

loop_
_geom_bond_atom_site_label_1
_geom_bond_atom_site_label_2
_ccdc_geom_bond_type
O17   V3    S    
C86   H14   S    
O1    C5    A    
C92   H30   S    
C62   C74   A    
C23   C27   A    
O19   V1    S    
C18   O25   S    
O13   V1    S    
N5    H33   S    
N19   H73   S    
O3    C7    A    
C11   C12   D    
C3    C58   S    
C95   H65   S    
C31   O35   S    
C48   C52   A    
C21   C37   A    
N18   H72   S    
N8    H39   S    
N16   H56   S    
C86   H12   S    
N7    H38   S    
C68   C83   A    
N9    H41   S    
C73   O37   S    
O7    C3    A    
C36   H4    S    
C43   C47   A    
C25   C57   A    
C54   C77   A    
C32   C36   A    
O9    V1    S    
O36   C92   S    
C75   O39   S    
C14   O22   S    
C96   H68   S    
C51   N7    S    
C22   C26   A    
O4    C8    A    
N11   H46   S    
C93   H58   S    
C76   C80   A    
C90   H25   S    
C10   O30   S    
C9    O29   S    
O1    V3    S    
C81   N17   S    
N10   H43   S    
O2    V4    S    
O3    V1    S    
C16   N4    A    
O40   C96   S    
C11   O31   S    
C41   C45   A    
C1    O15   A    
C94   H60   S    
C2    O16   A    
C24   C40   A    
C89   H23   S    
O2    C6    A    
C95   H63   S    
C16   C48   A    
C66   C70   A    
C52   C84   A    
O14   V2    S    
N1    C17   A    
C66   C81   A    
C44   C56   A    
C61   C66   A    
N13   H49   S    
C73   C77   A    
C34   H2    S    
C84   N20   S    
O11   C7    A    
C63   C68   A    
O15   V3    S    
N15   H53   S    
O12   C8    A    
C90   H26   S    
C35   H3    S    
N5    H34   S    
C31   C59   A    
C74   O38   S    
N20   H76   S    
O10   V2    S    
C67   C84   A    
C1    C60   S    
N18   H71   S    
C88   H19   S    
C29   C57   A    
C88   H18   S    
O5    V1    S    
N9    H42   S    
C65   C69   A    
N17   H70   S    
C31   C35   A    
C64   C72   A    
O7    V3    S    
N16   H55   S    
C30   C34   A    
N1    C37   S    
O8    V4    S    
C91   H29   S    
C17   C53   A    
C4    C57   S    
C20   C56   A    
C87   H15   S    
N14   H52   S    
C21   N10   S    
C19   C55   A    
C25   H6    S    
C21   C25   A    
C93   H57   S    
N14   H51   S    
N3    C19   A    
C14   C46   A    
C7    C9    S    
C27   H8    S    
O37   C93   S    
C79   N15   S    
O6    V2    S    
C64   C67   A    
C8    C10   S    
C20   O27   S    
C24   C28   A    
C49   C81   A    
C36   C40   A    
C91   H28   S    
C85   H10   S    
O39   C95   S    
C23   N12   S    
N12   H47   S    
O5    C1    A    
C96   H66   S    
C29   C33   A    
C61   C73   A    
C46   C50   A    
N8    H40   S    
O35   C91   S    
C22   C38   A    
C24   N11   S    
C45   C49   A    
O8    C4    A    
C63   C75   A    
N13   H50   S    
C19   O28   S    
C76   O40   S    
C22   N9    S    
O9    C5    A    
N19   H74   S    
C27   C59   A    
C42   C54   A    
C87   H17   S    
C52   N8    S    
C26   C58   A    
N3    C39   S    
C55   C80   A    
C78   N14   S    
C50   N6    S    
C75   C79   A    
C43   C55   A    
C94   H61   S    
C2    C59   S    
C64   C76   A    
C44   C71   A    
C49   N5    S    
C89   H22   S    
C85   H11   S    
O12   V4    S    
N20   H75   S    
N4    C40   S    
C13   N1    A    
C68   C72   A    
C88   H20   S    
C6    C12   S    
N6    H35   S    
C15   N3    A    
O29   C85   S    
O16   V4    S    
C43   C72   A    
C86   H13   S    
C74   C78   A    
C3    O13   A    
N12   H48   S    
N17   H69   S    
C77   N13   S    
C32   O36   S    
C28   H7    S    
C44   C48   A    
C87   H16   S    
O32   C88   S    
O6    C2    A    
C80   N16   S    
O31   C87   S    
O11   V3    S    
O30   C86   S    
C5    C11   S    
C92   H32   S    
C62   C65   A    
C63   C71   A    
N2    C18   A    
C65   C82   A    
C62   C70   A    
C91   H27   S    
N2    C38   S    
C56   C79   A    
O20   V2    S    
C85   H9    S    
C12   O32   S    
C61   C69   A    
C41   C53   A    
C96   H67   S    
N7    H37   S    
O33   C89   S    
C42   C69   A    
C47   C51   A    
C93   H59   S    
O10   C6    A    
C41   C70   A    
C34   C38   A    
C13   C45   A    
C33   C37   A    
C30   C58   A    
C33   H1    S    
N6    H36   S    
C9    C10   D    
N10   H44   S    
C35   C39   A    
C13   O21   S    
C82   N18   S    
O4    V2    S    
C14   N2    A    
C53   C78   A    
C18   C54   A    
C17   O26   S    
C30   O34   S    
O34   C90   S    
C16   O24   S    
C94   H62   S    
C83   N19   S    
N11   H45   S    
C26   H5    S    
C92   H31   S    
O38   C94   S    
C42   C46   A    
C15   O23   S    
C4    O14   A    
C90   H24   S    
N15   H54   S    
C32   C60   A    
C89   H21   S    
C67   C71   A    
C51   C83   A    
N4    C20   A    
C28   C60   A    
C29   O33   S    
C50   C82   A    
O18   V4    S    
C23   C39   A    
C95   H64   S    
C15   C47   A    
