data_mof_unit_39004.cif
_audit_creation_date              2012-12-10T17:03:41-0500
_audit_creation_method            fapswitch 2.2
_symmetry_space_group_name_H-M    P1
_symmetry_Int_Tables_number       1
_space_group_crystal_system       triclinic
_cell_length_a                    10.110403
_cell_length_b                    10.738164
_cell_length_c                    13.153069
_cell_angle_alpha                 90.478534
_cell_angle_beta                  72.034801
_cell_angle_gamma                 90.107503
_cell_volume                      1358.32057568

loop_
_atom_site_label
_atom_site_type_symbol
_atom_type_description
_atom_site_fract_x
_atom_site_fract_y
_atom_site_fract_z
_atom_type_partial_charge
C1    C     C_R   0.499149 0.737042 0.502702 0.927027
C2    C     C_R   0.452771 0.429655 0.977506 0.093466
C3    C     C_R   0.490874 0.422570 0.865026 0.056573
C4    C     C_R   0.559343 0.437090 0.026002 0.014591
C5    C     C_R   0.696806 0.463421 0.962248 0.137822
C6    C     C_R   0.734610 0.438564 0.853420 -0.214826
C7    C     C_R   0.633303 0.404187 0.807995 -0.178255
C8    C     C_R   0.535284 0.419193 0.135213 0.432853
C9    C     C_R   0.751064 0.529933 0.119776 -0.286219
C10   C     C_R   0.386761 0.438532 0.813858 -0.183017
C11   C     C_2   0.608866 0.067310 0.505931 -0.141919
C12   C     C_R   0.425685 0.479730 0.701106 0.882680
C13   C     C_2   0.505116 0.131128 0.488005 -0.301506
C14   C     C_2   0.612011 0.933270 0.499679 -0.168672
C15   C     C_2   0.495007 0.868761 0.513257 -0.327336
C16   C     C_2   0.092323 0.413590 0.455667 -0.206795
C17   C     C_2   0.941268 0.409972 0.459528 0.649188
C18   C     C_R   0.500999 0.262924 0.497566 0.930319
C19   C     C_R   0.576133 0.497528 0.297123 0.901226
C20   C     C_R   0.792733 0.510882 0.009733 -0.166645
C21   C     C_R   0.620960 0.485556 0.182043 -0.129567
C22   C     C_R   0.246262 0.423884 0.875175 0.278780
C23   C     C_R   0.209129 0.429229 0.986188 -0.177142
C24   C     C_R   0.311061 0.441821 0.036305 -0.267264
H1    H     H_    0.821401 0.574512 0.156415 0.176763
H2    H     H_    0.422838 0.087850 0.463392 0.149792
H3    H     H_    0.712202 0.887756 0.484742 0.192163
H4    H     H_    0.392966 0.911573 0.534998 0.159435
H5    H     H_    0.156427 0.335543 0.418029 0.147550
H6    H     H_    0.086886 0.559944 0.552363 0.228354
H7    H     H_    0.841440 0.443647 0.803665 0.191596
H8    H     H_    0.895978 0.538629 0.962045 0.183032
H9    H     H_    0.277667 0.462719 0.120541 0.141154
H10   H     H_    0.100627 0.426850 0.033847 0.164721
H11   H     H_    0.668967 0.368193 0.727205 0.187974
H12   H     H_    0.694472 0.113461 0.524445 0.208670
N1    N     N_2   0.148270 0.498670 0.498870 -0.188011
N2    N     N_2   0.852610 0.498640 0.498840 0.042609
O1    O     O_R   0.386950 0.680940 0.500020 -0.610267
O2    O     O_R   0.613110 0.680900 0.499980 -0.601792
O3    O     O_R   0.330780 0.500000 0.653640 -0.559865
O4    O     O_R   0.556930 0.499960 0.653610 -0.658501
O5    O     O_R   0.386890 0.319100 0.500020 -0.611749
O6    O     O_R   0.613050 0.319060 0.499980 -0.582702
O7    O     O_R   0.443070 0.500040 0.346390 -0.619063
O8    O     O_R   0.669220 0.500000 0.346360 -0.607331
Zn1   Zn    Zn3+2 0.349000 0.500030 0.500020 0.979684
Zn2   Zn    Zn3+2 0.651000 0.499970 0.499980 0.998272
O9    O     O_3   0.891783 0.300498 0.428887 -0.629272
C25   C     C_3   0.938315 0.291702 0.316391 -0.308042
H13   H     H_    0.051005 0.269469 0.286431 0.129048
H14   H     H_    0.916167 0.378006 0.278027 0.173482
H15   H     H_    0.881862 0.214275 0.291656 0.212670
O10   O     O_3   0.905233 0.613715 0.500072 -0.579380
C26   C     C_3   0.846144 0.662131 0.604354 -0.209156
H16   H     H_    0.732725 0.675285 0.625779 0.214801
H17   H     H_    0.893189 0.754488 0.609312 0.157959
H18   H     H_    0.868497 0.601099 0.664883 0.121215
O11   O     O_3   0.502989 0.299069 0.173282 -0.591474
C27   C     C_3   0.359435 0.282898 0.221292 -0.298454
H19   H     H_    0.305488 0.369244 0.258556 0.152022
H20   H     H_    0.343746 0.212971 0.285533 0.188871
H21   H     H_    0.312156 0.244509 0.161994 0.182450
Br1   Br    Br    0.103750 0.383524 0.812733 -0.584591

loop_
_geom_bond_atom_site_label_1
_geom_bond_atom_site_label_2
_ccdc_geom_bond_type
C25   H14   S    
C23   C24   A    
C19   O7    A    
C6    C7    A    
C1    C15   S    
C18   O6    A    
C14   H3    S    
N1    Zn1   S    
C9    C20   A    
C2    C4    A    
C24   H9    S    
N2    O10   S    
C16   N1    D    
C4    C8    A    
C23   H10   S    
C26   H16   S    
O7    Zn1   S    
C6    H7    S    
O3    Zn1   S    
C19   O8    A    
C9    H1    S    
O11   C27   S    
C3    C10   A    
O4    Zn2   S    
C18   O5    A    
C10   C22   A    
C11   C13   D    
C9    C21   A    
C15   H4    S    
C12   O3    A    
C10   C12   S    
C13   C18   S    
C27   H19   S    
C27   H21   S    
O1    Zn1   S    
C11   H12   S    
C19   C21   S    
N2    Zn2   S    
C2    C3    A    
C3    C7    A    
C17   N2    D    
C26   H17   S    
C8    O11   S    
C2    C24   A    
C5    C6    A    
C11   C14   S    
O8    Zn2   S    
C13   H2    S    
C25   H15   S    
C1    O1    A    
C22   Br1   S    
C7    H11   S    
C27   H20   S    
O9    C25   S    
C20   H8    S    
C26   H18   S    
C17   O9    S    
C5    C20   A    
O2    Zn2   S    
O10   C26   S    
C16   C17   S    
C12   O4    A    
C1    O2    A    
C25   H13   S    
C16   H5    S    
C14   C15   D    
O5    Zn1   S    
C22   C23   A    
O6    Zn2   S    
H6    N1    S    
C4    C5    A    
C8    C21   A    
