data_mof_unit_35314.cif
_audit_creation_date              2012-12-11T19:58:30-0500
_audit_creation_method            fapswitch 2.2
_symmetry_space_group_name_H-M    P1
_symmetry_Int_Tables_number       1
_space_group_crystal_system       triclinic
_cell_length_a                    8.319252
_cell_length_b                    15.920596
_cell_length_c                    22.902467
_cell_angle_alpha                 107.548444
_cell_angle_beta                  89.45876
_cell_angle_gamma                 84.459033
_cell_volume                      2876.31601481

loop_
_atom_site_label
_atom_site_type_symbol
_atom_type_description
_atom_site_fract_x
_atom_site_fract_y
_atom_site_fract_z
_atom_type_partial_charge
Ba1   Ba    Ba6+2 0.335320 0.541410 0.478120 1.713925
Ba2   Ba    Ba6+2 0.854470 0.458670 0.521900 1.717553
C1    C     C_3   0.050960 0.871742 0.381249 -0.293410
C2    C     C_R   0.577056 0.580065 0.951538 -0.031382
C3    C     C_R   0.532354 0.575928 0.890977 0.596492
C4    C     C_3   0.578475 0.789792 0.354404 0.286979
C5    C     C_R   0.482751 0.424098 0.871302 0.579078
C6    C     C_R   0.527794 0.426004 0.931005 -0.018436
C7    C     C_R   0.574328 0.504507 0.971477 -0.051946
C8    C     C_R   0.623381 0.658181 0.992944 -0.063982
C9    C     C_R   0.665491 0.661129 0.052584 -0.074118
C10   C     C_R   0.663439 0.585948 0.072926 -0.031945
C11   C     C_R   0.617975 0.507370 0.032161 -0.048426
C12   C     C_3   0.040194 0.777293 0.382423 0.416319
C13   C     C_R   0.526911 0.350633 0.951123 -0.068852
C14   C     C_R   0.571050 0.353257 0.010349 -0.069407
C15   C     C_R   0.616656 0.431489 0.051741 -0.025317
C16   C     C_3   0.525294 0.813488 0.295733 -0.220634
C17   C     C_R   0.661709 0.435165 0.112007 0.588637
C18   C     C_R   0.705529 0.587962 0.133120 0.597240
C19   C     C_2   0.298321 0.458017 0.767602 -0.082220
C20   C     C_3   0.283608 0.421424 0.699497 -0.085561
C21   C     C_1   0.495643 0.513172 0.686862 -0.030402
C22   C     C_2   0.539927 0.521587 0.744540 -0.093929
C23   C     C_3   0.057545 0.334817 0.326583 0.288226
C24   C     C_2   0.435161 0.494277 0.788996 0.211640
C25   C     C_R   0.886492 0.556020 0.240836 -0.082024
C26   C     C_R   0.925283 0.563167 0.301506 -0.056178
C27   C     C_R   0.694207 0.486926 0.313473 0.044136
C28   C     C_3   0.637962 0.729853 0.634103 0.273579
C29   C     C_R   0.651897 0.481676 0.252847 -0.025051
C30   C     C_R   0.746480 0.517331 0.215699 0.230685
C31   C     C_2   0.379197 0.462992 0.661999 -0.297751
C32   C     C_2   0.413820 0.229637 0.474888 -0.186526
C33   C     C_R   0.806267 0.751716 0.509068 -0.304126
C34   C     C_3   0.045453 0.312019 0.257446 -0.343872
C35   C     C_2   0.208158 0.126062 0.444198 -0.066087
C36   C     C_2   0.257757 0.205047 0.448338 0.040341
C37   C     C_2   0.504079 0.179672 0.502595 0.034592
C38   C     C_3   0.424651 0.104473 0.516359 -0.146677
C39   C     C_3   0.307122 0.060772 0.467940 0.063424
C40   C     C_3   0.671431 0.822397 0.671926 -0.270042
C41   C     C_2   0.526229 0.034326 0.534756 -0.054906
C42   C     C_2   0.625374 0.972442 0.492939 -0.083633
C43   C     C_R   0.869109 0.928231 0.539843 0.099410
C44   C     C_R   0.730441 0.902441 0.507948 -0.025373
C45   C     C_3   0.615340 0.245317 0.650622 0.274810
C46   C     C_R   0.973022 0.867452 0.557790 -0.126999
C47   C     C_R   0.940839 0.779151 0.543058 0.018494
C48   C     C_R   0.696528 0.812835 0.492944 -0.011995
C49   C     C_3   0.615874 0.259948 0.360242 0.263313
C50   C     C_3   0.715877 0.171662 0.328402 -0.219910
C51   C     C_3   0.139083 0.653877 0.668762 0.301587
C52   C     C_3   0.138304 0.677303 0.738212 -0.343238
C53   C     C_2   0.700933 0.104666 0.361412 0.406104
C54   C     C_2   0.669001 0.827389 0.260084 0.495368
C55   C     C_2   0.692104 0.128843 0.702278 0.485310
C56   C     C_3   0.650535 0.225876 0.710734 -0.270812
C57   C     C_2   0.103715 0.171632 0.618556 0.538834
C58   C     C_2   0.232386 0.147284 0.743180 0.514523
C59   C     C_2   0.386874 0.407750 0.598141 0.765933
C60   C     C_2   0.484178 0.027701 0.596142 0.580164
C61   C     C_2   0.439113 0.740892 0.253180 0.588911
C62   C     C_2   0.414272 0.898905 0.313733 0.445397
C63   C     C_3   0.115536 0.241556 0.679261 0.318197
C64   C     C_3   0.091141 0.207807 0.734856 -0.213336
C65   C     C_R   0.827182 0.530508 0.337577 -0.304389
H1    H     H_    0.087363 0.772750 0.426700 0.041773
H2    H     H_    0.075209 0.593876 0.650502 0.081046
H3    H     H_    0.166326 0.894759 0.400376 0.101215
H4    H     H_    0.204389 0.736290 0.757509 0.147258
H5    H     H_    0.197885 0.621312 0.751855 0.066434
H6    H     H_    0.911745 0.763918 0.379867 -0.085255
H7    H     H_    0.950420 0.916711 0.409774 0.044547
H8    H     H_    0.933773 0.353113 0.347871 0.000754
H9    H     H_    0.129601 0.392112 0.342567 0.056219
H10   H     H_    0.970497 0.256189 0.240411 0.140283
H11   H     H_    0.988796 0.370051 0.245222 0.053921
H12   H     H_    0.754174 0.818345 0.708982 0.130102
H13   H     H_    0.167961 0.292877 0.234892 0.138087
H14   H     H_    0.607900 0.318287 0.660436 0.045213
H15   H     H_    0.497508 0.221671 0.634777 -0.081228
H16   H     H_    0.750600 0.263218 0.732854 0.112484
H17   H     H_    0.542578 0.250863 0.741611 0.131634
H18   H     H_    0.240066 0.261099 0.680986 -0.179439
H19   H     H_    0.981758 0.172759 0.730403 0.111709
H20   H     H_    0.647850 0.722957 0.341435 0.056557
H21   H     H_    0.073694 0.265280 0.777196 0.062457
H22   H     H_    0.568632 0.293634 0.023692 0.132155
H23   H     H_    0.729291 0.855992 0.642769 0.103228
H24   H     H_    0.492067 0.288983 0.921005 0.134442
H25   H     H_    0.699793 0.722822 0.082830 0.122023
H26   H     H_    0.966394 0.579752 0.213164 0.125648
H27   H     H_    0.626814 0.717601 0.979429 0.129672
H28   H     H_    0.654898 0.545784 0.759377 0.131358
H29   H     H_    0.216499 0.439146 0.797524 0.105928
H30   H     H_    0.546525 0.449411 0.234697 0.124090
H31   H     H_    0.860403 0.534195 0.383764 0.075035
H32   H     H_    0.658635 0.839260 0.379259 -0.038488
H33   H     H_    0.076640 0.889703 0.584056 0.149176
H34   H     H_    0.556628 0.862173 0.692782 0.181899
H35   H     H_    0.454142 0.291099 0.472295 0.044985
H36   H     H_    0.781658 0.683351 0.498522 0.067395
H37   H     H_    0.639424 0.978454 0.447277 0.085359
H38   H     H_    0.753184 0.692967 0.612204 0.004687
H39   H     H_    0.551517 0.734507 0.598256 0.059561
H40   H     H_    0.802968 0.084164 0.384822 0.036283
H41   H     H_    0.011923 0.691814 0.757331 0.136297
H42   H     H_    0.044449 0.875753 0.333807 0.187262
H43   H     H_    0.649354 0.853333 0.221665 0.050678
H44   H     H_    0.780367 0.089789 0.666982 0.092826
H45   H     H_    0.488939 0.247827 0.366453 0.026062
H46   H     H_    0.117115 0.189499 0.576827 -0.014763
H47   H     H_    0.342735 0.174367 0.760390 0.063433
H48   H     H_    0.402572 0.336933 0.588927 -0.320059
H49   H     H_    0.096695 0.107173 0.422155 0.074777
H50   H     H_    0.412620 0.082499 0.628684 -0.007317
H51   H     H_    0.380266 0.752162 0.213678 0.019445
H52   H     H_    0.402559 0.939933 0.361055 0.070772
H53   H     H_    0.668029 0.290835 0.405077 0.044488
H54   H     H_    0.675461 0.144307 0.280884 0.134322
H55   H     H_    0.844977 0.182838 0.325468 0.070095
H56   H     H_    0.265682 0.640180 0.650616 0.023327
N1    N     N_R   0.484933 0.498459 0.851269 -0.423602
N2    N     N_R   0.702986 0.513445 0.152883 -0.419301
O1    O     O_2   0.414630 0.451750 0.353890 -0.453197
O2    O     O_2   0.839927 0.186412 0.495909 -0.498202
O3    O     O_3   0.739321 0.204071 0.606434 -0.586136
O4    O     O_3   0.654720 0.452660 0.425060 -0.493482
O5    O     O_3   0.021450 0.605740 0.544090 -0.478430
O6    O     O_2   0.953100 0.285520 0.441860 -0.481218
O7    O     O_3   0.132467 0.260821 0.340561 -0.631114
O8    O     O_2   0.960848 0.482453 0.703359 -0.491156
O9    O     O_3   0.994576 0.312128 0.683148 -0.600085
O10   O     O_2   0.533247 0.641753 0.874140 -0.585351
O11   O     O_2   0.441645 0.355468 0.837015 -0.634097
O12   O     O_3   0.061337 0.725743 0.653294 -0.631729
O13   O     O_2   0.666799 0.368016 0.127558 -0.596487
O14   O     O_2   0.743875 0.656741 0.168043 -0.595729
O15   O     O_3   0.116150 0.611500 0.411510 -0.496866
O16   O     O_2   0.262708 0.552158 0.301368 -0.433076
O17   O     O_3   0.617090 0.311747 0.320764 -0.638676
O18   O     O_3   0.131776 0.717038 0.332783 -0.535597
O19   O     O_2   0.236590 0.714510 0.558180 -0.446574
O20   O     O_3   0.511480 0.656670 0.446630 -0.459855
O21   O     O_2   0.362611 0.813828 0.506194 -0.455593
O22   O     O_2   0.574276 0.072143 0.361676 -0.610454
O23   O     O_3   0.442364 0.792159 0.392082 -0.596657
O24   O     O_2   0.807530 0.808503 0.272462 -0.573179
O25   O     O_2   0.629497 0.093220 0.735667 -0.544153
O26   O     O_2   0.078238 0.096032 0.615056 -0.602716
O27   O     O_2   0.222362 0.068104 0.732465 -0.504242
O28   O     O_2   0.343311 0.437375 0.557281 -0.536279
O29   O     O_2   0.521640 0.960904 0.610492 -0.575907
O30   O     O_2   0.437446 0.668546 0.261099 -0.546939
O31   O     O_2   0.341437 0.924824 0.275281 -0.574019
O32   O     O_2   0.775060 0.548280 0.646150 -0.459435
O33   O     O_3   0.534950 0.547420 0.574950 -0.457268
O34   O     O_3   0.073530 0.388570 0.588510 -0.446322
O35   O     O_3   0.570734 0.689360 0.673456 -0.627241
O36   O     O_3   0.168220 0.394330 0.455930 -0.428190
O37   O     O_3   0.678190 0.343400 0.553390 -0.473107
P1    P     P_3+3 0.594550 0.425840 0.359090 1.005293
P2    P     P_3+3 0.065650 0.701630 0.573510 1.007844
P3    P     P_3+3 0.505504 0.771386 0.459668 0.987052
P4    P     P_3+3 0.595130 0.574230 0.640920 1.009854
P5    P     P_3+3 0.689285 0.227163 0.538590 0.979663
P6    P     P_3+3 0.109555 0.609753 0.335093 1.032093
P7    P     P_3+3 0.133245 0.284503 0.420257 0.969149
P8    P     P_3+3 0.077819 0.401263 0.668559 0.972551

loop_
_geom_bond_atom_site_label_1
_geom_bond_atom_site_label_2
_ccdc_geom_bond_type
O15   P6    S    
C19   C24   D    
C49   H45   S    
O34   P8    S    
C27   P1    S    
C58   H47   S    
C5    N1    Am   
C41   C42   D    
C51   H2    S    
Ba2   O37   S    
C42   H37   S    
C45   O3    S    
C35   H49   S    
O20   P3    S    
C43   C44   A    
C28   O35   S    
C3    N1    Am   
C32   H35   S    
C62   H52   S    
C51   O12   S    
C18   O14   D    
Ba1   O33   S    
C22   C24   S    
Ba1   O4    S    
C34   H10   S    
Ba2   O32   S    
C64   H21   S    
C16   C61   S    
C49   O17   S    
C8    H27   S    
C13   C14   A    
Ba2   O4    S    
O37   P5    S    
O4    P1    S    
Ba1   Ba2   S    
C58   O27   D    
C45   H15   S    
C1    H7    S    
C7    C11   A    
C47   P2    S    
C65   H31   S    
C15   C17   A    
C27   C65   A    
Ba1   O20   S    
C9    H25   S    
C38   C41   S    
O6    P7    D    
C52   H4    S    
Ba1   P2    S    
C14   C15   A    
C21   C31   D    
C59   H48   S    
O3    P5    S    
C21   C22   D    
O35   P4    S    
Ba2   P4    S    
C63   O9    S    
C50   C53   S    
C16   C54   S    
O36   P7    S    
C29   H30   S    
Ba1   O36   S    
C14   H22   S    
C19   C20   S    
O19   P2    D    
C37   P5    S    
O23   P3    S    
C24   N1    S    
C48   P3    S    
C4    C16   S    
Ba2   O36   S    
C54   H43   S    
C42   C44   S    
Ba2   O6    S    
C46   H33   S    
C40   H12   S    
C32   C37   D    
C12   H6    S    
C5    C6    A    
C26   C65   A    
Ba1   O1    S    
Ba1   O5    S    
C51   H56   S    
C22   H28   S    
C37   C38   S    
C61   H51   S    
C6    C7    A    
C51   C52   S    
C13   H24   S    
C17   N2    Am   
C4    H20   S    
C49   C50   S    
C53   H40   S    
C40   H23   S    
C30   N2    S    
O8    P8    D    
C33   C47   A    
C35   C36   D    
C56   H17   S    
C21   P4    S    
C4    O23   S    
C50   H54   S    
C53   O22   D    
C29   C30   A    
C57   H46   S    
C55   O25   D    
C10   C18   A    
C33   C48   A    
C49   H53   S    
C1    H3    S    
C10   C11   A    
Ba1   O15   S    
C20   P8    S    
C1    C12   S    
C31   C59   S    
C38   C39   S    
O21   P3    D    
C6    C13   A    
C60   H50   S    
C28   H38   S    
C34   H13   S    
C25   H26   S    
O7    P7    S    
Ba2   O34   S    
C2    C8    A    
O1    P1    D    
C40   H34   S    
O17   P1    S    
O33   P4    S    
C36   P7    S    
C43   C46   A    
O5    P2    S    
C3    O10   D    
C20   C31   S    
C62   O31   D    
C12   O18   S    
C46   C47   A    
O16   P6    D    
C25   C30   A    
C32   C36   S    
C2    C3    A    
C59   O28   D    
O32   P4    D    
C64   H19   S    
O12   P2    S    
C50   H55   S    
C9    C10   A    
C63   H18   S    
C19   H29   S    
C57   O26   D    
C44   C48   A    
C33   H36   S    
C52   H41   S    
C23   H9    S    
C4    H32   S    
C54   O24   D    
C61   O30   D    
C18   N2    Am   
C27   C29   A    
Ba1   O19   S    
C34   H11   S    
C56   H16   S    
C57   C63   S    
C45   C56   S    
C16   C62   S    
C55   C56   S    
C55   H44   S    
C1    H42   S    
C17   O13   D    
Ba2   O5    S    
C45   H14   S    
C35   C39   S    
O18   P6    S    
C8    C9    A    
C26   P6    S    
C23   C34   S    
C58   C64   S    
C11   C15   A    
C60   O29   D    
C5    O11   D    
C52   H5    S    
Ba2   O33   S    
Ba1   P1    S    
O2    P5    D    
C63   C64   S    
O9    P8    S    
C25   C26   A    
C12   H1    S    
C28   C40   S    
C23   H8    S    
C2    C7    A    
C23   O7    S    
C28   H39   S    
C41   C60   S    
