data_mof_unit_22424.cif
_audit_creation_date              2012-12-11T21:05:37-0500
_audit_creation_method            fapswitch 2.2
_symmetry_space_group_name_H-M    P1
_symmetry_Int_Tables_number       1
_space_group_crystal_system       triclinic
_cell_length_a                    36.467533
_cell_length_b                    39.456329
_cell_length_c                    8.396275
_cell_angle_alpha                 90.000044
_cell_angle_beta                  93.777899
_cell_angle_gamma                 90.000686
_cell_volume                      12054.9370902

loop_
_atom_site_label
_atom_site_type_symbol
_atom_type_description
_atom_site_fract_x
_atom_site_fract_y
_atom_site_fract_z
_atom_type_partial_charge
Ba1   Ba    Ba6+2 0.000060 0.523150 0.844950 1.675996
Ba2   Ba    Ba6+2 0.000060 0.476850 0.344950 1.676135
Ba3   Ba    Ba6+2 0.500060 0.023150 0.844950 1.676202
Ba4   Ba    Ba6+2 0.500060 0.976850 0.344950 1.676184
C1    C     C_3   0.987291 0.691280 0.644568 -0.311629
C2    C     C_2   0.908984 0.634829 0.293431 -0.082165
C3    C     C_R   0.631729 0.814349 0.694911 0.590859
C4    C     C_2   0.091473 0.634600 0.396090 -0.077485
C5    C     C_2   0.091486 0.365405 0.896108 -0.077356
C6    C     C_2   0.591496 0.134589 0.396144 -0.077324
C7    C     C_2   0.591482 0.865407 0.896121 -0.077278
C8    C     C_3   0.057980 0.612691 0.415838 -0.107228
C9    C     C_3   0.057996 0.387316 0.915862 -0.106818
C10   C     C_3   0.558004 0.112681 0.415893 -0.106692
C11   C     C_3   0.557994 0.887319 0.915879 -0.106551
C12   C     C_1   0.081134 0.575237 0.210717 0.037056
C13   C     C_2   0.408972 0.865178 0.793384 -0.082448
C14   C     C_1   0.081142 0.424766 0.710721 0.037185
C15   C     C_1   0.581136 0.075239 0.210694 0.037268
C16   C     C_1   0.581136 0.924765 0.710714 0.037258
C17   C     C_2   0.107124 0.597203 0.176788 -0.087493
C18   C     C_2   0.107135 0.402801 0.676800 -0.087335
C19   C     C_2   0.607111 0.097215 0.176701 -0.087189
C20   C     C_2   0.607120 0.902795 0.676764 -0.087217
C21   C     C_2   0.113595 0.628501 0.275890 0.215438
C22   C     C_2   0.113606 0.371504 0.775904 0.215553
C23   C     C_2   0.613596 0.128507 0.275848 0.215407
C24   C     C_2   0.408966 0.134820 0.293370 -0.082422
C25   C     C_2   0.613595 0.871500 0.775883 0.215466
C26   C     C_R   0.739939 0.283537 0.053607 0.018904
C27   C     C_R   0.739967 0.716439 0.554355 0.018912
C28   C     C_R   0.239976 0.783561 0.054504 0.018899
C29   C     C_R   0.239978 0.216441 0.554524 0.018896
C30   C     C_R   0.777605 0.274003 0.059859 0.055103
C31   C     C_R   0.777621 0.726012 0.560008 0.055034
C32   C     C_R   0.277624 0.773984 0.060025 0.055077
C33   C     C_R   0.277627 0.226017 0.560060 0.055074
C34   C     C_R   0.788266 0.240261 0.101332 0.045465
C35   C     C_3   0.942400 0.387191 0.773851 -0.105319
C36   C     C_R   0.788270 0.759791 0.600899 0.045488
C37   C     C_R   0.288266 0.740201 0.100784 0.045465
C38   C     C_R   0.288272 0.259800 0.600840 0.045468
C39   C     C_3   0.896039 0.522646 0.142853 0.295149
C40   C     C_3   0.896039 0.477352 0.642821 0.295039
C41   C     C_3   0.396035 0.022645 0.142837 0.295210
C42   C     C_3   0.396035 0.977354 0.642837 0.295198
C43   C     C_R   0.730966 0.317542 0.012693 -0.101740
C44   C     C_R   0.731023 0.682355 0.514656 -0.101730
C45   C     C_R   0.231037 0.817647 0.015031 -0.101769
C46   C     C_3   0.942386 0.612799 0.273800 -0.104523
C47   C     C_R   0.231038 0.182348 0.515162 -0.101772
C48   C     C_R   0.852446 0.256211 0.070848 -0.060832
C49   C     C_R   0.852429 0.743920 0.569074 -0.060783
C50   C     C_R   0.352410 0.756055 0.068666 -0.060820
C51   C     C_R   0.352412 0.243954 0.568564 -0.060808
C52   C     C_R   0.270006 0.681927 0.179754 -0.141589
C53   C     C_R   0.270023 0.318050 0.680190 -0.141580
C54   C     C_R   0.769981 0.181912 0.178961 -0.141605
C55   C     C_R   0.769997 0.818084 0.679628 -0.141651
C56   C     C_R   0.243334 0.658245 0.214443 0.651530
C57   C     C_3   0.442387 0.887196 0.773788 -0.105680
C58   C     C_R   0.243352 0.341732 0.714892 0.651539
C59   C     C_R   0.743308 0.158219 0.213518 0.651547
C60   C     C_R   0.743325 0.841765 0.714299 0.651485
C61   C     C_R   0.826184 0.232229 0.105821 -0.093243
C62   C     C_R   0.826172 0.767894 0.604179 -0.093216
C63   C     C_R   0.326152 0.732082 0.103785 -0.093245
C64   C     C_R   0.326155 0.267926 0.603717 -0.093237
C65   C     C_3   0.862478 0.545619 0.132458 -0.335989
C66   C     C_3   0.862479 0.454378 0.632420 -0.335862
C67   C     C_3   0.362473 0.045616 0.132440 -0.336031
C68   C     C_3   0.442382 0.112803 0.273778 -0.105603
C69   C     C_3   0.362473 0.954383 0.632451 -0.336015
C70   C     C_3   0.104056 0.477034 0.047023 0.286844
C71   C     C_3   0.104050 0.522969 0.547022 0.286850
C72   C     C_3   0.604055 0.977034 0.047025 0.286852
C73   C     C_3   0.604056 0.022967 0.547020 0.286907
C74   C     C_3   0.137489 0.453909 0.059564 -0.307238
C75   C     C_3   0.137483 0.546095 0.559516 -0.307270
C76   C     C_3   0.637489 0.953910 0.059547 -0.307250
C77   C     C_3   0.637490 0.046091 0.559538 -0.307334
C78   C     C_3   0.003754 0.658644 0.585146 0.321726
C79   C     C_1   0.919102 0.424518 0.978906 0.035943
C80   C     C_3   0.003722 0.341387 0.085132 0.322080
C81   C     C_3   0.503719 0.158609 0.585077 0.322152
C82   C     C_3   0.503650 0.841434 0.085191 0.322582
C83   C     C_R   0.822261 0.355922 0.947482 0.593017
C84   C     C_R   0.822295 0.644042 0.448452 0.592975
C85   C     C_R   0.322302 0.855961 0.948636 0.592995
C86   C     C_R   0.322300 0.144037 0.448699 0.592980
C87   C     C_1   0.919109 0.575488 0.478948 0.035959
C88   C     C_1   0.419115 0.924509 0.978951 0.035913
C89   C     C_3   0.987302 0.308723 0.144450 -0.311220
C90   C     C_1   0.419114 0.075491 0.478955 0.035948
C91   C     C_2   0.893231 0.402440 0.012990 -0.087914
C92   C     C_2   0.893263 0.597583 0.513130 -0.087785
C93   C     C_2   0.393278 0.902408 0.013173 -0.087832
C94   C     C_2   0.393277 0.097593 0.513182 -0.087787
C95   C     C_2   0.886877 0.371131 0.913843 0.226423
C96   C     C_2   0.886890 0.628880 0.413902 0.225886
C97   C     C_2   0.386890 0.871118 0.913905 0.226062
C98   C     C_2   0.386887 0.128881 0.413906 0.226057
C99   C     C_R   0.804950 0.298500 0.024199 -0.083227
C100  C     C_3   0.487253 0.191246 0.644446 -0.311452
C101  C     C_R   0.804967 0.701517 0.524325 -0.083253
C102  C     C_R   0.304968 0.798479 0.024335 -0.083252
C103  C     C_R   0.304969 0.201522 0.524361 -0.083256
C104  C     C_R   0.794931 0.332070 0.983328 -0.033836
C105  C     C_R   0.794967 0.667891 0.484353 -0.033797
C106  C     C_R   0.294974 0.832111 0.984545 -0.033818
C107  C     C_R   0.294974 0.167887 0.484617 -0.033811
C108  C     C_R   0.757784 0.341103 0.978489 -0.056163
C109  C     C_R   0.757843 0.658792 0.480538 -0.056128
C110  C     C_R   0.257857 0.841214 0.980926 -0.056150
C111  C     C_3   0.487246 0.808757 0.144441 -0.311586
C112  C     C_R   0.257857 0.158780 0.481072 -0.056139
C113  C     C_R   0.842352 0.289434 0.029544 -0.030939
C114  C     C_R   0.842351 0.710637 0.528748 -0.030903
C115  C     C_R   0.342343 0.789349 0.028564 -0.030882
C116  C     C_R   0.342344 0.210655 0.528530 -0.030887
C117  C     C_3   0.997266 0.658304 0.103934 0.324812
C118  C     C_3   0.997018 0.341515 0.604376 0.323247
C119  C     C_3   0.496871 0.158574 0.104577 0.322308
C120  C     C_3   0.496868 0.841423 0.604546 0.322275
C121  C     C_2   0.941743 0.420099 0.863621 -0.266863
C122  C     C_R   0.869045 0.313765 0.993721 0.593126
C123  C     C_2   0.941734 0.579895 0.363591 -0.267182
C124  C     C_2   0.441734 0.920104 0.863564 -0.266818
C125  C     C_2   0.441731 0.079896 0.363563 -0.266785
C126  C     C_2   0.058422 0.579813 0.325673 -0.267895
C127  C     C_2   0.058432 0.420191 0.825683 -0.267807
C128  C     C_2   0.558437 0.079806 0.325705 -0.267721
C129  C     C_2   0.558430 0.920193 0.825696 -0.267759
C130  C     C_R   0.212665 0.759016 0.088668 0.042984
C131  C     C_R   0.212666 0.240994 0.588579 0.042984
C132  C     C_R   0.712643 0.259025 0.088388 0.042987
C133  C     C_R   0.869044 0.686307 0.492922 0.593027
C134  C     C_R   0.712657 0.740983 0.588604 0.042982
C135  C     C_R   0.260977 0.715778 0.136964 -0.062110
C136  C     C_R   0.260985 0.284216 0.637134 -0.062109
C137  C     C_R   0.760963 0.215801 0.136871 -0.062151
C138  C     C_R   0.760974 0.784221 0.636961 -0.062073
C139  C     C_R   0.223315 0.725266 0.130462 0.046457
C140  C     C_R   0.223320 0.274736 0.630500 0.046463
C141  C     C_R   0.723298 0.225282 0.130283 0.046456
C142  C     C_R   0.723310 0.774732 0.630430 0.046445
C143  C     C_R   0.174744 0.766980 0.082132 -0.099700
C144  C     C_R   0.369036 0.813681 0.992744 0.592965
C145  C     C_R   0.174740 0.233046 0.581783 -0.099694
C146  C     C_R   0.674736 0.267024 0.082519 -0.099677
C147  C     C_R   0.674732 0.733020 0.582134 -0.099672
C148  C     C_R   0.148464 0.743014 0.116637 -0.056036
C149  C     C_R   0.148460 0.257014 0.616263 -0.056043
C150  C     C_R   0.648462 0.243065 0.117206 -0.056047
C151  C     C_R   0.648455 0.756985 0.616668 -0.056053
C152  C     C_R   0.158535 0.709856 0.159334 -0.002074
C153  C     C_R   0.158537 0.290159 0.659170 -0.002117
C154  C     C_R   0.658528 0.209885 0.159518 -0.002123
C155  C     C_R   0.369036 0.186323 0.492700 0.592962
C156  C     C_R   0.658528 0.790143 0.659336 -0.002133
C157  C     C_R   0.195962 0.700747 0.166112 -0.154571
C158  C     C_R   0.195968 0.299256 0.666143 -0.154561
C159  C     C_R   0.695948 0.200761 0.165956 -0.154566
C160  C     C_R   0.695956 0.799253 0.666079 -0.154532
C161  C     C_R   0.205968 0.667162 0.208317 -0.128177
C162  C     C_R   0.205980 0.332830 0.708538 -0.128159
C163  C     C_R   0.705952 0.167158 0.207849 -0.128167
C164  C     C_R   0.705962 0.832841 0.708246 -0.128169
C165  C     C_3   0.013368 0.691186 0.045421 -0.311646
C166  C     C_2   0.908998 0.365157 0.793503 -0.082296
C167  C     C_3   0.013351 0.308782 0.545301 -0.311070
C168  C     C_3   0.513357 0.191216 0.045363 -0.311026
C169  C     C_3   0.513342 0.808775 0.545341 -0.310983
C170  C     C_R   0.178342 0.643439 0.244053 0.638278
C171  C     C_R   0.178355 0.356555 0.744250 0.638253
C172  C     C_R   0.678330 0.143435 0.243634 0.638214
C173  C     C_R   0.678337 0.856564 0.743993 0.638213
C174  C     C_R   0.131735 0.685650 0.194900 0.590823
C175  C     C_R   0.131738 0.314366 0.694736 0.590870
C176  C     C_R   0.631732 0.185679 0.195129 0.590822
F1    F     F_    0.254635 0.626368 0.254363 -0.635994
F2    F     F_    0.254660 0.373593 0.755068 -0.636003
F3    F     F_    0.754598 0.126306 0.252792 -0.635967
F4    F     F_    0.754624 0.873651 0.754111 -0.635964
H1    H     H_    0.980899 0.641162 0.546990 0.016487
H2    H     H_    0.869967 0.428794 0.678384 0.078991
H3    H     H_    0.336814 0.292758 0.632326 0.079228
H4    H     H_    0.963845 0.437828 0.846078 0.073053
H5    H     H_    0.963837 0.562167 0.346049 0.073072
H6    H     H_    0.463834 0.937834 0.846007 0.073062
H7    H     H_    0.463833 0.062168 0.346014 0.073040
H8    H     H_    0.036147 0.562249 0.342791 0.073593
H9    H     H_    0.036155 0.437753 0.842796 0.073506
H10   H     H_    0.536159 0.062245 0.342820 0.073469
H11   H     H_    0.536153 0.937755 0.842810 0.073483
H12   H     H_    0.020279 0.640697 0.138397 0.019735
H13   H     H_    0.369957 0.071197 0.178460 0.078768
H14   H     H_    0.019940 0.359101 0.640714 0.018290
H15   H     H_    0.519706 0.141015 0.141958 0.017442
H16   H     H_    0.519708 0.858978 0.641897 0.017566
H17   H     H_    0.982145 0.664886 0.210430 -0.043567
H18   H     H_    0.981601 0.334699 0.709781 -0.041837
H19   H     H_    0.481295 0.165504 0.209223 -0.040429
H20   H     H_    0.481295 0.834499 0.709206 -0.040383
H21   H     H_    0.032874 0.685893 0.952629 0.164812
H22   H     H_    0.032934 0.314283 0.453037 0.165506
H23   H     H_    0.532995 0.185602 0.953517 0.165720
H24   H     H_    0.369957 0.928801 0.678463 0.078803
H25   H     H_    0.532971 0.814381 0.453450 0.165802
H26   H     H_    0.991091 0.708193 0.996917 0.099095
H27   H     H_    0.991200 0.291731 0.495932 0.098659
H28   H     H_    0.491297 0.208288 0.995440 0.098616
H29   H     H_    0.491275 0.791703 0.495484 0.098553
H30   H     H_    0.905849 0.519846 0.269438 0.005656
H31   H     H_    0.905854 0.480146 0.769404 0.005616
H32   H     H_    0.405846 0.019847 0.269422 0.005635
H33   H     H_    0.405849 0.980152 0.769420 0.005642
H34   H     H_    0.917708 0.534562 0.074752 0.077088
H35   H     H_    0.851608 0.548017 0.006241 0.134193
H36   H     H_    0.917706 0.465439 0.574696 0.077099
H37   H     H_    0.417703 0.034561 0.074730 0.077032
H38   H     H_    0.417702 0.965438 0.574723 0.077050
H39   H     H_    0.851603 0.451988 0.506208 0.134171
H40   H     H_    0.351604 0.048015 0.006223 0.134174
H41   H     H_    0.351601 0.951985 0.506236 0.134172
H42   H     H_    0.094750 0.479954 0.919954 0.004601
H43   H     H_    0.094733 0.520050 0.419964 0.004628
H44   H     H_    0.594745 0.979953 0.919960 0.004585
H45   H     H_    0.980849 0.358870 0.047287 0.016710
H46   H     H_    0.594746 0.020046 0.419955 0.004590
H47   H     H_    0.082029 0.465214 0.113360 0.075154
H48   H     H_    0.082029 0.534788 0.613395 0.075231
H49   H     H_    0.582031 0.965213 0.113378 0.075132
H50   H     H_    0.582031 0.034788 0.613368 0.075123
H51   H     H_    0.159556 0.464549 0.989393 0.152158
H52   H     H_    0.159543 0.535457 0.489302 0.152146
H53   H     H_    0.659553 0.964550 0.989362 0.152185
H54   H     H_    0.659555 0.035449 0.489365 0.152165
H55   H     H_    0.130063 0.428399 0.012553 0.073568
H56   H     H_    0.480869 0.141112 0.547080 0.016271
H57   H     H_    0.130054 0.571606 0.512528 0.073616
H58   H     H_    0.630062 0.928399 0.012540 0.073476
H59   H     H_    0.630064 0.071601 0.512517 0.073421
H60   H     H_    0.147842 0.451370 0.186407 0.141694
H61   H     H_    0.147847 0.548632 0.686346 0.141703
H62   H     H_    0.647845 0.951371 0.186385 0.141703
H63   H     H_    0.647845 0.048633 0.686377 0.141720
H64   H     H_    0.019478 0.665622 0.480989 -0.039819
H65   H     H_    0.019397 0.334454 0.980786 -0.040631
H66   H     H_    0.519413 0.165571 0.480818 -0.040566
H67   H     H_    0.480771 0.858936 0.047670 0.016658
H68   H     H_    0.519269 0.834529 0.980634 -0.041115
H69   H     H_    0.972379 0.704551 0.543343 0.123906
H70   H     H_    0.972412 0.295445 0.043184 0.123552
H71   H     H_    0.472382 0.204535 0.543166 0.123647
H72   H     H_    0.472362 0.795482 0.043154 0.123719
H73   H     H_    0.967629 0.685657 0.736318 0.165418
H74   H     H_    0.967628 0.314314 0.236188 0.165572
H75   H     H_    0.467553 0.185620 0.736037 0.165256
H76   H     H_    0.467569 0.814329 0.236189 0.165114
H77   H     H_    0.028397 0.704329 0.146733 0.122888
H78   H     H_    0.840785 0.534939 0.204602 0.137619
H79   H     H_    0.028342 0.295581 0.646545 0.122583
H80   H     H_    0.528307 0.204442 0.146633 0.122513
H81   H     H_    0.528300 0.795553 0.646605 0.122501
H82   H     H_    0.876599 0.406786 0.113660 0.101756
H83   H     H_    0.876670 0.593261 0.613949 0.102134
H84   H     H_    0.376700 0.906721 0.114051 0.102185
H85   H     H_    0.376703 0.093281 0.614071 0.102191
H86   H     H_    0.749143 0.366692 0.947813 0.124814
H87   H     H_    0.749220 0.633145 0.450781 0.124810
H88   H     H_    0.249241 0.866865 0.951341 0.124826
H89   H     H_    0.840790 0.465050 0.704606 0.137636
H90   H     H_    0.249241 0.133124 0.451562 0.124822
H91   H     H_    0.095292 0.657318 0.468252 0.091430
H92   H     H_    0.095303 0.342686 0.968259 0.091327
H93   H     H_    0.595326 0.157297 0.468368 0.091502
H94   H     H_    0.595303 0.842692 0.968298 0.091421
H95   H     H_    0.119879 0.750727 0.109679 0.115932
H96   H     H_    0.119871 0.249313 0.609109 0.115908
H97   H     H_    0.619887 0.250804 0.110732 0.115945
H98   H     H_    0.619868 0.749270 0.609754 0.115932
H99   H     H_    0.164066 0.791627 0.049994 0.068107
H100  H     H_    0.340780 0.034935 0.204582 0.137641
H101  H     H_    0.164058 0.208414 0.549398 0.068104
H102  H     H_    0.664068 0.291710 0.051086 0.068096
H103  H     H_    0.664036 0.708374 0.550065 0.068114
H104  H     H_    0.703304 0.327124 0.005911 0.071636
H105  H     H_    0.703387 0.672687 0.509038 0.071644
H106  H     H_    0.203407 0.827306 0.009637 0.071661
H107  H     H_    0.203409 0.172684 0.509900 0.071659
H108  H     H_    0.905281 0.342442 0.721250 0.091878
H109  H     H_    0.905250 0.657525 0.221055 0.092379
H110  H     H_    0.405220 0.842492 0.720948 0.092235
H111  H     H_    0.340782 0.965063 0.704604 0.137641
H112  H     H_    0.405213 0.157504 0.220925 0.092246
H113  H     H_    0.881014 0.248462 0.076258 0.121953
H114  H     H_    0.880981 0.751726 0.573569 0.122003
H115  H     H_    0.380952 0.748241 0.072952 0.122022
H116  H     H_    0.380952 0.251773 0.572762 0.122024
H117  H     H_    0.297759 0.672577 0.188350 0.113207
H118  H     H_    0.297781 0.327383 0.689050 0.113192
H119  H     H_    0.797716 0.172520 0.186771 0.113240
H120  H     H_    0.797742 0.827459 0.688087 0.113280
H121  H     H_    0.009360 0.708324 0.694644 0.097727
H122  H     H_    0.869963 0.571200 0.178474 0.078804
H123  H     H_    0.009393 0.291704 0.194523 0.097739
H124  H     H_    0.509318 0.208271 0.694728 0.097972
H125  H     H_    0.509347 0.791743 0.194485 0.098030
H126  H     H_    0.123788 0.592766 0.076307 0.105323
H127  H     H_    0.123803 0.407241 0.576332 0.105207
H128  H     H_    0.623754 0.092791 0.076135 0.105378
H129  H     H_    0.623779 0.907228 0.576258 0.105270
H130  H     H_    0.836875 0.207487 0.135969 0.079110
H131  H     H_    0.836862 0.792702 0.633199 0.079193
H132  H     H_    0.336813 0.707259 0.132524 0.079214
N1    N     N_R   0.858883 0.346575 0.951968 -0.425157
N2    N     N_R   0.858899 0.653442 0.452032 -0.425148
N3    N     N_R   0.358899 0.846555 0.952037 -0.425115
N4    N     N_R   0.358897 0.153445 0.452043 -0.425123
N5    N     N_R   0.141753 0.652911 0.237951 -0.437497
N6    N     N_R   0.141761 0.347094 0.737960 -0.437527
N7    N     N_R   0.641748 0.152922 0.237878 -0.437516
N8    N     N_R   0.641749 0.847089 0.737933 -0.437534
O1    O     O_2   0.072110 0.546320 0.923350 -0.455692
O2    O     O_3   0.973465 0.356168 0.483387 -0.561170
O3    O     O_3   0.473483 0.143826 0.983352 -0.561070
O4    O     O_3   0.473479 0.856173 0.483335 -0.561121
O5    O     O_3   0.958050 0.483830 0.034350 -0.497597
O6    O     O_3   0.958050 0.516170 0.534350 -0.497617
O7    O     O_3   0.458050 0.983830 0.034350 -0.497631
O8    O     O_3   0.458050 0.016170 0.534350 -0.497637
O9    O     O_2   0.813389 0.384893 0.910624 -0.594825
O10   O     O_2   0.813432 0.615024 0.412335 -0.594843
O11   O     O_2   0.313444 0.884984 0.912670 -0.594862
O12   O     O_2   0.072110 0.453680 0.423350 -0.455646
O13   O     O_2   0.313441 0.115011 0.412771 -0.594858
O14   O     O_2   0.099318 0.693684 0.186352 -0.622657
O15   O     O_2   0.099317 0.306344 0.686040 -0.622540
O16   O     O_2   0.599319 0.193728 0.186881 -0.622498
O17   O     O_2   0.599311 0.806313 0.686398 -0.622472
O18   O     O_2   0.901470 0.305777 0.000939 -0.621973
O19   O     O_2   0.901456 0.694348 0.499387 -0.621902
O20   O     O_2   0.401442 0.805633 0.999052 -0.622046
O21   O     O_2   0.401441 0.194374 0.498955 -0.622009
O22   O     O_2   0.186855 0.614468 0.282237 -0.505438
O23   O     O_2   0.572110 0.046320 0.923350 -0.455662
O24   O     O_2   0.186871 0.385517 0.782577 -0.505438
O25   O     O_2   0.686844 0.114450 0.281571 -0.505447
O26   O     O_2   0.686851 0.885537 0.782153 -0.505439
O27   O     O_3   0.042000 0.516250 0.155330 -0.497692
O28   O     O_3   0.042000 0.483750 0.655330 -0.497711
O29   O     O_3   0.542000 0.016250 0.155330 -0.497736
O30   O     O_3   0.542000 0.983750 0.655330 -0.497729
O31   O     O_3   0.012540 0.574900 0.645500 -0.465712
O32   O     O_3   0.012540 0.425100 0.145500 -0.465755
O33   O     O_3   0.512540 0.074900 0.645500 -0.465737
O34   O     O_2   0.572110 0.953680 0.423350 -0.455661
O35   O     O_3   0.512540 0.925100 0.145500 -0.465828
O36   O     O_2   0.079112 0.598028 0.741427 -0.480318
O37   O     O_2   0.079112 0.401973 0.241466 -0.480273
O38   O     O_2   0.579107 0.098033 0.741521 -0.480332
O39   O     O_2   0.579108 0.901967 0.241496 -0.480289
O40   O     O_3   0.113976 0.508668 0.111433 -0.620781
O41   O     O_3   0.113974 0.491336 0.611414 -0.620827
O42   O     O_3   0.613976 0.008668 0.111425 -0.620779
O43   O     O_3   0.613976 0.991333 0.611429 -0.620808
O44   O     O_3   0.026979 0.643751 0.706543 -0.560954
O45   O     O_3   0.886087 0.509073 0.579310 -0.626602
O46   O     O_3   0.026983 0.356250 0.206478 -0.560871
O47   O     O_3   0.526972 0.143749 0.706460 -0.560737
O48   O     O_3   0.526973 0.856250 0.206452 -0.560806
O49   O     O_2   0.928110 0.546600 0.766510 -0.455416
O50   O     O_2   0.928110 0.453400 0.266510 -0.455438
O51   O     O_2   0.428110 0.046600 0.766510 -0.455466
O52   O     O_2   0.428110 0.953400 0.266510 -0.455473
O53   O     O_3   0.987780 0.574950 0.044470 -0.466029
O54   O     O_3   0.987780 0.425050 0.544470 -0.465710
O55   O     O_3   0.487780 0.074950 0.044470 -0.465504
O56   O     O_3   0.886088 0.490928 0.079305 -0.626674
O57   O     O_3   0.487780 0.925050 0.544470 -0.465505
O58   O     O_2   0.921229 0.598175 0.948435 -0.481334
O59   O     O_2   0.921235 0.401815 0.448477 -0.481268
O60   O     O_2   0.421244 0.098188 0.948372 -0.481418
O61   O     O_2   0.421242 0.901814 0.448394 -0.481418
O62   O     O_3   0.386086 0.009075 0.579303 -0.626596
O63   O     O_3   0.386086 0.990924 0.079298 -0.626592
O64   O     O_3   0.973446 0.643831 0.983438 -0.561568
P1    P     P_3+3 0.075650 0.535480 0.098240 0.998587
P2    P     P_3+3 0.955023 0.393026 0.562276 0.969672
P3    P     P_3+3 0.455023 0.106975 0.062225 0.969653
P4    P     P_3+3 0.455023 0.893025 0.562228 0.969630
P5    P     P_3+3 0.045360 0.393134 0.127538 0.969837
P6    P     P_3+3 0.045355 0.606872 0.627537 0.969726
P7    P     P_3+3 0.545358 0.893134 0.127548 0.969836
P8    P     P_3+3 0.545360 0.106867 0.627556 0.969854
P9    P     P_3+3 0.075650 0.464520 0.598240 0.998615
P10   P     P_3+3 0.575650 0.035480 0.098240 0.998665
P11   P     P_3+3 0.575650 0.964520 0.598240 0.998647
P12   P     P_3+3 0.924520 0.535770 0.591580 0.993208
P13   P     P_3+3 0.924520 0.464230 0.091580 0.993150
P14   P     P_3+3 0.424520 0.035770 0.591580 0.993173
P15   P     P_3+3 0.424520 0.964230 0.091580 0.993159
P16   P     P_3+3 0.955014 0.606963 0.062252 0.969366

loop_
_geom_bond_atom_site_label_1
_geom_bond_atom_site_label_2
_ccdc_geom_bond_type
C38   C64   A    
C35   C121  S    
O30   P11   S    
C72   H44   S    
C138  C142  A    
C5    H92   S    
C37   C63   A    
C10   C128  S    
C62   H131  S    
C85   O11   D    
C8    C126  S    
C121  H4    S    
C67   H100  S    
C86   C107  A    
C10   P8    S    
C40   O45   S    
C150  C154  A    
C15   P10   S    
O3    P3    S    
C8    P6    S    
O4    P4    S    
C117  O64   S    
C53   C136  A    
C77   H54   S    
C153  C175  A    
C33   C38   A    
C5    C9    S    
C44   H105  S    
C13   C57   S    
C87   C92   D    
C152  C174  A    
C148  C152  A    
C64   H3    S    
C42   O62   S    
C149  C153  A    
C40   C66   S    
C147  C151  A    
C113  C122  A    
C54   H119  S    
C137  C141  A    
Ba1   O5    S    
C89   H123  S    
C66   H89   S    
C79   P13   S    
C99   C113  A    
C126  H8    S    
C5    C22   D    
C59   F3    S    
C78   H1    S    
C32   C102  A    
C160  C164  A    
C72   O42   S    
O58   P16   D    
C89   H70   S    
C91   H82   S    
C122  O18   D    
O7    P15   S    
C115  C144  A    
C94   C98   S    
C38   C136  A    
C57   P4    S    
C100  H75   S    
C168  H80   S    
C15   C19   D    
C47   H107  S    
O61   P4    D    
C120  O4    S    
C52   H117  S    
C165  H77   S    
C66   H39   S    
C167  H22   S    
C167  H79   S    
C87   C123  D    
C84   C105  A    
O57   P4    S    
Ba2   O27   S    
C69   H24   S    
C26   C132  A    
C27   C44   A    
C17   H126  S    
C101  C114  A    
C77   H63   S    
C53   H118  S    
C156  C160  A    
C103  C116  A    
C82   O48   S    
C82   H67   S    
Ba4   O7    S    
C80   H65   S    
C47   C112  A    
C70   H47   S    
C175  N6    Am   
C147  H103  S    
C75   H52   S    
C41   O63   S    
C50   C63   A    
C78   H64   S    
C134  C147  A    
O56   P13   S    
C56   C161  A    
Ba2   O6    S    
C119  H19   S    
C71   H43   S    
C31   C36   A    
C117  H17   S    
C118  O2    S    
C165  H21   S    
C1    C78   S    
C54   C137  A    
C77   H59   S    
C176  N7    Am   
C12   P1    S    
C85   C106  A    
O36   P6    D    
C124  H6    S    
C80   C89   S    
C75   H57   S    
C42   H38   S    
C71   O41   S    
Ba2   O32   S    
C175  O15   D    
C118  H18   S    
C21   N5    S    
C63   H132  S    
O52   P15   D    
C46   C123  S    
Ba4   P15   S    
C71   C75   S    
C153  C158  A    
C139  C157  A    
C157  C161  A    
C48   C61   A    
C78   O44   S    
C6    C23   D    
C12   C17   D    
C41   C67   S    
C40   H36   S    
C144  N3    Am   
Ba3   O8    S    
Ba3   P10   S    
C17   C21   S    
C149  H96   S    
C28   C32   A    
C119  H15   S    
C111  H125  S    
C43   H104  S    
C172  N7    Am   
O46   P5    S    
C1    H69   S    
C95   N1    S    
C145  C149  A    
C135  C139  A    
O31   P6    S    
C18   H127  S    
C65   H122  S    
C171  O24   D    
C106  C110  A    
C117  H12   S    
C119  C168  S    
O23   P10   D    
C48   C113  A    
C59   C163  A    
C130  C139  A    
C39   C65   S    
C50   C115  A    
C84   N2    Am   
C45   H106  S    
C127  H9    S    
C7    C11   S    
C49   H114  S    
Ba1   O28   S    
O33   P8    S    
C88   C93   D    
C94   H85   S    
Ba2   O12   S    
C26   C30   A    
C70   O40   S    
O64   P16   S    
O44   P6    S    
C55   C138  A    
Ba3   P14   S    
C6    C10   S    
Ba2   P9    S    
C49   C114  A    
C141  C159  A    
C161  C170  A    
C142  C160  A    
C39   O56   S    
C2    C46   S    
C82   C111  S    
C2    C96   D    
C76   H53   S    
C31   C101  A    
C148  H95   S    
O35   P7    S    
C34   C61   A    
C4    C8    S    
Ba1   O31   S    
Ba4   P11   S    
C1    H73   S    
C19   H128  S    
C118  H14   S    
C154  C159  A    
C58   C162  A    
C152  C157  A    
C18   C22   S    
C34   C137  A    
C76   H62   S    
C39   H34   S    
O34   P11   D    
C24   H112  S    
Ba3   Ba4   S    
Ba4   O35   S    
C15   C128  D    
C101  C105  A    
O1    P1    D    
C67   H40   S    
C14   C18   D    
C103  C107  A    
C168  H23   S    
C169  H25   S    
C109  H87   S    
C110  H88   S    
C122  N1    Am   
C30   C99   A    
O45   P12   S    
C16   P11   S    
C81   H56   S    
C41   H37   S    
O40   P1    S    
C70   H42   S    
C88   P15   S    
C28   C130  A    
C134  C142  A    
C165  H26   S    
C92   C96   S    
C73   H50   S    
Ba3   O55   S    
C6    H93   S    
C71   H48   S    
O29   P10   S    
C66   H2    S    
C60   F4    S    
C118  C167  S    
C42   H33   S    
C146  H102  S    
C39   H30   S    
C42   C69   S    
C9    P5    S    
C74   H55   S    
C170  O22   D    
C102  C115  A    
O62   P14   S    
C117  C165  S    
C169  H81   S    
C51   C64   A    
C14   C127  D    
C2    H109  S    
C68   C125  S    
C95   C166  D    
C133  O19   D    
C130  C143  A    
C162  C171  A    
C123  H5    S    
C100  H71   S    
C75   H61   S    
C33   C103  A    
C174  N5    Am   
C166  H108  S    
C90   C94   D    
C91   C95   S    
C164  C173  A    
C40   H31   S    
O27   P1    S    
C87   P12   S    
C20   C25   S    
O54   P2    S    
C80   O46   S    
C158  C162  A    
C111  H72   S    
C107  C112  A    
C173  N8    Am   
C12   C126  D    
C45   C110  A    
O8    P14   S    
C36   C62   A    
C105  C109  A    
C4    C21   D    
Ba3   O30   S    
C32   C37   A    
C24   C68   S    
C79   C121  D    
C51   C116  A    
C82   H68   S    
Ba4   O8    S    
C72   C76   S    
O60   P3    D    
C108  H86   S    
C52   C135  A    
Ba4   O52   S    
C3    C156  A    
C29   C33   A    
C52   C56   A    
O5    P13   S    
C155  O21   D    
C58   F2    S    
C143  H99   S    
C171  N6    Am   
C73   C77   S    
C129  H11   S    
C9    C127  S    
C27   C134  A    
C80   H45   S    
C81   C100  S    
Ba4   O57   S    
Ba1   O6    S    
C27   C31   A    
C172  O25   D    
C3    N8    Am   
C65   H35   S    
C136  C140  A    
C20   H129  S    
Ba4   O34   S    
C65   H78   S    
C29   C47   A    
Ba3   O7    S    
C120  H16   S    
C144  O20   D    
C154  C176  A    
Ba3   O33   S    
C85   N3    Am   
C60   C164  A    
C86   N4    Am   
C1    H121  S    
Ba1   P1    S    
C119  O3    S    
C76   H58   S    
C57   C124  S    
C11   P7    S    
O39   P7    D    
C74   H60   S    
C37   C135  A    
C4    H91   S    
O32   P5    S    
O37   P5    D    
C89   H74   S    
C22   N6    S    
C104  C108  A    
C3    O17   D    
C174  O14   D    
C70   C74   S    
O55   P3    S    
O2    P2    S    
C150  H97   S    
C50   H115  S    
C96   N2    S    
C84   O10   D    
C44   C109  A    
C97   N3    S    
C98   N4    S    
C36   C138  A    
C25   N8    S    
C169  H29   S    
O59   P2    D    
C53   C58   A    
Ba1   O49   S    
O51   P14   D    
C55   C60   A    
C100  H124  S    
Ba2   O5    S    
Ba3   O51   S    
C120  H20   S    
C35   C166  S    
C111  H76   S    
C43   C108  A    
C125  H7    S    
C41   H32   S    
O42   P10   S    
Ba1   Ba2   S    
C46   P16   S    
C13   C97   D    
O28   P9    S    
C14   P9    S    
C83   C104  A    
C16   C20   D    
C74   H51   S    
C116  C155  A    
O63   P15   S    
C99   C104  A    
C19   C23   S    
C29   C131  A    
C114  C133  A    
C132  C141  A    
C83   N1    Am   
O48   P7    S    
C92   H83   S    
C81   H66   S    
Ba1   P12   S    
C128  H10   S    
C88   C124  D    
C67   H13   S    
C13   H110  S    
C28   C45   A    
Ba1   O53   S    
C90   C125  D    
C23   N7    S    
C73   H46   S    
C26   C43   A    
O49   P12   D    
C176  O16   D    
C61   H130  S    
C83   O9    D    
C120  C169  S    
C131  C145  A    
C35   P2    S    
C48   H113  S    
C90   P14   S    
C86   O13   D    
C159  C163  A    
C173  O26   D    
C167  H27   S    
C93   H84   S    
O38   P8    D    
C56   F1    S    
C79   C91   D    
Ba2   O50   S    
O53   P16   S    
Ba2   P13   S    
C112  H90   S    
C49   C62   A    
C72   H49   S    
C131  C140  A    
C16   C129  D    
C133  N2    Am   
C170  N5    Am   
Ba3   O23   S    
C55   H120  S    
C102  C106  A    
C54   C59   A    
C73   O43   S    
O6    P12   S    
C7    H94   S    
C140  C158  A    
C151  C156  A    
C30   C34   A    
C145  H101  S    
O50   P13   D    
C168  H28   S    
C132  C146  A    
C11   C129  S    
O43   P11   S    
C69   H111  S    
C151  H98   S    
C143  C148  A    
Ba4   O29   S    
C69   H41   S    
Ba2   O54   S    
C93   C97   S    
C24   C98   D    
C51   H116  S    
C81   O47   S    
O47   P8    S    
C7    C25   D    
O12   P9    D    
C146  C150  A    
C68   P3    S    
O41   P9    S    
C155  N4    Am   
Ba1   O1    S    
C163  C172  A    
